CHEMBL3759193
     RDKit          3D

  0  0  0  0  0  0  0  0  0  0999 V3000
M  V30 BEGIN CTAB
M  V30 COUNTS 53 56 0 0 0
M  V30 BEGIN ATOM
M  V30 1 C 7.792970 -4.337855 -0.477903 0
M  V30 2 O 7.509475 -3.309243 0.461423 0
M  V30 3 C 6.461875 -2.432168 0.219348 0
M  V30 4 C 6.176773 -1.417651 1.136654 0
M  V30 5 C 5.125509 -0.547734 0.880347 0
M  V30 6 C 4.390304 -0.707534 -0.271023 0
M  V30 7 C 3.298560 0.243620 -0.466165 0
M  V30 8 O 3.081838 1.160354 0.379232 0
M  V30 9 N 2.413352 0.234974 -1.568873 0
M  V30 10 C 1.350625 1.295058 -1.591381 0
M  V30 11 N 0.374014 1.622206 -1.332259 0
M  V30 12 C -0.382733 2.679207 -1.295950 0
M  V30 13 C -1.230715 1.773922 -0.822954 0
M  V30 14 C -2.695899 1.752066 -0.328590 0
M  V30 15 C -3.367132 2.982998 -0.355467 0
M  V30 16 C -4.664211 2.967514 0.082496 0
M  V30 17 C -5.318055 1.846995 0.531171 0
M  V30 18 C -6.693453 1.861805 0.989535 0
M  V30 19 O -7.352874 2.933154 0.994029 0
M  V30 20 O -7.301356 0.700823 1.427537 0
M  V30 21 C -4.596226 0.690624 0.525573 0
M  V30 22 C -3.295662 0.566930 0.115017 0
M  V30 23 O -2.446426 -0.468882 0.042015 0
M  V30 24 C -2.490840 -1.800036 0.332797 0
M  V30 25 C -2.764377 -2.174256 1.740777 0
M  V30 26 C -3.971029 -2.479356 2.328541 0
M  V30 27 C -4.072919 -2.799307 3.659559 0
M  V30 28 C -2.982109 -2.837285 4.491168 0
M  V30 29 Cl -3.136631 -3.245117 6.169436 0
M  V30 30 C -1.736200 -2.542656 3.971932 0
M  V30 31 C -1.691001 -2.223013 2.610170 0
M  V30 32 S -0.137186 0.298266 -0.881547 0
M  V30 33 C 4.611877 -1.681206 -1.218146 0
M  V30 34 C 5.682361 -2.532194 -0.914541 0
M  V30 35 H 8.531432 -5.050120 -0.103386 0
M  V30 36 H 8.103151 -3.811270 -1.410873 0
M  V30 37 H 6.832034 -4.851172 -0.659775 0
M  V30 38 H 6.766239 -1.309173 2.034953 0
M  V30 39 H 4.909953 0.230955 1.590808 0
M  V30 40 H 2.516712 -0.473693 -2.301555 0
M  V30 41 H -0.728017 3.698289 -1.390387 0
M  V30 42 H -2.829099 3.868543 -0.717960 0
M  V30 43 H -5.156023 3.927059 0.052069 0
M  V30 44 H -8.084870 0.689387 2.075360 0
M  V30 45 H -5.033966 -0.228911 0.857585 0
M  V30 46 H -3.218079 -2.390412 -0.277666 0
M  V30 47 H -1.475596 -2.238480 0.083264 0
M  V30 48 H -4.835429 -2.450765 1.651427 0
M  V30 49 H -5.084623 -3.022490 4.011346 0
M  V30 50 H -0.822799 -2.546822 4.550189 0
M  V30 51 H -0.684367 -1.992412 2.225313 0
M  V30 52 H 4.035950 -1.809974 -2.123175 0
M  V30 53 H 5.900964 -3.327540 -1.643894 0
M  V30 END ATOM
M  V30 BEGIN BOND
M  V30 1 1 1 2
M  V30 2 1 2 3
M  V30 3 2 3 4
M  V30 4 1 4 5
M  V30 5 2 5 6
M  V30 6 1 6 7
M  V30 7 2 7 8
M  V30 8 1 7 9
M  V30 9 1 9 10
M  V30 10 2 10 11
M  V30 11 1 11 12
M  V30 12 2 12 13
M  V30 13 1 13 14
M  V30 14 2 14 15
M  V30 15 1 15 16
M  V30 16 2 16 17
M  V30 17 1 17 18
M  V30 18 2 18 19
M  V30 19 1 18 20
M  V30 20 1 17 21
M  V30 21 2 21 22
M  V30 22 1 22 23
M  V30 23 1 23 24
M  V30 24 1 24 25
M  V30 25 2 25 26
M  V30 26 1 26 27
M  V30 27 2 27 28
M  V30 28 1 28 29
M  V30 29 1 28 30
M  V30 30 2 30 31
M  V30 31 1 13 32
M  V30 32 1 6 33
M  V30 33 2 33 34
M  V30 34 1 34 3
M  V30 35 1 32 10
M  V30 36 1 22 14
M  V30 37 1 31 25
M  V30 38 1 1 35
M  V30 39 1 1 36
M  V30 40 1 1 37
M  V30 41 1 4 38
M  V30 42 1 5 39
M  V30 43 1 9 40
M  V30 44 1 12 41
M  V30 45 1 15 42
M  V30 46 1 16 43
M  V30 47 1 20 44
M  V30 48 1 21 45
M  V30 49 1 24 46
M  V30 50 1 24 47
M  V30 51 1 26 48
M  V30 52 1 27 49
M  V30 53 1 30 50
M  V30 54 1 31 51
M  V30 55 1 33 52
M  V30 56 1 34 53
M  V30 END BOND
M  V30 END CTAB
M  END
>  <Dataset>  (1) 
ChEMBL_Kinases

>  <Ligand_Instance>  (1) 
nan

>  <PDB_ID>  (1) 
nan

>  <Standardized_SMILES>  (1) 
COc1ccc(C(=O)Nc2ncc(-c3ccc(C(=O)O)cc3OCc3ccc(Cl)cc3)s2)cc1

>  <Name>  (1) 
nan

>  <Pocket>  (1) 
nan

>  <ATP_Site>  (1) 
nan

>  <Peripheral>  (1) 
nan

>  <Num_H_Atoms_ProtBoundConf>  (1) 
nan

>  <Num_Resolved_Atoms>  (1) 
nan

>  <Num_Not_Resolved_Atoms>  (1) 
nan

$$$$
CHEMBL4163531
     RDKit          3D

  0  0  0  0  0  0  0  0  0  0999 V3000
M  V30 BEGIN CTAB
M  V30 COUNTS 51 54 0 0 0
M  V30 BEGIN ATOM
M  V30 1 C 0.322427 -3.690479 5.288179 0
M  V30 2 C 0.952187 -4.016015 3.971233 0
M  V30 3 C 0.706942 -3.277917 2.819435 0
M  V30 4 C 1.409593 -3.809355 1.788056 0
M  V30 5 N 1.450906 -3.366563 0.419053 0
M  V30 6 C 0.667377 -2.220644 0.118550 0
M  V30 7 C 1.348174 -1.007481 0.203637 0
M  V30 8 C 0.750817 0.191266 -0.048225 0
M  V30 9 N 1.490306 1.394941 0.047855 0
M  V30 10 C 2.914967 1.499057 0.178240 0
M  V30 11 C 3.220709 2.015691 1.551166 0
M  V30 12 N 2.142558 2.724001 2.147813 0
M  V30 13 C 2.637967 3.590387 3.197412 0
M  V30 14 C 1.328765 3.509663 1.259913 0
M  V30 15 C 0.875127 2.734297 0.041004 0
M  V30 16 N -0.542865 0.183947 -0.389789 0
M  V30 17 C -1.248083 -0.957553 -0.487387 0
M  V30 18 N -2.601727 -1.152042 -0.839742 0
M  V30 19 C -3.449643 -1.506901 -1.907822 0
M  V30 20 C -4.800358 -1.498959 -1.644108 0
M  V30 21 C -5.650238 -1.860663 -2.661919 0
M  V30 22 C -5.149124 -2.212960 -3.888827 0
M  V30 23 F -6.079428 -2.551728 -4.816069 0
M  V30 24 C -3.791550 -2.222080 -4.160404 0
M  V30 25 C -2.920851 -1.855348 -3.129413 0
M  V30 26 N -0.628292 -2.137917 -0.230622 0
M  V30 27 N 2.082752 -4.866053 2.298082 0
M  V30 28 N 1.806507 -4.981805 3.591443 0
M  V30 29 H 1.023651 -3.980365 6.086451 0
M  V30 30 H 0.109973 -2.607755 5.324586 0
M  V30 31 H -0.648812 -4.236661 5.388192 0
M  V30 32 H 0.055834 -2.412366 2.748681 0
M  V30 33 H 2.009161 -3.838335 -0.297260 0
M  V30 34 H 2.375478 -0.990682 0.479607 0
M  V30 35 H 3.289730 2.270178 -0.557422 0
M  V30 36 H 3.486937 0.590394 -0.044664 0
M  V30 37 H 4.166561 2.613056 1.478206 0
M  V30 38 H 3.505176 1.151781 2.211527 0
M  V30 39 H 3.724640 3.811014 3.029776 0
M  V30 40 H 2.154934 4.589988 3.214478 0
M  V30 41 H 2.463480 3.152145 4.203944 0
M  V30 42 H 1.844175 4.451384 1.031472 0
M  V30 43 H 0.412077 3.776334 1.838166 0
M  V30 44 H 1.294785 3.242292 -0.855722 0
M  V30 45 H -0.212713 2.698365 -0.056375 0
M  V30 46 H -2.969954 -0.909740 0.124189 0
M  V30 47 H -5.210394 -1.219134 -0.671145 0
M  V30 48 H -6.722535 -1.849909 -2.445626 0
M  V30 49 H -3.464632 -2.516337 -5.169472 0
M  V30 50 H -1.851017 -1.862877 -3.344133 0
M  V30 51 H 2.165246 -5.700265 4.290463 0
M  V30 END ATOM
M  V30 BEGIN BOND
M  V30 1 1 1 2
M  V30 2 2 2 3
M  V30 3 1 3 4
M  V30 4 1 4 5
M  V30 5 1 5 6
M  V30 6 2 6 7
M  V30 7 1 7 8
M  V30 8 1 8 9
M  V30 9 1 9 10
M  V30 10 1 10 11
M  V30 11 1 11 12
M  V30 12 1 12 13
M  V30 13 1 12 14
M  V30 14 1 14 15
M  V30 15 2 8 16
M  V30 16 1 16 17
M  V30 17 1 17 18
M  V30 18 1 18 19
M  V30 19 2 19 20
M  V30 20 1 20 21
M  V30 21 2 21 22
M  V30 22 1 22 23
M  V30 23 1 22 24
M  V30 24 2 24 25
M  V30 25 2 17 26
M  V30 26 2 4 27
M  V30 27 1 27 28
M  V30 28 1 28 2
M  V30 29 1 26 6
M  V30 30 1 15 9
M  V30 31 1 25 19
M  V30 32 1 1 29
M  V30 33 1 1 30
M  V30 34 1 1 31
M  V30 35 1 3 32
M  V30 36 1 5 33
M  V30 37 1 7 34
M  V30 38 1 10 35
M  V30 39 1 10 36
M  V30 40 1 11 37
M  V30 41 1 11 38
M  V30 42 1 13 39
M  V30 43 1 13 40
M  V30 44 1 13 41
M  V30 45 1 14 42
M  V30 46 1 14 43
M  V30 47 1 15 44
M  V30 48 1 15 45
M  V30 49 1 18 46
M  V30 50 1 20 47
M  V30 51 1 21 48
M  V30 52 1 24 49
M  V30 53 1 25 50
M  V30 54 1 28 51
M  V30 END BOND
M  V30 END CTAB
M  END
>  <Dataset>  (2) 
ChEMBL_Kinases

>  <Ligand_Instance>  (2) 
nan

>  <PDB_ID>  (2) 
nan

>  <Standardized_SMILES>  (2) 
Cc1cc(Nc2cc(N3CCN(C)CC3)nc(Nc3ccc(F)cc3)n2)n[nH]1

>  <Name>  (2) 
nan

>  <Pocket>  (2) 
nan

>  <ATP_Site>  (2) 
nan

>  <Peripheral>  (2) 
nan

>  <Num_H_Atoms_ProtBoundConf>  (2) 
nan

>  <Num_Resolved_Atoms>  (2) 
nan

>  <Num_Not_Resolved_Atoms>  (2) 
nan

$$$$
CHEMBL3341789
     RDKit          3D

  0  0  0  0  0  0  0  0  0  0999 V3000
M  V30 BEGIN CTAB
M  V30 COUNTS 60 63 0 0 0
M  V30 BEGIN ATOM
M  V30 1 C 1.760844 -6.218797 4.480684 0
M  V30 2 O 0.728233 -6.534510 3.565564 0
M  V30 3 C 0.520604 -5.684766 2.486974 0
M  V30 4 C 1.217127 -4.531226 2.183510 0
M  V30 5 C 0.890507 -3.784436 1.064790 0
M  V30 6 C 1.608005 -2.588400 0.742001 0
M  V30 7 C 0.927257 -1.444373 0.369308 0
M  V30 8 C 1.565160 -0.257893 0.046014 0
M  V30 9 C 0.852506 0.956307 -0.349874 0
M  V30 10 C 1.414200 2.190497 -0.030353 0
M  V30 11 C 0.852688 3.429013 -0.342202 0
M  V30 12 C -0.346035 3.379301 -1.016084 0
M  V30 13 N -0.999480 4.585644 -1.380060 0
M  V30 14 C -0.526003 5.938206 -1.147987 0
M  V30 15 C -1.373369 6.580599 -0.039519 0
M  V30 16 N -2.713305 6.020364 -0.044156 0
M  V30 17 C -3.075425 5.819329 -1.421094 0
M  V30 18 C -2.277320 4.674503 -2.056675 0
M  V30 19 C -0.950584 2.190421 -1.359463 0
M  V30 20 C -0.355087 0.985333 -1.028459 0
M  V30 21 C 2.960282 -0.187352 0.090615 0
M  V30 22 N 3.632895 -1.303057 0.454333 0
M  V30 23 C 2.982385 -2.460034 0.768312 0
M  V30 24 C 3.800819 -3.626165 1.152818 0
M  V30 25 C -0.147935 -4.215359 0.255251 0
M  V30 26 C -0.865855 -5.377082 0.541371 0
M  V30 27 O -1.894155 -5.749747 -0.313817 0
M  V30 28 C -2.144302 -4.914569 -1.427333 0
M  V30 29 C -0.520932 -6.102768 1.660948 0
M  V30 30 O -1.274504 -7.237692 1.878834 0
M  V30 31 C -2.450217 -7.146305 2.661652 0
M  V30 32 H 1.598635 -6.751422 5.463557 0
M  V30 33 H 2.748023 -6.626895 4.117457 0
M  V30 34 H 1.832767 -5.145418 4.701436 0
M  V30 35 H 1.995431 -4.275125 2.856966 0
M  V30 36 H -0.154443 -1.388756 0.302110 0
M  V30 37 H 2.369981 2.218966 0.506424 0
M  V30 38 H 1.357128 4.329797 -0.055524 0
M  V30 39 H -0.593070 6.585007 -2.050392 0
M  V30 40 H 0.504479 6.011294 -0.802212 0
M  V30 41 H -1.469943 7.658251 -0.280892 0
M  V30 42 H -0.904736 6.464204 0.957585 0
M  V30 43 H -2.775915 5.139905 0.512183 0
M  V30 44 H -2.918894 6.772637 -1.957133 0
M  V30 45 H -4.158309 5.591625 -1.448305 0
M  V30 46 H -2.916318 3.792223 -1.953284 0
M  V30 47 H -2.111804 4.964756 -3.116401 0
M  V30 48 H -1.871568 2.059008 -1.878311 0
M  V30 49 H -0.769657 0.017717 -1.264081 0
M  V30 50 H 3.557677 0.683411 -0.140614 0
M  V30 51 H 4.750241 -3.664843 0.535199 0
M  V30 52 H 3.317311 -4.594575 0.881444 0
M  V30 53 H 4.190742 -3.582533 2.180558 0
M  V30 54 H -0.378833 -3.597112 -0.624616 0
M  V30 55 H -2.371407 -3.869146 -1.094890 0
M  V30 56 H -2.975093 -5.333934 -2.031699 0
M  V30 57 H -1.278156 -4.864647 -2.118070 0
M  V30 58 H -2.425939 -6.261977 3.354317 0
M  V30 59 H -2.634027 -8.072432 3.242518 0
M  V30 60 H -3.356632 -6.989931 2.023639 0
M  V30 END ATOM
M  V30 BEGIN BOND
M  V30 1 1 1 2
M  V30 2 1 2 3
M  V30 3 2 3 4
M  V30 4 1 4 5
M  V30 5 1 5 6
M  V30 6 2 6 7
M  V30 7 1 7 8
M  V30 8 1 8 9
M  V30 9 2 9 10
M  V30 10 1 10 11
M  V30 11 2 11 12
M  V30 12 1 12 13
M  V30 13 1 13 14
M  V30 14 1 14 15
M  V30 15 1 15 16
M  V30 16 1 16 17
M  V30 17 1 17 18
M  V30 18 1 12 19
M  V30 19 2 19 20
M  V30 20 2 8 21
M  V30 21 1 21 22
M  V30 22 2 22 23
M  V30 23 1 23 24
M  V30 24 2 5 25
M  V30 25 1 25 26
M  V30 26 1 26 27
M  V30 27 1 27 28
M  V30 28 2 26 29
M  V30 29 1 29 30
M  V30 30 1 30 31
M  V30 31 1 29 3
M  V30 32 1 23 6
M  V30 33 1 20 9
M  V30 34 1 18 13
M  V30 35 1 1 32
M  V30 36 1 1 33
M  V30 37 1 1 34
M  V30 38 1 4 35
M  V30 39 1 7 36
M  V30 40 1 10 37
M  V30 41 1 11 38
M  V30 42 1 14 39
M  V30 43 1 14 40
M  V30 44 1 15 41
M  V30 45 1 15 42
M  V30 46 1 16 43
M  V30 47 1 17 44
M  V30 48 1 17 45
M  V30 49 1 18 46
M  V30 50 1 18 47
M  V30 51 1 19 48
M  V30 52 1 20 49
M  V30 53 1 21 50
M  V30 54 1 24 51
M  V30 55 1 24 52
M  V30 56 1 24 53
M  V30 57 1 25 54
M  V30 58 1 28 55
M  V30 59 1 28 56
M  V30 60 1 28 57
M  V30 61 1 31 58
M  V30 62 1 31 59
M  V30 63 1 31 60
M  V30 END BOND
M  V30 END CTAB
M  END
>  <Dataset>  (3) 
ChEMBL_Kinases

>  <Ligand_Instance>  (3) 
nan

>  <PDB_ID>  (3) 
nan

>  <Standardized_SMILES>  (3) 
COc1cc(-c2cc(-c3ccc(N4CCNCC4)cc3)cnc2C)cc(OC)c1OC

>  <Name>  (3) 
nan

>  <Pocket>  (3) 
nan

>  <ATP_Site>  (3) 
nan

>  <Peripheral>  (3) 
nan

>  <Num_H_Atoms_ProtBoundConf>  (3) 
nan

>  <Num_Resolved_Atoms>  (3) 
nan

>  <Num_Not_Resolved_Atoms>  (3) 
nan

$$$$
CHEMBL3759349
     RDKit          3D

  0  0  0  0  0  0  0  0  0  0999 V3000
M  V30 BEGIN CTAB
M  V30 COUNTS 54 57 0 0 0
M  V30 BEGIN ATOM
M  V30 1 C 7.076732 -3.954016 4.972411 0
M  V30 2 O 6.854480 -3.531073 3.656540 0
M  V30 3 C 5.811611 -2.720362 3.250541 0
M  V30 4 C 5.757231 -2.408790 1.904293 0
M  V30 5 C 4.768919 -1.609374 1.366483 0
M  V30 6 C 3.782130 -1.085054 2.177166 0
M  V30 7 C 2.672898 -0.235128 1.799469 0
M  V30 8 O 1.779603 0.234759 2.552454 0
M  V30 9 N 2.529724 0.142440 0.429203 0
M  V30 10 C 1.334006 1.021784 0.194993 0
M  V30 11 N 1.068398 2.109643 0.184654 0
M  V30 12 C -0.075115 2.706960 -0.051156 0
M  V30 13 C -1.114928 1.896376 -0.328974 0
M  V30 14 C -2.550324 2.209044 -0.645948 0
M  V30 15 C -3.025500 3.483519 -0.692971 0
M  V30 16 C -4.365427 3.651451 -0.995083 0
M  V30 17 C -5.187313 2.579593 -1.238509 0
M  V30 18 C -6.613981 2.792730 -1.558129 0
M  V30 19 O -7.369156 1.802143 -1.782467 0
M  V30 20 O -7.142206 4.072589 -1.616223 0
M  V30 21 C -4.707276 1.288236 -1.191182 0
M  V30 22 C -3.364075 1.106001 -0.889021 0
M  V30 23 O -2.847226 -0.167540 -0.832350 0
M  V30 24 C -3.547939 -1.357058 -1.053335 0
M  V30 25 C -2.591211 -2.502570 -0.889331 0
M  V30 26 C -2.604308 -3.282990 0.244836 0
M  V30 27 C -1.758198 -4.349740 0.467712 0
M  V30 28 C -0.831700 -4.665822 -0.504676 0
M  V30 29 C -0.800640 -3.897720 -1.648899 0
M  V30 30 C -1.658180 -2.833150 -1.851099 0
M  V30 31 C -1.600798 -2.056219 -3.048452 0
M  V30 32 N -1.534837 -1.428921 -4.012279 0
M  V30 33 S -0.380032 0.263056 -0.235876 0
M  V30 34 C 3.817360 -1.387283 3.544125 0
M  V30 35 C 4.817086 -2.191155 4.063953 0
M  V30 36 H 6.677315 -3.245362 5.719794 0
M  V30 37 H 6.598346 -4.938074 5.181130 0
M  V30 38 H 8.185714 -4.046714 5.149008 0
M  V30 39 H 6.460097 -2.751754 1.176114 0
M  V30 40 H 4.685639 -1.338705 0.321750 0
M  V30 41 H 3.169016 -0.146263 -0.341176 0
M  V30 42 H -0.150345 3.805547 -0.017380 0
M  V30 43 H -2.310278 4.266888 -0.488407 0
M  V30 44 H -4.722306 4.675810 -1.027325 0
M  V30 45 H -8.094788 4.187473 -1.237327 0
M  V30 46 H -5.365128 0.433523 -1.385818 0
M  V30 47 H -3.901868 -1.402757 -2.101830 0
M  V30 48 H -4.390913 -1.538328 -0.354849 0
M  V30 49 H -3.310997 -3.089293 1.053413 0
M  V30 50 H -1.798493 -4.930376 1.359085 0
M  V30 51 H -0.170904 -5.511826 -0.311541 0
M  V30 52 H -0.057408 -4.160798 -2.414617 0
M  V30 53 H 3.101060 -1.035694 4.274589 0
M  V30 54 H 4.887391 -2.453107 5.111213 0
M  V30 END ATOM
M  V30 BEGIN BOND
M  V30 1 1 1 2
M  V30 2 1 2 3
M  V30 3 2 3 4
M  V30 4 1 4 5
M  V30 5 2 5 6
M  V30 6 1 6 7
M  V30 7 2 7 8
M  V30 8 1 7 9
M  V30 9 1 9 10
M  V30 10 2 10 11
M  V30 11 1 11 12
M  V30 12 2 12 13
M  V30 13 1 13 14
M  V30 14 2 14 15
M  V30 15 1 15 16
M  V30 16 2 16 17
M  V30 17 1 17 18
M  V30 18 2 18 19
M  V30 19 1 18 20
M  V30 20 1 17 21
M  V30 21 2 21 22
M  V30 22 1 22 23
M  V30 23 1 23 24
M  V30 24 1 24 25
M  V30 25 2 25 26
M  V30 26 1 26 27
M  V30 27 2 27 28
M  V30 28 1 28 29
M  V30 29 2 29 30
M  V30 30 1 30 31
M  V30 31 3 31 32
M  V30 32 1 13 33
M  V30 33 1 6 34
M  V30 34 2 34 35
M  V30 35 1 35 3
M  V30 36 1 33 10
M  V30 37 1 22 14
M  V30 38 1 30 25
M  V30 39 1 1 36
M  V30 40 1 1 37
M  V30 41 1 1 38
M  V30 42 1 4 39
M  V30 43 1 5 40
M  V30 44 1 9 41
M  V30 45 1 12 42
M  V30 46 1 15 43
M  V30 47 1 16 44
M  V30 48 1 20 45
M  V30 49 1 21 46
M  V30 50 1 24 47
M  V30 51 1 24 48
M  V30 52 1 26 49
M  V30 53 1 27 50
M  V30 54 1 28 51
M  V30 55 1 29 52
M  V30 56 1 34 53
M  V30 57 1 35 54
M  V30 END BOND
M  V30 END CTAB
M  END
>  <Dataset>  (4) 
ChEMBL_Kinases

>  <Ligand_Instance>  (4) 
nan

>  <PDB_ID>  (4) 
nan

>  <Standardized_SMILES>  (4) 
COc1ccc(C(=O)Nc2ncc(-c3ccc(C(=O)O)cc3OCc3ccccc3C#N)s2)cc1

>  <Name>  (4) 
nan

>  <Pocket>  (4) 
nan

>  <ATP_Site>  (4) 
nan

>  <Peripheral>  (4) 
nan

>  <Num_H_Atoms_ProtBoundConf>  (4) 
nan

>  <Num_Resolved_Atoms>  (4) 
nan

>  <Num_Not_Resolved_Atoms>  (4) 
nan

$$$$
CHEMBL4163926
     RDKit          3D

  0  0  0  0  0  0  0  0  0  0999 V3000
M  V30 BEGIN CTAB
M  V30 COUNTS 76 81 0 0 0
M  V30 BEGIN ATOM
M  V30 1 O -0.346216 -1.170758 2.830812 0
M  V30 2 C -0.116095 -2.000898 3.709842 0
M  V30 3 N 0.411287 -3.314415 3.902213 0
M  V30 4 C 0.832971 -3.892461 2.639110 0
M  V30 5 C 0.006132 -4.617931 1.812616 0
M  V30 6 C 0.561429 -5.088662 0.641693 0
M  V30 7 C 1.879917 -4.837820 0.327254 0
M  V30 8 C 2.485928 -5.313113 -0.930141 0
M  V30 9 C 2.439985 -4.320507 -2.041621 0
M  V30 10 N 1.144001 -3.878481 -2.446337 0
M  V30 11 C 1.040998 -2.933221 -3.500507 0
M  V30 12 N 2.139379 -2.463714 -4.111210 0
M  V30 13 C 2.049793 -1.564616 -5.117354 0
M  V30 14 N 0.834887 -1.128704 -5.517690 0
M  V30 15 C -0.293045 -1.562584 -4.944398 0
M  V30 16 O -1.546101 -1.300874 -5.144909 0
M  V30 17 C -2.343724 -1.969917 -4.331417 0
M  V30 18 C -3.790820 -1.820067 -4.392915 0
M  V30 19 C -4.293707 -0.942446 -5.366004 0
M  V30 20 C -5.699861 -0.839277 -5.372711 0
M  V30 21 C -6.593663 -1.495665 -4.543201 0
M  V30 22 C -6.027001 -2.338703 -3.614588 0
M  V30 23 C -4.668809 -2.472207 -3.569536 0
M  V30 24 C -1.487230 -2.710597 -3.561705 0
M  V30 25 Cl -2.012606 -3.795952 -2.303529 0
M  V30 26 C -0.186025 -2.476843 -3.922908 0
M  V30 27 C 2.700859 -4.105552 1.171221 0
M  V30 28 C 2.178326 -3.607983 2.371689 0
M  V30 29 N -0.563393 -1.321820 4.907125 0
M  V30 30 C -1.075059 -0.013379 4.640250 0
M  V30 31 C -2.405075 0.273264 4.374438 0
M  V30 32 C -2.829242 1.566684 4.103849 0
M  V30 33 C -1.836787 2.491068 4.125571 0
M  V30 34 C -0.497960 2.334434 4.372676 0
M  V30 35 C 0.575822 3.329924 4.388446 0
M  V30 36 N 1.228811 3.534501 3.159524 0
M  V30 37 C 1.838335 2.442771 2.509234 0
M  V30 38 C 2.113736 2.688344 1.040615 0
M  V30 39 C 2.814392 3.992935 0.854993 0
M  V30 40 O 4.179936 3.861654 1.185966 0
M  V30 41 C 2.216030 5.137668 1.616208 0
M  V30 42 C 1.009143 4.726168 2.440068 0
M  V30 43 C -0.138816 1.006230 4.638631 0
M  V30 44 H 0.444427 -3.714343 4.863623 0
M  V30 45 H -1.004056 -4.750300 2.160792 0
M  V30 46 H -0.093820 -5.659949 0.000537 0
M  V30 47 H 3.545771 -5.570393 -0.739136 0
M  V30 48 H 1.970828 -6.266022 -1.181769 0
M  V30 49 H 3.044468 -3.426168 -1.804548 0
M  V30 50 H 2.899891 -4.799339 -2.955742 0
M  V30 51 H 0.390107 -4.320919 -1.894935 0
M  V30 52 H 2.991912 -1.247236 -5.547232 0
M  V30 53 H -3.706786 -0.384572 -6.059307 0
M  V30 54 H -6.083953 -0.157384 -6.130146 0
M  V30 55 H -7.628852 -1.290961 -4.694662 0
M  V30 56 H -6.696098 -2.863517 -2.953601 0
M  V30 57 H -4.329878 -3.151025 -2.812718 0
M  V30 58 H 3.738394 -3.908950 0.923939 0
M  V30 59 H 2.822302 -3.047794 3.007093 0
M  V30 60 H -0.541936 -1.697872 5.908135 0
M  V30 61 H -3.104659 -0.550750 4.384442 0
M  V30 62 H -3.856193 1.808763 3.895745 0
M  V30 63 H -2.128496 3.533277 3.916278 0
M  V30 64 H 0.229523 4.330389 4.769457 0
M  V30 65 H 1.340749 3.019012 5.159249 0
M  V30 66 H 2.799272 2.189030 2.987830 0
M  V30 67 H 1.178646 1.555507 2.609415 0
M  V30 68 H 1.209854 2.622262 0.411296 0
M  V30 69 H 2.774921 1.864298 0.703341 0
M  V30 70 H 2.823895 4.239575 -0.246646 0
M  V30 71 H 4.497901 2.957333 0.954774 0
M  V30 72 H 1.909594 5.950169 0.929106 0
M  V30 73 H 2.988314 5.559334 2.282339 0
M  V30 74 H 0.100069 4.745408 1.800254 0
M  V30 75 H 0.856213 5.585556 3.156424 0
M  V30 76 H 0.919420 0.781274 4.852464 0
M  V30 END ATOM
M  V30 BEGIN BOND
M  V30 1 2 1 2
M  V30 2 1 2 3
M  V30 3 1 3 4
M  V30 4 2 4 5
M  V30 5 1 5 6
M  V30 6 2 6 7
M  V30 7 1 7 8
M  V30 8 1 8 9
M  V30 9 1 9 10
M  V30 10 1 10 11
M  V30 11 2 11 12
M  V30 12 1 12 13
M  V30 13 2 13 14
M  V30 14 1 14 15
M  V30 15 1 15 16
M  V30 16 1 16 17
M  V30 17 1 17 18
M  V30 18 2 18 19
M  V30 19 1 19 20
M  V30 20 2 20 21
M  V30 21 1 21 22
M  V30 22 2 22 23
M  V30 23 2 17 24
M  V30 24 1 24 25
M  V30 25 1 24 26
M  V30 26 1 7 27
M  V30 27 2 27 28
M  V30 28 1 2 29
M  V30 29 1 29 30
M  V30 30 2 30 31
M  V30 31 1 31 32
M  V30 32 2 32 33
M  V30 33 1 33 34
M  V30 34 1 34 35
M  V30 35 1 35 36
M  V30 36 1 36 37
M  V30 37 1 37 38
M  V30 38 1 38 39
M  V30 39 1 39 40
M  V30 40 1 39 41
M  V30 41 1 41 42
M  V30 42 2 34 43
M  V30 43 1 28 4
M  V30 44 1 43 30
M  V30 45 1 26 11
M  V30 46 1 42 36
M  V30 47 2 26 15
M  V30 48 1 23 18
M  V30 49 1 3 44
M  V30 50 1 5 45
M  V30 51 1 6 46
M  V30 52 1 8 47
M  V30 53 1 8 48
M  V30 54 1 9 49
M  V30 55 1 9 50
M  V30 56 1 10 51
M  V30 57 1 13 52
M  V30 58 1 19 53
M  V30 59 1 20 54
M  V30 60 1 21 55
M  V30 61 1 22 56
M  V30 62 1 23 57
M  V30 63 1 27 58
M  V30 64 1 28 59
M  V30 65 1 29 60
M  V30 66 1 31 61
M  V30 67 1 32 62
M  V30 68 1 33 63
M  V30 69 1 35 64
M  V30 70 1 35 65
M  V30 71 1 37 66
M  V30 72 1 37 67
M  V30 73 1 38 68
M  V30 74 1 38 69
M  V30 75 1 39 70
M  V30 76 1 40 71
M  V30 77 1 41 72
M  V30 78 1 41 73
M  V30 79 1 42 74
M  V30 80 1 42 75
M  V30 81 1 43 76
M  V30 END BOND
M  V30 END CTAB
M  END
>  <Dataset>  (5) 
ChEMBL_Kinases

>  <Ligand_Instance>  (5) 
nan

>  <PDB_ID>  (5) 
nan

>  <Standardized_SMILES>  (5) 
O=C(Nc1ccc(CCNc2ncnc3oc(-c4ccccc4)c(Cl)c23)cc1)Nc1cccc(CN2CCC(O)CC2)c1

>  <Name>  (5) 
nan

>  <Pocket>  (5) 
nan

>  <ATP_Site>  (5) 
nan

>  <Peripheral>  (5) 
nan

>  <Num_H_Atoms_ProtBoundConf>  (5) 
nan

>  <Num_Resolved_Atoms>  (5) 
nan

>  <Num_Not_Resolved_Atoms>  (5) 
nan

$$$$
CHEMBL3759388
     RDKit          3D

  0  0  0  0  0  0  0  0  0  0999 V3000
M  V30 BEGIN CTAB
M  V30 COUNTS 53 56 0 0 0
M  V30 BEGIN ATOM
M  V30 1 C 9.076396 -0.851017 5.049803 0
M  V30 2 O 8.478978 0.255003 4.373788 0
M  V30 3 C 7.322567 0.097688 3.648157 0
M  V30 4 C 6.790349 1.223264 3.013737 0
M  V30 5 C 5.621781 1.067693 2.279419 0
M  V30 6 C 4.955628 -0.118149 2.135838 0
M  V30 7 C 3.722991 -0.253960 1.364478 0
M  V30 8 O 3.143842 -1.361940 1.235935 0
M  V30 9 N 3.117814 0.836114 0.727146 0
M  V30 10 C 1.856364 0.559508 -0.030927 0
M  V30 11 N 1.198015 0.302779 -0.894341 0
M  V30 12 C -0.090331 0.170114 -1.016355 0
M  V30 13 C -0.812870 0.369651 0.074351 0
M  V30 14 C -2.273685 0.349807 0.453126 0
M  V30 15 C -2.555107 0.669976 1.783678 0
M  V30 16 C -3.852993 0.690890 2.249226 0
M  V30 17 C -4.895816 0.393679 1.399612 0
M  V30 18 C -6.272565 0.400257 1.834618 0
M  V30 19 O -6.514274 0.684419 3.026514 0
M  V30 20 O -7.288734 0.098172 0.944409 0
M  V30 21 C -4.556030 0.086499 0.102893 0
M  V30 22 C -3.291854 0.044331 -0.433741 0
M  V30 23 O -2.844741 -0.238636 -1.665896 0
M  V30 24 C -3.403454 -0.592731 -2.862150 0
M  V30 25 C -4.170814 -1.859431 -2.868077 0
M  V30 26 C -5.510482 -2.075573 -2.704546 0
M  V30 27 C -6.055160 -3.339985 -2.726609 0
M  V30 28 C -5.289496 -4.460941 -2.914402 0
M  V30 29 C -3.933000 -4.303725 -3.085226 0
M  V30 30 Cl -2.920087 -5.706452 -3.328079 0
M  V30 31 C -3.428709 -3.014240 -3.055442 0
M  V30 32 S 0.442481 0.749877 1.256167 0
M  V30 33 C 5.481262 -1.244929 2.765862 0
M  V30 34 C 6.639904 -1.106856 3.497987 0
M  V30 35 H 10.058533 -0.573411 5.449775 0
M  V30 36 H 8.399572 -1.212455 5.878965 0
M  V30 37 H 9.196937 -1.713501 4.372911 0
M  V30 38 H 7.293045 2.166860 3.109179 0
M  V30 39 H 5.265481 1.962479 1.817125 0
M  V30 40 H 3.512226 1.782374 0.769732 0
M  V30 41 H -0.570213 -0.088626 -1.950453 0
M  V30 42 H -1.832135 0.919894 2.548746 0
M  V30 43 H -4.116015 0.932371 3.269357 0
M  V30 44 H -8.274493 0.091483 1.210457 0
M  V30 45 H -5.353838 -0.145124 -0.582105 0
M  V30 46 H -4.090444 0.189310 -3.293376 0
M  V30 47 H -2.575534 -0.705768 -3.628864 0
M  V30 48 H -6.105629 -1.174876 -2.564577 0
M  V30 49 H -7.129955 -3.439619 -2.588500 0
M  V30 50 H -5.795588 -5.414976 -2.917536 0
M  V30 51 H -2.338133 -2.964979 -3.198815 0
M  V30 52 H 5.015373 -2.228081 2.703684 0
M  V30 53 H 7.138708 -1.918495 4.030945 0
M  V30 END ATOM
M  V30 BEGIN BOND
M  V30 1 1 1 2
M  V30 2 1 2 3
M  V30 3 2 3 4
M  V30 4 1 4 5
M  V30 5 2 5 6
M  V30 6 1 6 7
M  V30 7 2 7 8
M  V30 8 1 7 9
M  V30 9 1 9 10
M  V30 10 2 10 11
M  V30 11 1 11 12
M  V30 12 2 12 13
M  V30 13 1 13 14
M  V30 14 2 14 15
M  V30 15 1 15 16
M  V30 16 2 16 17
M  V30 17 1 17 18
M  V30 18 2 18 19
M  V30 19 1 18 20
M  V30 20 1 17 21
M  V30 21 2 21 22
M  V30 22 1 22 23
M  V30 23 1 23 24
M  V30 24 1 24 25
M  V30 25 2 25 26
M  V30 26 1 26 27
M  V30 27 2 27 28
M  V30 28 1 28 29
M  V30 29 1 29 30
M  V30 30 2 29 31
M  V30 31 1 13 32
M  V30 32 1 6 33
M  V30 33 2 33 34
M  V30 34 1 34 3
M  V30 35 1 32 10
M  V30 36 1 22 14
M  V30 37 1 31 25
M  V30 38 1 1 35
M  V30 39 1 1 36
M  V30 40 1 1 37
M  V30 41 1 4 38
M  V30 42 1 5 39
M  V30 43 1 9 40
M  V30 44 1 12 41
M  V30 45 1 15 42
M  V30 46 1 16 43
M  V30 47 1 20 44
M  V30 48 1 21 45
M  V30 49 1 24 46
M  V30 50 1 24 47
M  V30 51 1 26 48
M  V30 52 1 27 49
M  V30 53 1 28 50
M  V30 54 1 31 51
M  V30 55 1 33 52
M  V30 56 1 34 53
M  V30 END BOND
M  V30 END CTAB
M  END
>  <Dataset>  (6) 
ChEMBL_Kinases

>  <Ligand_Instance>  (6) 
nan

>  <PDB_ID>  (6) 
nan

>  <Standardized_SMILES>  (6) 
COc1ccc(C(=O)Nc2ncc(-c3ccc(C(=O)O)cc3OCc3cccc(Cl)c3)s2)cc1

>  <Name>  (6) 
nan

>  <Pocket>  (6) 
nan

>  <ATP_Site>  (6) 
nan

>  <Peripheral>  (6) 
nan

>  <Num_H_Atoms_ProtBoundConf>  (6) 
nan

>  <Num_Resolved_Atoms>  (6) 
nan

>  <Num_Not_Resolved_Atoms>  (6) 
nan

$$$$
CHEMBL4163879
     RDKit          3D

  0  0  0  0  0  0  0  0  0  0999 V3000
M  V30 BEGIN CTAB
M  V30 COUNTS 72 76 0 0 0
M  V30 BEGIN ATOM
M  V30 1 C 6.996899 -4.300785 0.287744 0
M  V30 2 N 7.052115 -4.497724 -1.130333 0
M  V30 3 C 5.901196 -5.226721 -1.628202 0
M  V30 4 C 7.310594 -3.295548 -1.871200 0
M  V30 5 C 6.107881 -2.412463 -1.725681 0
M  V30 6 C 5.347909 -1.968747 -2.688715 0
M  V30 7 C 4.206765 -1.116381 -2.418491 0
M  V30 8 O 4.054926 -0.871314 -1.187158 0
M  V30 9 N 3.310217 -0.571851 -3.339185 0
M  V30 10 C 2.201627 0.255323 -3.102848 0
M  V30 11 C 1.442948 0.651075 -4.179511 0
M  V30 12 C 0.334919 1.458332 -4.088325 0
M  V30 13 C -0.083823 1.927475 -2.866327 0
M  V30 14 C -1.221408 2.784705 -2.481703 0
M  V30 15 O -0.931048 3.902726 -2.962300 0
M  V30 16 N -2.217328 2.064090 -1.721868 0
M  V30 17 C -2.121588 0.634312 -1.383061 0
M  V30 18 C -1.985315 0.458767 0.116094 0
M  V30 19 C -2.520132 1.723259 0.761916 0
M  V30 20 C -3.804395 2.047467 0.031530 0 CFG=1
M  V30 21 N -4.753442 2.752848 0.860828 0
M  V30 22 C -5.213099 2.025298 2.020849 0
M  V30 23 N -6.099429 2.590070 2.863351 0
M  V30 24 C -6.525869 1.910200 3.922005 0
M  V30 25 C -6.119959 0.632700 4.235450 0
M  V30 26 Cl -6.672602 -0.281416 5.630336 0
M  V30 27 C -5.199286 0.049405 3.358112 0
M  V30 28 C -4.701773 -1.313120 3.605377 0
M  V30 29 C -5.463754 -2.457748 3.741553 0
M  V30 30 N -4.660016 -3.539032 3.945269 0
M  V30 31 C -3.383379 -3.049262 3.933867 0
M  V30 32 C -2.178528 -3.739581 4.099453 0
M  V30 33 C -0.971857 -3.036744 4.054335 0
M  V30 34 C -0.940829 -1.654192 3.846642 0
M  V30 35 C -2.175358 -1.048205 3.691935 0
M  V30 36 C -3.376482 -1.685601 3.727013 0
M  V30 37 N -4.817243 0.798051 2.314183 0
M  V30 38 C -3.414819 2.770618 -1.225263 0
M  V30 39 C 0.652152 1.556614 -1.734400 0
M  V30 40 C 1.759623 0.739848 -1.895571 0
M  V30 41 H 7.192343 -5.252790 0.823212 0
M  V30 42 H 7.804426 -3.597023 0.578334 0
M  V30 43 H 6.042255 -3.825064 0.543656 0
M  V30 44 H 4.996534 -4.668358 -1.318144 0
M  V30 45 H 5.901832 -6.279206 -1.296904 0
M  V30 46 H 5.942447 -5.195040 -2.727189 0
M  V30 47 H 8.138858 -2.756096 -1.341295 0
M  V30 48 H 7.568583 -3.511590 -2.912793 0
M  V30 49 H 5.921902 -2.165333 -0.667344 0
M  V30 50 H 5.727051 -2.344574 -3.648818 0
M  V30 51 H 3.564893 -0.863068 -4.305820 0
M  V30 52 H 1.640798 0.365329 -5.215835 0
M  V30 53 H -0.294065 1.801590 -4.873885 0
M  V30 54 H -3.095321 0.196415 -1.662985 0
M  V30 55 H -1.346686 0.129148 -1.955598 0
M  V30 56 H -2.572969 -0.424860 0.469818 0
M  V30 57 H -0.949284 0.284456 0.427420 0
M  V30 58 H -1.737186 2.503481 0.572431 0
M  V30 59 H -2.633588 1.576731 1.830148 0
M  V30 60 H -4.286574 1.067891 -0.205022 0
M  V30 61 H -5.126181 3.710143 0.706493 0
M  V30 62 H -7.250589 2.336117 4.633667 0
M  V30 63 H -6.547201 -2.518324 3.696059 0
M  V30 64 H -4.915945 -4.546811 4.085768 0
M  V30 65 H -2.108839 -4.807029 4.263978 0
M  V30 66 H -0.029876 -3.580528 4.183871 0
M  V30 67 H 0.001055 -1.115716 3.811710 0
M  V30 68 H -2.158207 0.012268 3.537888 0
M  V30 69 H -4.249997 2.730104 -1.926722 0
M  V30 70 H -3.102220 3.805125 -0.936167 0
M  V30 71 H 0.412830 1.872167 -0.711897 0
M  V30 72 H 2.304184 0.475564 -1.005100 0
M  V30 END ATOM
M  V30 BEGIN BOND
M  V30 1 1 1 2
M  V30 2 1 2 3
M  V30 3 1 2 4
M  V30 4 1 4 5
M  V30 5 2 5 6
M  V30 6 1 6 7
M  V30 7 2 7 8
M  V30 8 1 7 9
M  V30 9 1 9 10
M  V30 10 2 10 11
M  V30 11 1 11 12
M  V30 12 2 12 13
M  V30 13 1 13 14
M  V30 14 2 14 15
M  V30 15 1 14 16
M  V30 16 1 16 17
M  V30 17 1 17 18
M  V30 18 1 18 19
M  V30 19 1 19 20
M  V30 20 1 20 21
M  V30 21 1 21 22
M  V30 22 2 22 23
M  V30 23 1 23 24
M  V30 24 2 24 25
M  V30 25 1 25 26
M  V30 26 1 25 27
M  V30 27 1 27 28
M  V30 28 2 28 29
M  V30 29 1 29 30
M  V30 30 1 30 31
M  V30 31 2 31 32
M  V30 32 1 32 33
M  V30 33 2 33 34
M  V30 34 1 34 35
M  V30 35 2 35 36
M  V30 36 2 27 37
M  V30 37 1 20 38
M  V30 38 1 13 39
M  V30 39 2 39 40
M  V30 40 1 40 10
M  V30 41 1 38 16
M  V30 42 1 37 22
M  V30 43 1 36 28
M  V30 44 1 36 31
M  V30 45 1 1 41
M  V30 46 1 1 42
M  V30 47 1 1 43
M  V30 48 1 3 44
M  V30 49 1 3 45
M  V30 50 1 3 46
M  V30 51 1 4 47
M  V30 52 1 4 48
M  V30 53 1 5 49
M  V30 54 1 6 50
M  V30 55 1 9 51
M  V30 56 1 11 52
M  V30 57 1 12 53
M  V30 58 1 17 54
M  V30 59 1 17 55
M  V30 60 1 18 56
M  V30 61 1 18 57
M  V30 62 1 19 58
M  V30 63 1 19 59
M  V30 64 1 20 60 CFG=3
M  V30 65 1 21 61
M  V30 66 1 24 62
M  V30 67 1 29 63
M  V30 68 1 30 64
M  V30 69 1 32 65
M  V30 70 1 33 66
M  V30 71 1 34 67
M  V30 72 1 35 68
M  V30 73 1 38 69
M  V30 74 1 38 70
M  V30 75 1 39 71
M  V30 76 1 40 72
M  V30 END BOND
M  V30 END CTAB
M  END
>  <Dataset>  (7) 
ChEMBL_Kinases

>  <Ligand_Instance>  (7) 
nan

>  <PDB_ID>  (7) 
nan

>  <Standardized_SMILES>  (7) 
CN(C)C/C=C/C(=O)Nc1ccc(C(=O)N2CCC[C@@H](Nc3ncc(Cl)c(-c4c[nH]c5ccccc45)n3)C2)cc1

>  <Name>  (7) 
nan

>  <Pocket>  (7) 
nan

>  <ATP_Site>  (7) 
nan

>  <Peripheral>  (7) 
nan

>  <Num_H_Atoms_ProtBoundConf>  (7) 
nan

>  <Num_Resolved_Atoms>  (7) 
nan

>  <Num_Not_Resolved_Atoms>  (7) 
nan

$$$$
CHEMBL3759512
     RDKit          3D

  0  0  0  0  0  0  0  0  0  0999 V3000
M  V30 BEGIN CTAB
M  V30 COUNTS 53 56 0 0 0
M  V30 BEGIN ATOM
M  V30 1 C 8.934107 -1.818349 2.444307 0
M  V30 2 O 8.498681 -0.879941 1.448567 0
M  V30 3 C 7.173263 -0.481490 1.445947 0
M  V30 4 C 6.661198 0.415656 0.529443 0
M  V30 5 C 5.342664 0.806610 0.533499 0
M  V30 6 C 4.481275 0.312791 1.458765 0
M  V30 7 C 3.042224 0.597639 1.635964 0
M  V30 8 O 2.282416 0.116663 2.515464 0
M  V30 9 N 2.497734 1.499018 0.713114 0
M  V30 10 C 1.074934 1.746057 0.926726 0
M  V30 11 N 0.356653 2.493611 1.534724 0
M  V30 12 C -0.952243 2.474508 1.534586 0
M  V30 13 C -1.555250 1.533098 0.786685 0
M  V30 14 C -2.993320 1.186291 0.526658 0
M  V30 15 C -3.855255 2.024693 1.198508 0
M  V30 16 C -5.202763 1.794397 1.028686 0
M  V30 17 C -5.599459 0.759858 0.212961 0
M  V30 18 C -7.016238 0.488998 0.012134 0
M  V30 19 O -7.856430 1.216181 0.596480 0
M  V30 20 O -7.472397 -0.539250 -0.798091 0
M  V30 21 C -4.689959 -0.044523 -0.432734 0
M  V30 22 C -3.326276 0.130170 -0.306403 0
M  V30 23 O -2.245492 -0.509437 -0.823502 0
M  V30 24 C -2.260520 -1.601644 -1.678261 0
M  V30 25 C -2.873927 -2.831927 -1.181553 0
M  V30 26 C -4.062429 -3.486069 -1.455844 0
M  V30 27 C -4.437485 -4.670919 -0.866013 0
M  V30 28 C -3.620732 -5.286253 0.058390 0
M  V30 29 C -2.427022 -4.669608 0.361439 0
M  V30 30 C -2.067829 -3.481729 -0.240024 0
M  V30 31 Cl -0.499040 -2.887967 0.304689 0
M  V30 32 S -0.109910 0.674014 0.080822 0
M  V30 33 C 4.962890 -0.594772 2.399385 0
M  V30 34 C 6.279732 -0.981654 2.391266 0
M  V30 35 H 10.012421 -2.005333 2.301510 0
M  V30 36 H 8.805099 -1.424946 3.474209 0
M  V30 37 H 8.354319 -2.772800 2.332170 0
M  V30 38 H 7.301828 0.841412 -0.230469 0
M  V30 39 H 4.897328 1.498801 -0.155128 0
M  V30 40 H 2.924570 2.002253 -0.069044 0
M  V30 41 H -1.568173 3.170421 2.100218 0
M  V30 42 H -3.559650 2.826908 1.830766 0
M  V30 43 H -5.908047 2.433006 1.541301 0
M  V30 44 H -8.370927 -0.983571 -0.680184 0
M  V30 45 H -4.972180 -0.840711 -1.070473 0
M  V30 46 H -2.720482 -1.340682 -2.672341 0
M  V30 47 H -1.185957 -1.838288 -1.941745 0
M  V30 48 H -4.635910 -2.915097 -2.204047 0
M  V30 49 H -5.407399 -5.007655 -1.225648 0
M  V30 50 H -4.051663 -6.203795 0.429254 0
M  V30 51 H -1.833708 -5.202169 1.092414 0
M  V30 52 H 4.363075 -1.062359 3.196000 0
M  V30 53 H 6.677725 -1.694100 3.122059 0
M  V30 END ATOM
M  V30 BEGIN BOND
M  V30 1 1 1 2
M  V30 2 1 2 3
M  V30 3 2 3 4
M  V30 4 1 4 5
M  V30 5 2 5 6
M  V30 6 1 6 7
M  V30 7 2 7 8
M  V30 8 1 7 9
M  V30 9 1 9 10
M  V30 10 2 10 11
M  V30 11 1 11 12
M  V30 12 2 12 13
M  V30 13 1 13 14
M  V30 14 2 14 15
M  V30 15 1 15 16
M  V30 16 2 16 17
M  V30 17 1 17 18
M  V30 18 2 18 19
M  V30 19 1 18 20
M  V30 20 1 17 21
M  V30 21 2 21 22
M  V30 22 1 22 23
M  V30 23 1 23 24
M  V30 24 1 24 25
M  V30 25 2 25 26
M  V30 26 1 26 27
M  V30 27 2 27 28
M  V30 28 1 28 29
M  V30 29 2 29 30
M  V30 30 1 30 31
M  V30 31 1 13 32
M  V30 32 1 6 33
M  V30 33 2 33 34
M  V30 34 1 34 3
M  V30 35 1 32 10
M  V30 36 1 22 14
M  V30 37 1 30 25
M  V30 38 1 1 35
M  V30 39 1 1 36
M  V30 40 1 1 37
M  V30 41 1 4 38
M  V30 42 1 5 39
M  V30 43 1 9 40
M  V30 44 1 12 41
M  V30 45 1 15 42
M  V30 46 1 16 43
M  V30 47 1 20 44
M  V30 48 1 21 45
M  V30 49 1 24 46
M  V30 50 1 24 47
M  V30 51 1 26 48
M  V30 52 1 27 49
M  V30 53 1 28 50
M  V30 54 1 29 51
M  V30 55 1 33 52
M  V30 56 1 34 53
M  V30 END BOND
M  V30 END CTAB
M  END
>  <Dataset>  (8) 
ChEMBL_Kinases

>  <Ligand_Instance>  (8) 
nan

>  <PDB_ID>  (8) 
nan

>  <Standardized_SMILES>  (8) 
COc1ccc(C(=O)Nc2ncc(-c3ccc(C(=O)O)cc3OCc3ccccc3Cl)s2)cc1

>  <Name>  (8) 
nan

>  <Pocket>  (8) 
nan

>  <ATP_Site>  (8) 
nan

>  <Peripheral>  (8) 
nan

>  <Num_H_Atoms_ProtBoundConf>  (8) 
nan

>  <Num_Resolved_Atoms>  (8) 
nan

>  <Num_Not_Resolved_Atoms>  (8) 
nan

$$$$
CHEMBL3759755
     RDKit          3D

  0  0  0  0  0  0  0  0  0  0999 V3000
M  V30 BEGIN CTAB
M  V30 COUNTS 38 40 0 0 0
M  V30 BEGIN ATOM
M  V30 1 C 5.109001 -7.508536 0.458723 0
M  V30 2 O 5.012895 -6.435084 1.353487 0
M  V30 3 C 4.166639 -5.367217 1.127146 0
M  V30 4 C 3.301799 -5.116907 0.082345 0
M  V30 5 C 2.548094 -3.961809 0.078321 0
M  V30 6 C 2.601549 -3.027962 1.061431 0
M  V30 7 C 1.797718 -1.811544 1.043398 0
M  V30 8 O 1.881975 -0.966338 1.984978 0
M  V30 9 N 0.912905 -1.544110 -0.011612 0
M  V30 10 C 0.111414 -0.267975 0.031572 0
M  V30 11 N 0.425985 0.717774 -0.395913 0
M  V30 12 C -0.122889 1.907825 -0.453644 0
M  V30 13 C -1.317946 1.978030 0.116854 0
M  V30 14 C -2.393490 3.005633 0.364556 0
M  V30 15 C -3.530794 2.639588 1.028993 0
M  V30 16 C -4.482139 3.646017 1.220923 0
M  V30 17 C -4.177573 4.897428 0.723241 0
M  V30 18 C -5.174701 5.970534 0.919561 0
M  V30 19 O -5.010808 7.153577 0.510225 0
M  V30 20 O -6.378754 5.753290 1.576367 0
M  V30 21 C -3.025816 5.257864 0.053211 0
M  V30 22 N -2.131882 4.237169 -0.106343 0
M  V30 23 S -1.573293 0.304902 0.704989 0
M  V30 24 C 3.460039 -3.256252 2.118013 0
M  V30 25 C 4.225092 -4.406545 2.143558 0
M  V30 26 H 4.159116 -7.652085 -0.088391 0
M  V30 27 H 5.928193 -7.287684 -0.274590 0
M  V30 28 H 5.338480 -8.464990 0.987307 0
M  V30 29 H 3.307303 -5.894212 -0.662063 0
M  V30 30 H 1.906421 -3.851489 -0.769990 0
M  V30 31 H 0.772281 -2.159248 -0.814406 0
M  V30 32 H 0.237613 2.841674 -0.889555 0
M  V30 33 H -3.718512 1.646540 1.397089 0
M  V30 34 H -5.386816 3.426175 1.729753 0
M  V30 35 H -6.804193 6.511396 2.114582 0
M  V30 36 H -2.868415 6.260964 -0.302825 0
M  V30 37 H 3.504473 -2.511542 2.904281 0
M  V30 38 H 4.863755 -4.485986 3.016607 0
M  V30 END ATOM
M  V30 BEGIN BOND
M  V30 1 1 1 2
M  V30 2 1 2 3
M  V30 3 2 3 4
M  V30 4 1 4 5
M  V30 5 2 5 6
M  V30 6 1 6 7
M  V30 7 2 7 8
M  V30 8 1 7 9
M  V30 9 1 9 10
M  V30 10 2 10 11
M  V30 11 1 11 12
M  V30 12 2 12 13
M  V30 13 1 13 14
M  V30 14 2 14 15
M  V30 15 1 15 16
M  V30 16 2 16 17
M  V30 17 1 17 18
M  V30 18 2 18 19
M  V30 19 1 18 20
M  V30 20 1 17 21
M  V30 21 2 21 22
M  V30 22 1 13 23
M  V30 23 1 6 24
M  V30 24 2 24 25
M  V30 25 1 25 3
M  V30 26 1 23 10
M  V30 27 1 22 14
M  V30 28 1 1 26
M  V30 29 1 1 27
M  V30 30 1 1 28
M  V30 31 1 4 29
M  V30 32 1 5 30
M  V30 33 1 9 31
M  V30 34 1 12 32
M  V30 35 1 15 33
M  V30 36 1 16 34
M  V30 37 1 20 35
M  V30 38 1 21 36
M  V30 39 1 24 37
M  V30 40 1 25 38
M  V30 END BOND
M  V30 END CTAB
M  END
>  <Dataset>  (9) 
ChEMBL_Kinases

>  <Ligand_Instance>  (9) 
nan

>  <PDB_ID>  (9) 
nan

>  <Standardized_SMILES>  (9) 
COc1ccc(C(=O)Nc2ncc(-c3ccc(C(=O)O)cn3)s2)cc1

>  <Name>  (9) 
nan

>  <Pocket>  (9) 
nan

>  <ATP_Site>  (9) 
nan

>  <Peripheral>  (9) 
nan

>  <Num_H_Atoms_ProtBoundConf>  (9) 
nan

>  <Num_Resolved_Atoms>  (9) 
nan

>  <Num_Not_Resolved_Atoms>  (9) 
nan

$$$$
CHEMBL375981
     RDKit          3D

  0  0  0  0  0  0  0  0  0  0999 V3000
M  V30 BEGIN CTAB
M  V30 COUNTS 52 56 0 0 0
M  V30 BEGIN ATOM
M  V30 1 C 1.436463 -7.006276 6.935285 0
M  V30 2 N 1.337219 -6.028793 5.866355 0
M  V30 3 C 1.594644 -6.379935 4.515564 0
M  V30 4 O 1.913588 -7.594557 4.315241 0
M  V30 5 C 1.497187 -5.403341 3.432319 0
M  V30 6 C 1.158368 -4.091948 3.600171 0
M  V30 7 C 1.086922 -3.229638 2.528561 0
M  V30 8 C 1.348689 -3.633363 1.247258 0
M  V30 9 C 1.339201 -2.962044 0.050858 0
M  V30 10 C 1.049460 -1.585974 -0.292377 0
M  V30 11 C 0.688495 -0.451172 0.381760 0
M  V30 12 C 0.534105 0.629521 -0.463189 0
M  V30 13 C 0.184605 1.947061 -0.229791 0
M  V30 14 C 0.098274 2.849936 -1.273685 0
M  V30 15 C -0.271118 4.248392 -1.037003 0
M  V30 16 N -1.630619 4.588515 -1.080609 0
M  V30 17 C -2.508570 3.961255 -0.170809 0
M  V30 18 C -3.243095 2.755104 -0.683910 0
M  V30 19 O -3.299181 2.679019 -2.052774 0
M  V30 20 C -3.396175 3.916223 -2.674842 0
M  V30 21 C -2.241286 4.822365 -2.337854 0
M  V30 22 C 0.380695 2.355166 -2.549195 0
M  V30 23 C 0.727564 1.035650 -2.758046 0
M  V30 24 C 0.815227 0.129365 -1.718364 0
M  V30 25 N 1.112387 -1.173179 -1.572022 0
M  V30 26 N 1.681189 -3.913712 -0.822283 0
M  V30 27 N 1.888253 -5.079076 -0.235703 0
M  V30 28 C 1.691083 -4.964671 1.089323 0
M  V30 29 C 1.766530 -5.839371 2.153071 0
M  V30 30 H 1.744814 -6.529250 7.865834 0
M  V30 31 H 0.421981 -7.436892 7.117073 0
M  V30 32 H 2.136418 -7.808819 6.620615 0
M  V30 33 H 1.070322 -5.065117 6.134162 0
M  V30 34 H 0.943532 -3.730920 4.594630 0
M  V30 35 H 0.819060 -2.224403 2.720969 0
M  V30 36 H 0.539556 -0.384418 1.424476 0
M  V30 37 H -0.019724 2.258495 0.781262 0
M  V30 38 H 0.347226 4.869810 -1.712221 0
M  V30 39 H 0.096494 4.486628 0.005020 0
M  V30 40 H -2.066965 3.787845 0.839914 0
M  V30 41 H -3.319979 4.719292 0.048296 0
M  V30 42 H -2.711021 1.851548 -0.321205 0
M  V30 43 H -4.268124 2.664531 -0.220726 0
M  V30 44 H -3.373093 3.738529 -3.769518 0
M  V30 45 H -4.393953 4.390663 -2.443612 0
M  V30 46 H -2.655563 5.865144 -2.316214 0
M  V30 47 H -1.498694 4.849912 -3.183989 0
M  V30 48 H 0.324671 3.035715 -3.407688 0
M  V30 49 H 0.938322 0.683770 -3.743451 0
M  V30 50 H 1.348015 -1.685147 -2.447473 0
M  V30 51 H 2.161126 -5.933398 -0.751983 0
M  V30 52 H 2.039815 -6.880584 1.986209 0
M  V30 END ATOM
M  V30 BEGIN BOND
M  V30 1 1 1 2
M  V30 2 1 2 3
M  V30 3 2 3 4
M  V30 4 1 3 5
M  V30 5 2 5 6
M  V30 6 1 6 7
M  V30 7 2 7 8
M  V30 8 1 8 9
M  V30 9 1 9 10
M  V30 10 2 10 11
M  V30 11 1 11 12
M  V30 12 2 12 13
M  V30 13 1 13 14
M  V30 14 1 14 15
M  V30 15 1 15 16
M  V30 16 1 16 17
M  V30 17 1 17 18
M  V30 18 1 18 19
M  V30 19 1 19 20
M  V30 20 1 20 21
M  V30 21 2 14 22
M  V30 22 1 22 23
M  V30 23 2 23 24
M  V30 24 1 24 25
M  V30 25 2 9 26
M  V30 26 1 26 27
M  V30 27 1 27 28
M  V30 28 2 28 29
M  V30 29 1 29 5
M  V30 30 1 28 8
M  V30 31 1 25 10
M  V30 32 1 24 12
M  V30 33 1 21 16
M  V30 34 1 1 30
M  V30 35 1 1 31
M  V30 36 1 1 32
M  V30 37 1 2 33
M  V30 38 1 6 34
M  V30 39 1 7 35
M  V30 40 1 11 36
M  V30 41 1 13 37
M  V30 42 1 15 38
M  V30 43 1 15 39
M  V30 44 1 17 40
M  V30 45 1 17 41
M  V30 46 1 18 42
M  V30 47 1 18 43
M  V30 48 1 20 44
M  V30 49 1 20 45
M  V30 50 1 21 46
M  V30 51 1 21 47
M  V30 52 1 22 48
M  V30 53 1 23 49
M  V30 54 1 25 50
M  V30 55 1 27 51
M  V30 56 1 29 52
M  V30 END BOND
M  V30 END CTAB
M  END
>  <Dataset>  (10) 
ChEMBL_Kinases

>  <Ligand_Instance>  (10) 
nan

>  <PDB_ID>  (10) 
nan

>  <Standardized_SMILES>  (10) 
CNC(=O)c1ccc2c(-c3cc4cc(CN5CCOCC5)ccc4[nH]3)n[nH]c2c1

>  <Name>  (10) 
nan

>  <Pocket>  (10) 
nan

>  <ATP_Site>  (10) 
nan

>  <Peripheral>  (10) 
nan

>  <Num_H_Atoms_ProtBoundConf>  (10) 
nan

>  <Num_Resolved_Atoms>  (10) 
nan

>  <Num_Not_Resolved_Atoms>  (10) 
nan

$$$$
CHEMBL4163809
     RDKit          3D

  0  0  0  0  0  0  0  0  0  0999 V3000
M  V30 BEGIN CTAB
M  V30 COUNTS 56 59 0 0 0
M  V30 BEGIN ATOM
M  V30 1 C -2.992817 -4.219474 1.780227 0
M  V30 2 N -1.607604 -3.783779 1.840288 0
M  V30 3 C -1.113733 -2.692878 2.466415 0
M  V30 4 C 0.278546 -2.623345 2.292212 0
M  V30 5 C 0.992182 -1.519054 2.910129 0
M  V30 6 C 1.896072 -0.723872 2.387052 0
M  V30 7 C 2.411011 -0.763480 1.019874 0
M  V30 8 C 2.807193 0.666462 0.779089 0
M  V30 9 C 4.209223 0.730274 0.150191 0
M  V30 10 O 5.140423 0.075018 0.957813 0
M  V30 11 C 1.900622 1.362840 -0.183276 0
M  V30 12 O 0.583078 1.520115 0.272597 0
M  V30 13 C -0.335567 2.159756 -0.552521 0
M  V30 14 O 0.247481 2.493953 -1.617531 0
M  V30 15 C -1.740593 2.376988 -0.181328 0
M  V30 16 C -2.488964 1.093547 0.073526 0
M  V30 17 C -3.847519 1.153468 -0.605168 0
M  V30 18 C -3.685244 1.135241 -2.105000 0
M  V30 19 C -2.669320 2.160328 -2.497616 0
M  V30 20 C -2.416381 3.106523 -1.332253 0
M  V30 21 O 2.954669 1.311362 2.021263 0
M  V30 22 C 2.608415 0.386749 2.994914 0
M  V30 23 O 2.867298 0.478943 4.248239 0
M  V30 24 C 0.551424 -3.736553 1.532199 0
M  V30 25 C 1.790407 -4.119626 1.102432 0
M  V30 26 C 1.880055 -5.273402 0.355081 0
M  V30 27 C 0.767177 -6.054771 0.024954 0
M  V30 28 C -0.468889 -5.603008 0.499294 0
M  V30 29 C -0.595769 -4.447474 1.253486 0
M  V30 30 H -3.575938 -3.560605 2.451628 0
M  V30 31 H -3.435143 -4.056341 0.762198 0
M  V30 32 H -3.137184 -5.258787 2.128532 0
M  V30 33 H -1.779972 -2.017205 3.009185 0
M  V30 34 H 0.760653 -1.302952 3.968626 0
M  V30 35 H 1.713961 -1.147576 0.266503 0
M  V30 36 H 3.366530 -1.339563 1.039251 0
M  V30 37 H 4.477652 1.805974 0.211188 0
M  V30 38 H 4.221780 0.437934 -0.898397 0
M  V30 39 H 6.022237 0.504646 0.831611 0
M  V30 40 H 2.381250 2.304942 -0.518016 0
M  V30 41 H 1.844734 0.711091 -1.080530 0
M  V30 42 H -1.877860 3.015551 0.719084 0
M  V30 43 H -1.984845 0.200759 -0.343203 0
M  V30 44 H -2.688771 0.905648 1.147860 0
M  V30 45 H -4.410967 0.214739 -0.344149 0
M  V30 46 H -4.451531 2.007582 -0.257915 0
M  V30 47 H -3.336314 0.130614 -2.389960 0
M  V30 48 H -4.654292 1.356196 -2.580276 0
M  V30 49 H -3.024220 2.779547 -3.337774 0
M  V30 50 H -1.699749 1.725549 -2.790708 0
M  V30 51 H -3.314851 3.651408 -1.043334 0
M  V30 52 H -1.682166 3.859880 -1.709394 0
M  V30 53 H 2.683308 -3.582514 1.322918 0
M  V30 54 H 2.800504 -5.666341 -0.035072 0
M  V30 55 H 0.849633 -6.963747 -0.567352 0
M  V30 56 H -1.367814 -6.173142 0.273758 0
M  V30 END ATOM
M  V30 BEGIN BOND
M  V30 1 1 1 2
M  V30 2 1 2 3
M  V30 3 2 3 4
M  V30 4 1 4 5
M  V30 5 2 5 6
M  V30 6 1 6 7
M  V30 7 1 7 8
M  V30 8 1 8 9
M  V30 9 1 9 10
M  V30 10 1 8 11
M  V30 11 1 11 12
M  V30 12 1 12 13
M  V30 13 2 13 14
M  V30 14 1 13 15
M  V30 15 1 15 16
M  V30 16 1 16 17
M  V30 17 1 17 18
M  V30 18 1 18 19
M  V30 19 1 19 20
M  V30 20 1 8 21
M  V30 21 1 21 22
M  V30 22 2 22 23
M  V30 23 1 4 24
M  V30 24 2 24 25
M  V30 25 1 25 26
M  V30 26 2 26 27
M  V30 27 1 27 28
M  V30 28 2 28 29
M  V30 29 1 29 2
M  V30 30 1 22 6
M  V30 31 1 29 24
M  V30 32 1 20 15
M  V30 33 1 1 30
M  V30 34 1 1 31
M  V30 35 1 1 32
M  V30 36 1 3 33
M  V30 37 1 5 34
M  V30 38 1 7 35
M  V30 39 1 7 36
M  V30 40 1 9 37
M  V30 41 1 9 38
M  V30 42 1 10 39
M  V30 43 1 11 40
M  V30 44 1 11 41
M  V30 45 1 15 42
M  V30 46 1 16 43
M  V30 47 1 16 44
M  V30 48 1 17 45
M  V30 49 1 17 46
M  V30 50 1 18 47
M  V30 51 1 18 48
M  V30 52 1 19 49
M  V30 53 1 19 50
M  V30 54 1 20 51
M  V30 55 1 20 52
M  V30 56 1 25 53
M  V30 57 1 26 54
M  V30 58 1 27 55
M  V30 59 1 28 56
M  V30 END BOND
M  V30 END CTAB
M  END
>  <Dataset>  (11) 
ChEMBL_Kinases

>  <Ligand_Instance>  (11) 
nan

>  <PDB_ID>  (11) 
nan

>  <Standardized_SMILES>  (11) 
Cn1cc(/C=C2\CC(CO)(COC(=O)C3CCCCC3)OC2=O)c2ccccc21

>  <Name>  (11) 
nan

>  <Pocket>  (11) 
nan

>  <ATP_Site>  (11) 
nan

>  <Peripheral>  (11) 
nan

>  <Num_H_Atoms_ProtBoundConf>  (11) 
nan

>  <Num_Resolved_Atoms>  (11) 
nan

>  <Num_Not_Resolved_Atoms>  (11) 
nan

$$$$
CHEMBL3341787
     RDKit          3D

  0  0  0  0  0  0  0  0  0  0999 V3000
M  V30 BEGIN CTAB
M  V30 COUNTS 57 60 0 0 0
M  V30 BEGIN ATOM
M  V30 1 C -2.551413 -4.714507 0.701326 0
M  V30 2 O -1.886177 -5.432218 -0.292763 0
M  V30 3 C -0.648929 -5.091159 -0.821090 0
M  V30 4 C -0.003806 -3.966055 -0.350326 0
M  V30 5 C 1.223924 -3.676697 -0.912848 0
M  V30 6 C 1.927173 -2.490772 -0.431402 0
M  V30 7 C 3.295604 -2.374436 -0.380377 0
M  V30 8 N 3.933314 -1.276956 0.065175 0
M  V30 9 C 3.228819 -0.192380 0.501575 0
M  V30 10 C 1.848716 -0.248270 0.474863 0
M  V30 11 C 1.139036 0.935706 0.952518 0
M  V30 12 C 1.656652 1.737505 1.949563 0
M  V30 13 C 0.933466 2.841577 2.351747 0
M  V30 14 C -0.282997 3.224341 1.837983 0
M  V30 15 N -1.004887 4.362285 2.274880 0
M  V30 16 C -0.611785 5.232179 3.362649 0
M  V30 17 C -1.717318 5.098134 4.414758 0
M  V30 18 N -2.969587 5.506782 3.837857 0
M  V30 19 C -3.330766 4.663823 2.723366 0
M  V30 20 C -2.240398 4.804652 1.681386 0
M  V30 21 C -0.760408 2.398100 0.848450 0
M  V30 22 C -0.080800 1.281590 0.406907 0
M  V30 23 C 1.192146 -1.384210 0.013756 0
M  V30 24 C 1.784627 -4.477299 -1.904473 0
M  V30 25 C 1.118588 -5.601777 -2.361351 0
M  V30 26 O 1.563226 -6.468521 -3.330572 0
M  V30 27 C 2.811150 -6.254303 -3.965646 0
M  V30 28 C -0.126954 -5.909043 -1.801309 0
M  V30 29 O -0.843681 -7.038745 -2.229559 0
M  V30 30 C -1.761260 -6.939954 -3.305924 0
M  V30 31 H -2.989187 -3.752487 0.360640 0
M  V30 32 H -3.441345 -5.334343 1.014957 0
M  V30 33 H -1.913511 -4.473950 1.581934 0
M  V30 34 H -0.475357 -3.371782 0.421247 0
M  V30 35 H 3.885737 -3.227791 -0.723473 0
M  V30 36 H 3.766198 0.679350 0.855570 0
M  V30 37 H 2.605918 1.471012 2.376160 0
M  V30 38 H 1.410702 3.409251 3.132108 0
M  V30 39 H -0.649864 6.280292 3.001434 0
M  V30 40 H 0.354199 4.981830 3.805180 0
M  V30 41 H -1.494077 5.619094 5.345485 0
M  V30 42 H -1.802393 3.998667 4.633390 0
M  V30 43 H -3.710694 5.358029 4.585873 0
M  V30 44 H -3.476011 3.647050 3.082102 0
M  V30 45 H -4.288486 5.078884 2.301557 0
M  V30 46 H -2.177309 5.917197 1.488467 0
M  V30 47 H -2.497526 4.367723 0.722646 0
M  V30 48 H -1.700871 2.560947 0.345507 0
M  V30 49 H -0.465481 0.634738 -0.375285 0
M  V30 50 H 0.111176 -1.398000 0.004989 0
M  V30 51 H 2.733706 -4.261075 -2.345438 0
M  V30 52 H 3.041783 -7.069746 -4.684544 0
M  V30 53 H 3.638758 -6.229466 -3.228944 0
M  V30 54 H 2.762846 -5.278800 -4.469339 0
M  V30 55 H -2.774920 -6.640537 -2.958293 0
M  V30 56 H -1.797691 -7.883446 -3.888264 0
M  V30 57 H -1.429561 -6.145763 -4.005691 0
M  V30 END ATOM
M  V30 BEGIN BOND
M  V30 1 1 1 2
M  V30 2 1 2 3
M  V30 3 2 3 4
M  V30 4 1 4 5
M  V30 5 1 5 6
M  V30 6 2 6 7
M  V30 7 1 7 8
M  V30 8 2 8 9
M  V30 9 1 9 10
M  V30 10 1 10 11
M  V30 11 2 11 12
M  V30 12 1 12 13
M  V30 13 2 13 14
M  V30 14 1 14 15
M  V30 15 1 15 16
M  V30 16 1 16 17
M  V30 17 1 17 18
M  V30 18 1 18 19
M  V30 19 1 19 20
M  V30 20 1 14 21
M  V30 21 2 21 22
M  V30 22 2 10 23
M  V30 23 2 5 24
M  V30 24 1 24 25
M  V30 25 1 25 26
M  V30 26 1 26 27
M  V30 27 2 25 28
M  V30 28 1 28 29
M  V30 29 1 29 30
M  V30 30 1 28 3
M  V30 31 1 23 6
M  V30 32 1 22 11
M  V30 33 1 20 15
M  V30 34 1 1 31
M  V30 35 1 1 32
M  V30 36 1 1 33
M  V30 37 1 4 34
M  V30 38 1 7 35
M  V30 39 1 9 36
M  V30 40 1 12 37
M  V30 41 1 13 38
M  V30 42 1 16 39
M  V30 43 1 16 40
M  V30 44 1 17 41
M  V30 45 1 17 42
M  V30 46 1 18 43
M  V30 47 1 19 44
M  V30 48 1 19 45
M  V30 49 1 20 46
M  V30 50 1 20 47
M  V30 51 1 21 48
M  V30 52 1 22 49
M  V30 53 1 23 50
M  V30 54 1 24 51
M  V30 55 1 27 52
M  V30 56 1 27 53
M  V30 57 1 27 54
M  V30 58 1 30 55
M  V30 59 1 30 56
M  V30 60 1 30 57
M  V30 END BOND
M  V30 END CTAB
M  END
>  <Dataset>  (12) 
ChEMBL_Kinases

>  <Ligand_Instance>  (12) 
nan

>  <PDB_ID>  (12) 
nan

>  <Standardized_SMILES>  (12) 
COc1cc(-c2cncc(-c3ccc(N4CCNCC4)cc3)c2)cc(OC)c1OC

>  <Name>  (12) 
nan

>  <Pocket>  (12) 
nan

>  <ATP_Site>  (12) 
nan

>  <Peripheral>  (12) 
nan

>  <Num_H_Atoms_ProtBoundConf>  (12) 
nan

>  <Num_Resolved_Atoms>  (12) 
nan

>  <Num_Not_Resolved_Atoms>  (12) 
nan

$$$$
CHEMBL3353344
     RDKit          3D

  0  0  0  0  0  0  0  0  0  0999 V3000
M  V30 BEGIN CTAB
M  V30 COUNTS 53 58 0 0 0
M  V30 BEGIN ATOM
M  V30 1 C 0.591419 -6.535821 6.734272 0
M  V30 2 C 0.747632 -5.696317 5.540220 0
M  V30 3 C -0.219831 -4.785605 5.194941 0
M  V30 4 C 0.027726 -4.056572 4.064423 0
M  V30 5 C 1.194230 -4.218827 3.295114 0
M  V30 6 C 1.301265 -3.375092 2.136206 0
M  V30 7 C 2.027907 -3.058036 1.132889 0
M  V30 8 C 2.110829 -2.204054 -0.019281 0
M  V30 9 N 3.177240 -2.227370 -0.869123 0
M  V30 10 N 2.990242 -1.352229 -1.826388 0
M  V30 11 C 1.827486 -0.699883 -1.696010 0
M  V30 12 C 1.191964 0.288650 -2.427281 0
M  V30 13 C -0.059834 0.785513 -2.025956 0
M  V30 14 C -0.613539 1.806022 -2.893640 0 CFG=2
M  V30 15 C -0.055566 3.202685 -2.618999 0
M  V30 16 C -1.545950 2.844796 -2.672932 0 CFG=1
M  V30 17 C -2.277477 3.426865 -3.827041 0
M  V30 18 O -1.913141 3.286342 -5.032784 0
M  V30 19 N -3.427916 4.155771 -3.418934 0
M  V30 20 C -3.379244 4.075968 -1.978395 0
M  V30 21 C -4.310783 4.692105 -1.163936 0
M  V30 22 C -4.123404 4.569585 0.194803 0
M  V30 23 C -3.083353 3.883254 0.749951 0
M  V30 24 C -2.216832 3.309262 -0.156371 0
M  V30 25 C -2.283328 3.350654 -1.546602 0
M  V30 26 C -0.561877 0.208191 -0.880140 0
M  V30 27 C 0.066946 -0.772388 -0.152918 0
M  V30 28 C 1.284773 -1.243968 -0.557435 0
M  V30 29 C 2.115269 -5.155740 3.712306 0
M  V30 30 C 3.355409 -5.391500 2.972513 0
M  V30 31 N 1.857545 -5.852393 4.810374 0
M  V30 32 H -0.056844 -7.412352 6.547421 0
M  V30 33 H 1.589090 -6.785061 7.146184 0
M  V30 34 H 0.078054 -5.986459 7.576561 0
M  V30 35 H -1.099956 -4.678960 5.795357 0
M  V30 36 H -0.776300 -3.347532 3.838101 0
M  V30 37 H 0.469424 -2.696715 1.963127 0
M  V30 38 H 2.892556 -3.723357 1.263959 0
M  V30 39 H 3.713927 -1.238845 -2.567259 0
M  V30 40 H 1.732954 0.622979 -3.297926 0
M  V30 41 H -0.401495 1.561741 -3.993372 0
M  V30 42 H 0.363541 3.813078 -3.412365 0
M  V30 43 H 0.405442 3.393047 -1.625921 0
M  V30 44 H -4.105126 4.614252 -4.056007 0
M  V30 45 H -5.162789 5.254542 -1.508228 0
M  V30 46 H -4.835747 5.040340 0.861335 0
M  V30 47 H -2.925458 3.780575 1.814309 0
M  V30 48 H -1.375986 2.762991 0.302920 0
M  V30 49 H -1.526800 0.571682 -0.571501 0
M  V30 50 H -0.410561 -1.143110 0.711268 0
M  V30 51 H 4.100293 -4.578984 3.005289 0
M  V30 52 H 3.223662 -5.870886 1.968792 0
M  V30 53 H 3.898381 -6.226816 3.531711 0
M  V30 END ATOM
M  V30 BEGIN BOND
M  V30 1 1 1 2
M  V30 2 2 2 3
M  V30 3 1 3 4
M  V30 4 2 4 5
M  V30 5 1 5 6
M  V30 6 2 6 7
M  V30 7 1 7 8
M  V30 8 2 8 9
M  V30 9 1 9 10
M  V30 10 1 10 11
M  V30 11 2 11 12
M  V30 12 1 12 13
M  V30 13 1 13 14
M  V30 14 1 14 15
M  V30 15 1 16 15 CFG=1
M  V30 16 1 16 17
M  V30 17 2 17 18
M  V30 18 1 17 19
M  V30 19 1 19 20
M  V30 20 2 20 21
M  V30 21 1 21 22
M  V30 22 2 22 23
M  V30 23 1 23 24
M  V30 24 2 24 25
M  V30 25 2 13 26
M  V30 26 1 26 27
M  V30 27 2 27 28
M  V30 28 1 5 29
M  V30 29 1 29 30
M  V30 30 2 29 31
M  V30 31 1 31 2
M  V30 32 1 28 8
M  V30 33 1 28 11
M  V30 34 1 16 14
M  V30 35 1 25 20
M  V30 36 1 25 16
M  V30 37 1 1 32
M  V30 38 1 1 33
M  V30 39 1 1 34
M  V30 40 1 3 35
M  V30 41 1 4 36
M  V30 42 1 6 37
M  V30 43 1 7 38
M  V30 44 1 10 39
M  V30 45 1 12 40
M  V30 46 1 14 41 CFG=3
M  V30 47 1 15 42
M  V30 48 1 15 43
M  V30 49 1 19 44
M  V30 50 1 21 45
M  V30 51 1 22 46
M  V30 52 1 23 47
M  V30 53 1 24 48
M  V30 54 1 26 49
M  V30 55 1 27 50
M  V30 56 1 30 51
M  V30 57 1 30 52
M  V30 58 1 30 53
M  V30 END BOND
M  V30 END CTAB
M  END
>  <Dataset>  (13) 
ChEMBL_Kinases

>  <Ligand_Instance>  (13) 
nan

>  <PDB_ID>  (13) 
nan

>  <Standardized_SMILES>  (13) 
Cc1ccc(/C=C/c2n[nH]c3cc([C@@H]4C[C@@]45C(=O)Nc4ccccc45)ccc23)c(C)n1

>  <Name>  (13) 
nan

>  <Pocket>  (13) 
nan

>  <ATP_Site>  (13) 
nan

>  <Peripheral>  (13) 
nan

>  <Num_H_Atoms_ProtBoundConf>  (13) 
nan

>  <Num_Resolved_Atoms>  (13) 
nan

>  <Num_Not_Resolved_Atoms>  (13) 
nan

$$$$
CHEMBL3765499
     RDKit          3D

  0  0  0  0  0  0  0  0  0  0999 V3000
M  V30 BEGIN CTAB
M  V30 COUNTS 69 73 0 0 0
M  V30 BEGIN ATOM
M  V30 1 C 8.985004 -3.106070 1.492837 0
M  V30 2 N 8.016971 -4.130987 1.153102 0
M  V30 3 C 8.301198 -4.602206 -0.163257 0
M  V30 4 C 8.024616 -3.587149 -1.244040 0
M  V30 5 N 6.923592 -2.767061 -0.794214 0
M  V30 6 C 6.695896 -1.613052 -1.522991 0
M  V30 7 C 5.534134 -0.812364 -0.991098 0
M  V30 8 C 5.359900 0.465248 -1.807993 0
M  V30 9 O 4.335865 1.296390 -1.392989 0
M  V30 10 C 2.992963 1.098616 -1.328611 0
M  V30 11 C 2.476365 2.301950 -0.803357 0
M  V30 12 C 1.095117 2.471565 -0.591575 0
M  V30 13 C 0.245379 1.408124 -0.917855 0
M  V30 14 N -1.168121 1.554494 -0.696927 0
M  V30 15 C -1.697643 1.141958 0.580193 0
M  V30 16 O -1.044264 0.638297 1.557915 0
M  V30 17 C -3.151735 1.333549 0.746649 0
M  V30 18 C -3.947827 0.744299 1.584581 0
M  V30 19 C -5.367892 1.067084 1.604229 0
M  V30 20 C -6.183954 -0.047462 1.837317 0
M  V30 21 C -7.559543 0.121614 1.894404 0
M  V30 22 C -8.095040 1.390282 1.719178 0
M  V30 23 O -9.490250 1.501485 1.787785 0
M  V30 24 C -10.264786 0.384638 2.016452 0
M  V30 25 C -10.562402 -0.016456 3.321450 0
M  V30 26 C -11.334910 -1.129067 3.562549 0
M  V30 27 C -11.828680 -1.868545 2.482792 0
M  V30 28 F -12.606610 -2.990247 2.607670 0
M  V30 29 C -11.539132 -1.478731 1.192628 0
M  V30 30 C -10.762773 -0.360393 0.964872 0
M  V30 31 C -7.286680 2.474273 1.491121 0
M  V30 32 C -5.920659 2.323204 1.431638 0
M  V30 33 S -3.514225 2.578009 -0.522644 0
M  V30 34 C -2.135805 2.081219 -1.597134 0
M  V30 35 S -1.953775 2.174177 -3.221597 0
M  V30 36 C 0.734454 0.229426 -1.431007 0
M  V30 37 C 2.090123 0.102003 -1.624049 0
M  V30 38 C 5.974626 -3.414143 -0.009967 0
M  V30 39 C 6.666005 -3.697182 1.342941 0
M  V30 40 H 8.839859 -2.198430 0.851231 0
M  V30 41 H 8.940397 -2.858285 2.564922 0
M  V30 42 H 9.998408 -3.480655 1.257894 0
M  V30 43 H 7.663069 -5.488709 -0.368345 0
M  V30 44 H 9.377140 -4.885531 -0.193136 0
M  V30 45 H 7.875992 -4.070765 -2.208090 0
M  V30 46 H 8.890684 -2.879820 -1.371134 0
M  V30 47 H 7.578833 -0.940823 -1.654004 0
M  V30 48 H 6.400708 -1.902513 -2.574604 0
M  V30 49 H 5.728414 -0.565407 0.050003 0
M  V30 50 H 4.625966 -1.461606 -1.115177 0
M  V30 51 H 5.112592 0.069927 -2.845474 0
M  V30 52 H 6.335671 0.939509 -1.897069 0
M  V30 53 H 2.967447 3.221055 -0.495762 0
M  V30 54 H 0.604756 3.344774 -0.198655 0
M  V30 55 H -3.523719 0.002389 2.272019 0
M  V30 56 H -5.805367 -1.035733 1.975068 0
M  V30 57 H -8.185219 -0.756100 2.077215 0
M  V30 58 H -10.203608 0.521509 4.182872 0
M  V30 59 H -11.584586 -1.469067 4.546852 0
M  V30 60 H -11.910056 -2.034859 0.337240 0
M  V30 61 H -10.522562 -0.035739 -0.047860 0
M  V30 62 H -7.746970 3.452456 1.359190 0
M  V30 63 H -5.237761 3.141059 1.256034 0
M  V30 64 H 0.136134 -0.624534 -1.702617 0
M  V30 65 H 2.615421 -0.747247 -2.022895 0
M  V30 66 H 5.778620 -4.446272 -0.413465 0
M  V30 67 H 5.058454 -2.853964 0.142570 0
M  V30 68 H 6.712424 -2.694888 1.834159 0
M  V30 69 H 6.052197 -4.328299 1.994340 0
M  V30 END ATOM
M  V30 BEGIN BOND
M  V30 1 1 1 2
M  V30 2 1 2 3
M  V30 3 1 3 4
M  V30 4 1 4 5
M  V30 5 1 5 6
M  V30 6 1 6 7
M  V30 7 1 7 8
M  V30 8 1 8 9
M  V30 9 1 9 10
M  V30 10 2 10 11
M  V30 11 1 11 12
M  V30 12 2 12 13
M  V30 13 1 13 14
M  V30 14 1 14 15
M  V30 15 2 15 16
M  V30 16 1 15 17
M  V30 17 2 17 18
M  V30 18 1 18 19
M  V30 19 2 19 20
M  V30 20 1 20 21
M  V30 21 2 21 22
M  V30 22 1 22 23
M  V30 23 1 23 24
M  V30 24 2 24 25
M  V30 25 1 25 26
M  V30 26 2 26 27
M  V30 27 1 27 28
M  V30 28 1 27 29
M  V30 29 2 29 30
M  V30 30 1 22 31
M  V30 31 2 31 32
M  V30 32 1 17 33
M  V30 33 1 33 34
M  V30 34 2 34 35
M  V30 35 1 13 36
M  V30 36 2 36 37
M  V30 37 1 5 38
M  V30 38 1 38 39
M  V30 39 1 39 2
M  V30 40 1 37 10
M  V30 41 1 34 14
M  V30 42 1 32 19
M  V30 43 1 30 24
M  V30 44 1 1 40
M  V30 45 1 1 41
M  V30 46 1 1 42
M  V30 47 1 3 43
M  V30 48 1 3 44
M  V30 49 1 4 45
M  V30 50 1 4 46
M  V30 51 1 6 47
M  V30 52 1 6 48
M  V30 53 1 7 49
M  V30 54 1 7 50
M  V30 55 1 8 51
M  V30 56 1 8 52
M  V30 57 1 11 53
M  V30 58 1 12 54
M  V30 59 1 18 55
M  V30 60 1 20 56
M  V30 61 1 21 57
M  V30 62 1 25 58
M  V30 63 1 26 59
M  V30 64 1 29 60
M  V30 65 1 30 61
M  V30 66 1 31 62
M  V30 67 1 32 63
M  V30 68 1 36 64
M  V30 69 1 37 65
M  V30 70 1 38 66
M  V30 71 1 38 67
M  V30 72 1 39 68
M  V30 73 1 39 69
M  V30 END BOND
M  V30 END CTAB
M  END
>  <Dataset>  (14) 
ChEMBL_Kinases

>  <Ligand_Instance>  (14) 
nan

>  <PDB_ID>  (14) 
nan

>  <Standardized_SMILES>  (14) 
CN1CCN(CCCOc2ccc(N3C(=O)/C(=C/c4ccc(Oc5ccc(F)cc5)cc4)SC3=S)cc2)CC1

>  <Name>  (14) 
nan

>  <Pocket>  (14) 
nan

>  <ATP_Site>  (14) 
nan

>  <Peripheral>  (14) 
nan

>  <Num_H_Atoms_ProtBoundConf>  (14) 
nan

>  <Num_Resolved_Atoms>  (14) 
nan

>  <Num_Not_Resolved_Atoms>  (14) 
nan

$$$$
CHEMBL4160679
     RDKit          3D

  0  0  0  0  0  0  0  0  0  0999 V3000
M  V30 BEGIN CTAB
M  V30 COUNTS 66 70 0 0 0
M  V30 BEGIN ATOM
M  V30 1 C 3.331983 -4.196462 6.740480 0
M  V30 2 C 3.878368 -3.740143 5.411175 0
M  V30 3 C 3.990223 -4.869029 4.438992 0
M  V30 4 C 4.541194 -4.388375 3.110225 0
M  V30 5 N 3.706018 -3.393602 2.517914 0
M  V30 6 C 4.108564 -2.859324 1.269840 0
M  V30 7 O 5.193123 -3.367600 0.853726 0
M  V30 8 C 3.338266 -1.837477 0.565668 0
M  V30 9 C 2.158257 -1.298325 1.039409 0
M  V30 10 C 1.505092 -0.335225 0.296160 0
M  V30 11 C 1.972774 0.129906 -0.918492 0
M  V30 12 C 3.165403 -0.414324 -1.398346 0
M  V30 13 C 3.409946 0.209435 -2.609124 0
M  V30 14 C 2.390397 1.108180 -2.854673 0
M  V30 15 N 1.514439 1.051685 -1.812100 0
M  V30 16 C 0.304436 1.760502 -1.562242 0
M  V30 17 N 0.213897 3.117768 -1.451602 0
M  V30 18 C -0.967437 3.717907 -1.214162 0
M  V30 19 C -2.116501 2.955407 -1.078115 0
M  V30 20 C -2.017056 1.569701 -1.192229 0
M  V30 21 N -0.817381 1.028728 -1.428528 0
M  V30 22 N -3.128965 0.692879 -1.070384 0
M  V30 23 C -3.079529 -0.630178 -1.591447 0
M  V30 24 C -4.024579 -1.636190 -1.586660 0
M  V30 25 C -3.510037 -2.768895 -2.225444 0
M  V30 26 N -2.263474 -2.406556 -2.596949 0
M  V30 27 C -1.360341 -3.306921 -3.306338 0
M  V30 28 N -2.024494 -1.169756 -2.226243 0
M  V30 29 C -4.322879 1.176953 -0.399837 0
M  V30 30 C -4.226067 1.059079 1.100738 0
M  V30 31 C -5.490821 1.572641 1.796137 0
M  V30 32 C -4.541099 2.634469 -0.700310 0
M  V30 33 O -5.662665 3.172882 -0.859930 0
M  V30 34 N -3.411496 3.521982 -0.824298 0
M  V30 35 C -3.528487 4.961692 -0.703468 0
M  V30 36 C 3.824022 -1.386901 -0.646718 0
M  V30 37 H 3.449279 -5.284809 6.916003 0
M  V30 38 H 2.272574 -3.913837 6.862851 0
M  V30 39 H 3.892374 -3.693851 7.553286 0
M  V30 40 H 3.159455 -2.999802 5.001656 0
M  V30 41 H 4.875118 -3.301484 5.562550 0
M  V30 42 H 2.945423 -5.242052 4.260220 0
M  V30 43 H 4.547173 -5.738562 4.811514 0
M  V30 44 H 5.586258 -4.086322 3.250326 0
M  V30 45 H 4.572798 -5.272216 2.436178 0
M  V30 46 H 2.828415 -3.065603 2.980614 0
M  V30 47 H 1.772434 -1.638450 1.975513 0
M  V30 48 H 0.581812 0.063312 0.702083 0
M  V30 49 H 4.258256 0.026255 -3.258928 0
M  V30 50 H 2.252339 1.764924 -3.697290 0
M  V30 51 H -1.040116 4.791632 -1.126476 0
M  V30 52 H -5.003857 -1.517433 -1.142087 0
M  V30 53 H -4.031663 -3.705274 -2.367089 0
M  V30 54 H -1.235789 -4.260085 -2.766337 0
M  V30 55 H -0.368658 -2.844746 -3.445042 0
M  V30 56 H -1.817248 -3.522580 -4.298827 0
M  V30 57 H -5.198297 0.632758 -0.794776 0
M  V30 58 H -3.391855 1.677606 1.459635 0
M  V30 59 H -4.132605 0.002640 1.433905 0
M  V30 60 H -6.318387 0.877409 1.495082 0
M  V30 61 H -5.336496 1.385745 2.879261 0
M  V30 62 H -5.681602 2.619127 1.558490 0
M  V30 63 H -4.542186 5.200256 -0.342096 0
M  V30 64 H -3.413308 5.409280 -1.722833 0
M  V30 65 H -2.727016 5.370723 -0.027793 0
M  V30 66 H 4.749068 -1.745377 -1.115183 0
M  V30 END ATOM
M  V30 BEGIN BOND
M  V30 1 1 1 2
M  V30 2 1 2 3
M  V30 3 1 3 4
M  V30 4 1 4 5
M  V30 5 1 5 6
M  V30 6 2 6 7
M  V30 7 1 6 8
M  V30 8 2 8 9
M  V30 9 1 9 10
M  V30 10 2 10 11
M  V30 11 1 11 12
M  V30 12 1 12 13
M  V30 13 2 13 14
M  V30 14 1 14 15
M  V30 15 1 15 16
M  V30 16 2 16 17
M  V30 17 1 17 18
M  V30 18 2 18 19
M  V30 19 1 19 20
M  V30 20 2 20 21
M  V30 21 1 20 22
M  V30 22 1 22 23
M  V30 23 1 23 24
M  V30 24 2 24 25
M  V30 25 1 25 26
M  V30 26 1 26 27
M  V30 27 1 26 28
M  V30 28 1 22 29
M  V30 29 1 29 30
M  V30 30 1 30 31
M  V30 31 1 29 32
M  V30 32 2 32 33
M  V30 33 1 32 34
M  V30 34 1 34 35
M  V30 35 2 12 36
M  V30 36 1 36 8
M  V30 37 1 15 11
M  V30 38 1 21 16
M  V30 39 2 28 23
M  V30 40 1 34 19
M  V30 41 1 1 37
M  V30 42 1 1 38
M  V30 43 1 1 39
M  V30 44 1 2 40
M  V30 45 1 2 41
M  V30 46 1 3 42
M  V30 47 1 3 43
M  V30 48 1 4 44
M  V30 49 1 4 45
M  V30 50 1 5 46
M  V30 51 1 9 47
M  V30 52 1 10 48
M  V30 53 1 13 49
M  V30 54 1 14 50
M  V30 55 1 18 51
M  V30 56 1 24 52
M  V30 57 1 25 53
M  V30 58 1 27 54
M  V30 59 1 27 55
M  V30 60 1 27 56
M  V30 61 1 29 57
M  V30 62 1 30 58
M  V30 63 1 30 59
M  V30 64 1 31 60
M  V30 65 1 31 61
M  V30 66 1 31 62
M  V30 67 1 35 63
M  V30 68 1 35 64
M  V30 69 1 35 65
M  V30 70 1 36 66
M  V30 END BOND
M  V30 END CTAB
M  END
>  <Dataset>  (15) 
ChEMBL_Kinases

>  <Ligand_Instance>  (15) 
nan

>  <PDB_ID>  (15) 
nan

>  <Standardized_SMILES>  (15) 
CCCCNC(=O)c1ccc2c(ccn2-c2ncc3c(n2)N(c2ccn(C)n2)C(CC)C(=O)N3C)c1

>  <Name>  (15) 
nan

>  <Pocket>  (15) 
nan

>  <ATP_Site>  (15) 
nan

>  <Peripheral>  (15) 
nan

>  <Num_H_Atoms_ProtBoundConf>  (15) 
nan

>  <Num_Resolved_Atoms>  (15) 
nan

>  <Num_Not_Resolved_Atoms>  (15) 
nan

$$$$
CHEMBL3353347
     RDKit          3D

  0  0  0  0  0  0  0  0  0  0999 V3000
M  V30 BEGIN CTAB
M  V30 COUNTS 59 64 0 0 0
M  V30 BEGIN ATOM
M  V30 1 C 7.219998 -2.266608 2.953179 0
M  V30 2 N 8.032136 -1.272003 2.264499 0
M  V30 3 C 7.982052 -1.619927 0.851506 0
M  V30 4 C 7.444341 0.029157 2.422514 0
M  V30 5 C 6.078883 0.155543 1.882352 0
M  V30 6 C 5.847181 0.545491 0.580785 0
M  V30 7 C 4.539216 0.637728 0.157901 0
M  V30 8 C 3.449582 0.364664 0.954471 0
M  V30 9 C 2.059493 0.451541 0.540440 0
M  V30 10 C 1.543405 0.784554 -0.597713 0
M  V30 11 C 0.243959 0.931982 -1.201401 0
M  V30 12 N 0.106758 1.323551 -2.493229 0
M  V30 13 N -1.161123 1.384278 -2.814756 0
M  V30 14 C -1.955641 1.046447 -1.789043 0
M  V30 15 C -3.321743 0.941749 -1.581621 0
M  V30 16 C -3.837662 0.545586 -0.339787 0
M  V30 17 C -5.296701 0.500130 -0.277269 0 CFG=2
M  V30 18 C -6.010338 0.384834 1.044678 0
M  V30 19 C -6.123617 -0.665800 0.043597 0 CFG=1
M  V30 20 C -7.376630 -0.820589 -0.773653 0
M  V30 21 O -8.079203 0.190612 -1.074968 0
M  V30 22 N -7.635903 -2.170000 -1.131065 0
M  V30 23 C -6.577083 -2.896309 -0.522105 0
M  V30 24 C -6.464290 -4.274685 -0.610967 0
M  V30 25 C -5.419076 -4.900401 0.027793 0
M  V30 26 C -4.516525 -4.138042 0.736499 0
M  V30 27 C -4.700730 -2.781897 0.773591 0
M  V30 28 C -5.706460 -2.047963 0.173912 0
M  V30 29 C -2.899500 0.278292 0.626360 0
M  V30 30 C -1.544211 0.381183 0.423158 0
M  V30 31 C -1.058492 0.769759 -0.798275 0
M  V30 32 C 3.714412 -0.021598 2.246935 0
M  V30 33 C 5.003861 -0.128807 2.717071 0
M  V30 34 H 7.743694 -3.241065 3.030373 0
M  V30 35 H 7.084412 -1.928109 4.016919 0
M  V30 36 H 6.257442 -2.462058 2.439846 0
M  V30 37 H 8.653027 -1.028060 0.222527 0
M  V30 38 H 6.924404 -1.670524 0.466606 0
M  V30 39 H 8.344729 -2.681509 0.769742 0
M  V30 40 H 8.079328 0.765457 1.888735 0
M  V30 41 H 7.427625 0.248760 3.504690 0
M  V30 42 H 6.671121 0.775937 -0.100407 0
M  V30 43 H 4.388468 0.942209 -0.854825 0
M  V30 44 H 1.297107 0.214266 1.245067 0
M  V30 45 H 2.415703 1.005158 -1.238741 0
M  V30 46 H -1.466459 1.666845 -3.766688 0
M  V30 47 H -3.918360 1.193986 -2.462942 0
M  V30 48 H -5.805019 1.210865 -1.002456 0
M  V30 49 H -6.874376 1.048321 1.275441 0
M  V30 50 H -5.448346 0.137655 1.970300 0
M  V30 51 H -8.446813 -2.467132 -1.714148 0
M  V30 52 H -7.138442 -4.918377 -1.149148 0
M  V30 53 H -5.305423 -5.972413 -0.023996 0
M  V30 54 H -3.707388 -4.658323 1.227069 0
M  V30 55 H -3.944329 -2.283029 1.357984 0
M  V30 56 H -3.322611 -0.016991 1.576724 0
M  V30 57 H -0.895349 0.151136 1.237745 0
M  V30 58 H 2.897400 -0.255016 2.938901 0
M  V30 59 H 5.176973 -0.435376 3.738839 0
M  V30 END ATOM
M  V30 BEGIN BOND
M  V30 1 1 1 2
M  V30 2 1 2 3
M  V30 3 1 2 4
M  V30 4 1 4 5
M  V30 5 2 5 6
M  V30 6 1 6 7
M  V30 7 2 7 8
M  V30 8 1 8 9
M  V30 9 2 9 10
M  V30 10 1 10 11
M  V30 11 2 11 12
M  V30 12 1 12 13
M  V30 13 1 13 14
M  V30 14 2 14 15
M  V30 15 1 15 16
M  V30 16 1 16 17
M  V30 17 1 17 18
M  V30 18 1 19 18 CFG=1
M  V30 19 1 19 20
M  V30 20 2 20 21
M  V30 21 1 20 22
M  V30 22 1 22 23
M  V30 23 2 23 24
M  V30 24 1 24 25
M  V30 25 2 25 26
M  V30 26 1 26 27
M  V30 27 2 27 28
M  V30 28 2 16 29
M  V30 29 1 29 30
M  V30 30 2 30 31
M  V30 31 1 8 32
M  V30 32 2 32 33
M  V30 33 1 33 5
M  V30 34 1 31 11
M  V30 35 1 31 14
M  V30 36 1 19 17
M  V30 37 1 28 23
M  V30 38 1 28 19
M  V30 39 1 1 34
M  V30 40 1 1 35
M  V30 41 1 1 36
M  V30 42 1 3 37
M  V30 43 1 3 38
M  V30 44 1 3 39
M  V30 45 1 4 40
M  V30 46 1 4 41
M  V30 47 1 6 42
M  V30 48 1 7 43
M  V30 49 1 9 44
M  V30 50 1 10 45
M  V30 51 1 13 46
M  V30 52 1 15 47
M  V30 53 1 17 48 CFG=3
M  V30 54 1 18 49
M  V30 55 1 18 50
M  V30 56 1 22 51
M  V30 57 1 24 52
M  V30 58 1 25 53
M  V30 59 1 26 54
M  V30 60 1 27 55
M  V30 61 1 29 56
M  V30 62 1 30 57
M  V30 63 1 32 58
M  V30 64 1 33 59
M  V30 END BOND
M  V30 END CTAB
M  END
>  <Dataset>  (16) 
ChEMBL_Kinases

>  <Ligand_Instance>  (16) 
nan

>  <PDB_ID>  (16) 
nan

>  <Standardized_SMILES>  (16) 
CN(C)Cc1ccc(/C=C/c2n[nH]c3cc([C@@H]4C[C@@]45C(=O)Nc4ccccc45)ccc23)cc1

>  <Name>  (16) 
nan

>  <Pocket>  (16) 
nan

>  <ATP_Site>  (16) 
nan

>  <Peripheral>  (16) 
nan

>  <Num_H_Atoms_ProtBoundConf>  (16) 
nan

>  <Num_Resolved_Atoms>  (16) 
nan

>  <Num_Not_Resolved_Atoms>  (16) 
nan

$$$$
CHEMBL3353348
     RDKit          3D

  0  0  0  0  0  0  0  0  0  0999 V3000
M  V30 BEGIN CTAB
M  V30 COUNTS 63 68 0 0 0
M  V30 BEGIN ATOM
M  V30 1 C 4.937079 0.899480 -4.006936 0
M  V30 2 O 3.857767 1.470532 -3.283323 0
M  V30 3 C 4.062321 2.522044 -2.416161 0
M  V30 4 C 5.314240 3.055196 -2.220914 0
M  V30 5 C 5.505894 4.105348 -1.352569 0
M  V30 6 C 4.397195 4.615434 -0.674537 0
M  V30 7 C 3.084011 4.142174 -0.801924 0
M  V30 8 C 3.046575 3.099751 -1.698371 0
M  V30 9 C 2.223348 4.918115 0.072310 0 CFG=1
M  V30 10 C 0.833013 5.262598 -0.301390 0
M  V30 11 C 1.196528 4.490569 0.996728 0 CFG=1
M  V30 12 C 0.583608 3.180032 1.174576 0
M  V30 13 C 0.960471 1.893956 0.874052 0
M  V30 14 C 0.234761 0.758946 1.092488 0
M  V30 15 C -1.000763 0.870955 1.669594 0
M  V30 16 C -1.957566 -0.056832 2.019432 0
M  V30 17 C -1.885339 -1.513619 1.824111 0
M  V30 18 C -2.880925 -2.251210 2.251731 0
M  V30 19 C -2.911678 -3.697850 2.110152 0
M  V30 20 C -1.915181 -4.447108 1.526136 0
M  V30 21 C -1.929945 -5.814918 1.379027 0
M  V30 22 C -3.016538 -6.523699 1.843195 0
M  V30 23 C -3.234367 -7.989857 1.773811 0
M  V30 24 N -3.948725 -8.357951 0.595649 0
M  V30 25 C -5.251088 -7.765529 0.489788 0
M  V30 26 C -3.239393 -8.264383 -0.636143 0
M  V30 27 C -4.053135 -5.809065 2.443675 0
M  V30 28 C -3.990025 -4.426546 2.568111 0
M  V30 29 N -2.969993 0.641950 2.556860 0
M  V30 30 N -2.702329 1.945817 2.562074 0
M  V30 31 C -1.490546 2.110175 2.018252 0
M  V30 32 C -0.695019 3.205179 1.763055 0
M  V30 33 C 3.162004 5.947802 0.629410 0
M  V30 34 O 2.773563 6.886970 1.389348 0
M  V30 35 N 4.484905 5.728811 0.203531 0
M  V30 36 H 5.754406 0.594106 -3.315658 0
M  V30 37 H 5.341078 1.622494 -4.719267 0
M  V30 38 H 4.596686 -0.018188 -4.507760 0
M  V30 39 H 6.142131 2.632455 -2.763061 0
M  V30 40 H 6.514222 4.467226 -1.254018 0
M  V30 41 H 2.052680 2.653454 -1.873028 0
M  V30 42 H 0.373328 4.660043 -1.125033 0
M  V30 43 H 0.513531 6.295749 -0.238325 0
M  V30 44 H 0.971180 5.187456 1.877942 0
M  V30 45 H 1.919637 1.802982 0.447402 0
M  V30 46 H 0.650250 -0.188916 0.806242 0
M  V30 47 H -1.022090 -1.937536 1.337182 0
M  V30 48 H -3.712978 -1.756797 2.730283 0
M  V30 49 H -1.036886 -3.949694 1.141674 0
M  V30 50 H -1.144940 -6.392898 0.923904 0
M  V30 51 H -2.257949 -8.533738 1.776153 0
M  V30 52 H -3.815789 -8.339234 2.650954 0
M  V30 53 H -5.865051 -7.906408 1.407477 0
M  V30 54 H -5.754058 -8.245000 -0.398897 0
M  V30 55 H -5.208080 -6.669430 0.283659 0
M  V30 56 H -2.510466 -7.459689 -0.703201 0
M  V30 57 H -3.995427 -8.094200 -1.438355 0
M  V30 58 H -2.784999 -9.262731 -0.862253 0
M  V30 59 H -4.962165 -6.227411 2.853578 0
M  V30 60 H -4.791172 -3.847723 3.034087 0
M  V30 61 H -3.328344 2.681815 2.924093 0
M  V30 62 H -1.157232 4.158010 2.070543 0
M  V30 63 H 5.278303 6.307969 0.519150 0
M  V30 END ATOM
M  V30 BEGIN BOND
M  V30 1 1 1 2
M  V30 2 1 2 3
M  V30 3 2 3 4
M  V30 4 1 4 5
M  V30 5 2 5 6
M  V30 6 1 6 7
M  V30 7 2 7 8
M  V30 8 1 7 9
M  V30 9 1 9 10 CFG=3
M  V30 10 1 10 11
M  V30 11 1 11 12
M  V30 12 2 12 13
M  V30 13 1 13 14
M  V30 14 2 14 15
M  V30 15 1 15 16
M  V30 16 1 16 17
M  V30 17 2 17 18
M  V30 18 1 18 19
M  V30 19 2 19 20
M  V30 20 1 20 21
M  V30 21 2 21 22
M  V30 22 1 22 23
M  V30 23 1 23 24
M  V30 24 1 24 25
M  V30 25 1 24 26
M  V30 26 1 22 27
M  V30 27 2 27 28
M  V30 28 2 16 29
M  V30 29 1 29 30
M  V30 30 1 30 31
M  V30 31 2 31 32
M  V30 32 1 9 33
M  V30 33 2 33 34
M  V30 34 1 33 35
M  V30 35 1 8 3
M  V30 36 1 11 9
M  V30 37 1 32 12
M  V30 38 1 35 6
M  V30 39 1 31 15
M  V30 40 1 28 19
M  V30 41 1 1 36
M  V30 42 1 1 37
M  V30 43 1 1 38
M  V30 44 1 4 39
M  V30 45 1 5 40
M  V30 46 1 8 41
M  V30 47 1 10 42
M  V30 48 1 10 43
M  V30 49 1 11 44 CFG=1
M  V30 50 1 13 45
M  V30 51 1 14 46
M  V30 52 1 17 47
M  V30 53 1 18 48
M  V30 54 1 20 49
M  V30 55 1 21 50
M  V30 56 1 23 51
M  V30 57 1 23 52
M  V30 58 1 25 53
M  V30 59 1 25 54
M  V30 60 1 25 55
M  V30 61 1 26 56
M  V30 62 1 26 57
M  V30 63 1 26 58
M  V30 64 1 27 59
M  V30 65 1 28 60
M  V30 66 1 30 61
M  V30 67 1 32 62
M  V30 68 1 35 63
M  V30 END BOND
M  V30 END CTAB
M  END
>  <Dataset>  (17) 
ChEMBL_Kinases

>  <Ligand_Instance>  (17) 
nan

>  <PDB_ID>  (17) 
nan

>  <Standardized_SMILES>  (17) 
COc1ccc2c(c1)[C@]1(C[C@H]1c1ccc3c(/C=C/c4ccc(CN(C)C)cc4)n[nH]c3c1)C(=O)N2

>  <Name>  (17) 
nan

>  <Pocket>  (17) 
nan

>  <ATP_Site>  (17) 
nan

>  <Peripheral>  (17) 
nan

>  <Num_H_Atoms_ProtBoundConf>  (17) 
nan

>  <Num_Resolved_Atoms>  (17) 
nan

>  <Num_Not_Resolved_Atoms>  (17) 
nan

$$$$
CHEMBL3353349
     RDKit          3D

  0  0  0  0  0  0  0  0  0  0999 V3000
M  V30 BEGIN CTAB
M  V30 COUNTS 63 68 0 0 0
M  V30 BEGIN ATOM
M  V30 1 C 5.505068 1.339995 5.958094 0
M  V30 2 N 6.612376 1.322081 5.021783 0
M  V30 3 C 6.842640 -0.001059 4.485713 0
M  V30 4 C 6.470916 2.319897 3.992928 0
M  V30 5 C 5.202879 2.072358 3.212669 0
M  V30 6 C 5.216883 1.285234 2.080076 0
M  V30 7 C 4.068426 1.039214 1.353854 0
M  V30 8 C 2.878112 1.592670 1.767521 0
M  V30 9 C 1.678240 1.312332 0.993405 0
M  V30 10 C 0.444581 1.673790 1.144568 0
M  V30 11 C -0.825344 1.490912 0.492715 0
M  V30 12 N -1.953176 2.055907 1.026095 0
M  V30 13 N -2.986012 1.750360 0.277669 0
M  V30 14 C -2.659745 0.998448 -0.761269 0
M  V30 15 C -3.340227 0.420556 -1.812021 0
M  V30 16 C -2.616151 -0.333035 -2.737953 0
M  V30 17 C -3.382050 -0.956347 -3.823041 0 CFG=2
M  V30 18 C -4.867039 -1.002793 -3.740563 0
M  V30 19 C -3.989832 -2.267136 -3.747800 0 CFG=1
M  V30 20 C -4.223980 -3.094814 -4.954090 0
M  V30 21 O -4.149250 -2.692520 -6.147918 0
M  V30 22 N -4.552730 -4.434127 -4.603902 0
M  V30 23 C -4.497783 -4.414975 -3.171977 0
M  V30 24 C -4.744321 -5.554165 -2.394055 0
M  V30 25 C -4.640008 -5.396075 -1.030335 0
M  V30 26 C -4.319172 -4.225715 -0.385012 0
M  V30 27 O -4.191171 -3.968180 0.945561 0
M  V30 28 C -4.383070 -4.949644 1.931539 0
M  V30 29 F -3.215480 -5.135924 2.685127 0
M  V30 30 F -5.391185 -4.539876 2.817639 0
M  V30 31 C -4.093937 -3.151581 -1.258741 0
M  V30 32 C -4.165982 -3.174961 -2.660164 0
M  V30 33 C -1.233821 -0.499088 -2.606030 0
M  V30 34 C -0.609926 0.101680 -1.534477 0
M  V30 35 C -1.304444 0.844589 -0.614596 0
M  V30 36 C 2.861026 2.387141 2.909221 0
M  V30 37 C 4.023058 2.639287 3.647810 0
M  V30 38 H 4.600761 1.006051 5.417216 0
M  V30 39 H 5.643810 0.652747 6.794804 0
M  V30 40 H 5.362719 2.403080 6.278948 0
M  V30 41 H 7.076744 -0.728899 5.264181 0
M  V30 42 H 7.679269 0.105992 3.742225 0
M  V30 43 H 5.942969 -0.252686 3.876632 0
M  V30 44 H 6.398530 3.304309 4.478081 0
M  V30 45 H 7.301900 2.219967 3.281243 0
M  V30 46 H 6.146120 0.826492 1.721504 0
M  V30 47 H 4.133386 0.405247 0.458284 0
M  V30 48 H 1.779313 0.692310 0.121036 0
M  V30 49 H 0.477082 2.294852 2.056731 0
M  V30 50 H -3.942264 2.102813 0.540415 0
M  V30 51 H -4.377013 0.624256 -1.796471 0
M  V30 52 H -2.946992 -0.757532 -4.825835 0
M  V30 53 H -5.404412 -0.780210 -2.798010 0
M  V30 54 H -5.495566 -0.786228 -4.626713 0
M  V30 55 H -4.768187 -5.193459 -5.284584 0
M  V30 56 H -5.000514 -6.514567 -2.780474 0
M  V30 57 H -4.821871 -6.254058 -0.401085 0
M  V30 58 H -4.695736 -5.932571 1.570595 0
M  V30 59 H -3.838396 -2.201824 -0.817594 0
M  V30 60 H -0.734719 -1.082474 -3.343899 0
M  V30 61 H 0.431258 -0.040135 -1.461070 0
M  V30 62 H 1.961209 2.844016 3.275355 0
M  V30 63 H 3.966767 3.255509 4.518740 0
M  V30 END ATOM
M  V30 BEGIN BOND
M  V30 1 1 1 2
M  V30 2 1 2 3
M  V30 3 1 2 4
M  V30 4 1 4 5
M  V30 5 2 5 6
M  V30 6 1 6 7
M  V30 7 2 7 8
M  V30 8 1 8 9
M  V30 9 2 9 10
M  V30 10 1 10 11
M  V30 11 2 11 12
M  V30 12 1 12 13
M  V30 13 1 13 14
M  V30 14 2 14 15
M  V30 15 1 15 16
M  V30 16 1 16 17
M  V30 17 1 17 18
M  V30 18 1 19 18 CFG=1
M  V30 19 1 19 20
M  V30 20 2 20 21
M  V30 21 1 20 22
M  V30 22 1 22 23
M  V30 23 2 23 24
M  V30 24 1 24 25
M  V30 25 2 25 26
M  V30 26 1 26 27
M  V30 27 1 27 28
M  V30 28 1 28 29
M  V30 29 1 28 30
M  V30 30 1 26 31
M  V30 31 2 31 32
M  V30 32 2 16 33
M  V30 33 1 33 34
M  V30 34 2 34 35
M  V30 35 1 8 36
M  V30 36 2 36 37
M  V30 37 1 37 5
M  V30 38 1 35 11
M  V30 39 1 35 14
M  V30 40 1 19 17
M  V30 41 1 32 23
M  V30 42 1 32 19
M  V30 43 1 1 38
M  V30 44 1 1 39
M  V30 45 1 1 40
M  V30 46 1 3 41
M  V30 47 1 3 42
M  V30 48 1 3 43
M  V30 49 1 4 44
M  V30 50 1 4 45
M  V30 51 1 6 46
M  V30 52 1 7 47
M  V30 53 1 9 48
M  V30 54 1 10 49
M  V30 55 1 13 50
M  V30 56 1 15 51
M  V30 57 1 17 52 CFG=3
M  V30 58 1 18 53
M  V30 59 1 18 54
M  V30 60 1 22 55
M  V30 61 1 24 56
M  V30 62 1 25 57
M  V30 63 1 28 58
M  V30 64 1 31 59
M  V30 65 1 33 60
M  V30 66 1 34 61
M  V30 67 1 36 62
M  V30 68 1 37 63
M  V30 END BOND
M  V30 END CTAB
M  END
>  <Dataset>  (18) 
ChEMBL_Kinases

>  <Ligand_Instance>  (18) 
nan

>  <PDB_ID>  (18) 
nan

>  <Standardized_SMILES>  (18) 
CN(C)Cc1ccc(/C=C/c2n[nH]c3cc([C@@H]4C[C@@]45C(=O)Nc4ccc(OC(F)F)cc45)ccc23)cc1

>  <Name>  (18) 
nan

>  <Pocket>  (18) 
nan

>  <ATP_Site>  (18) 
nan

>  <Peripheral>  (18) 
nan

>  <Num_H_Atoms_ProtBoundConf>  (18) 
nan

>  <Num_Resolved_Atoms>  (18) 
nan

>  <Num_Not_Resolved_Atoms>  (18) 
nan

$$$$
CHEMBL4160647
     RDKit          3D

  0  0  0  0  0  0  0  0  0  0999 V3000
M  V30 BEGIN CTAB
M  V30 COUNTS 52 54 0 0 0
M  V30 BEGIN ATOM
M  V30 1 C 0.526148 -4.323242 3.160915 0
M  V30 2 N 0.189881 -3.756885 1.865142 0
M  V30 3 C 0.421659 -2.476053 1.531464 0
M  V30 4 C 0.010908 -2.194601 0.248167 0
M  V30 5 C 0.006341 -1.044196 -0.643576 0
M  V30 6 C 1.002663 -0.213778 -0.775836 0
M  V30 7 C 2.318716 -0.155528 -0.148417 0
M  V30 8 C 2.587424 1.338868 -0.154225 0
M  V30 9 C 4.037743 1.606582 0.079672 0
M  V30 10 O 4.779786 0.901424 -0.857578 0
M  V30 11 C 1.711243 2.053245 0.851506 0
M  V30 12 O 0.355871 1.681184 0.726206 0
M  V30 13 C -0.662725 2.192185 1.477169 0
M  V30 14 O -0.177221 3.043037 2.282628 0
M  V30 15 C -2.098694 1.830788 1.383605 0
M  V30 16 C -2.264046 0.386833 1.801134 0
M  V30 17 C -2.934344 2.683196 2.298101 0
M  V30 18 C -2.619734 2.043566 -0.033295 0
M  V30 19 O 2.121739 1.715166 -1.424418 0
M  V30 20 C 0.997820 0.942227 -1.670669 0
M  V30 21 O 0.152522 1.284733 -2.567105 0
M  V30 22 C -0.505653 -3.417846 -0.204142 0
M  V30 23 C -1.081142 -3.843807 -1.398089 0
M  V30 24 C -1.503380 -5.156011 -1.539481 0
M  V30 25 Cl -2.215677 -5.583289 -3.091224 0
M  V30 26 C -1.371155 -6.058008 -0.531185 0
M  V30 27 C -0.802091 -5.658496 0.665054 0
M  V30 28 C -0.382335 -4.350471 0.803533 0
M  V30 29 H 1.552569 -4.033223 3.429385 0
M  V30 30 H -0.212179 -3.855454 3.873446 0
M  V30 31 H 0.368599 -5.424390 3.103495 0
M  V30 32 H 0.865403 -1.705429 2.144844 0
M  V30 33 H -0.899669 -0.859999 -1.245936 0
M  V30 34 H 3.120085 -0.626778 -0.764598 0
M  V30 35 H 2.410317 -0.474173 0.882007 0
M  V30 36 H 4.234742 2.671615 0.137727 0
M  V30 37 H 4.282339 1.170186 1.076597 0
M  V30 38 H 5.559914 0.469357 -0.447609 0
M  V30 39 H 2.051744 1.784603 1.879096 0
M  V30 40 H 1.796800 3.142914 0.762865 0
M  V30 41 H -1.292986 -0.104474 1.749369 0
M  V30 42 H -2.525287 0.395626 2.898338 0
M  V30 43 H -3.104069 -0.128832 1.310077 0
M  V30 44 H -3.091573 3.714518 1.937219 0
M  V30 45 H -3.955704 2.222020 2.394805 0
M  V30 46 H -2.526776 2.667009 3.343257 0
M  V30 47 H -2.636650 1.045283 -0.517962 0
M  V30 48 H -1.947529 2.749200 -0.568195 0
M  V30 49 H -3.659607 2.426804 -0.057798 0
M  V30 50 H -1.192964 -3.137034 -2.210163 0
M  V30 51 H -1.720715 -7.072807 -0.702847 0
M  V30 52 H -0.714728 -6.403911 1.441213 0
M  V30 END ATOM
M  V30 BEGIN BOND
M  V30 1 1 1 2
M  V30 2 1 2 3
M  V30 3 2 3 4
M  V30 4 1 4 5
M  V30 5 2 5 6
M  V30 6 1 6 7
M  V30 7 1 7 8
M  V30 8 1 8 9
M  V30 9 1 9 10
M  V30 10 1 8 11
M  V30 11 1 11 12
M  V30 12 1 12 13
M  V30 13 2 13 14
M  V30 14 1 13 15
M  V30 15 1 15 16
M  V30 16 1 15 17
M  V30 17 1 15 18
M  V30 18 1 8 19
M  V30 19 1 19 20
M  V30 20 2 20 21
M  V30 21 1 4 22
M  V30 22 2 22 23
M  V30 23 1 23 24
M  V30 24 1 24 25
M  V30 25 2 24 26
M  V30 26 1 26 27
M  V30 27 2 27 28
M  V30 28 1 28 2
M  V30 29 1 20 6
M  V30 30 1 28 22
M  V30 31 1 1 29
M  V30 32 1 1 30
M  V30 33 1 1 31
M  V30 34 1 3 32
M  V30 35 1 5 33
M  V30 36 1 7 34
M  V30 37 1 7 35
M  V30 38 1 9 36
M  V30 39 1 9 37
M  V30 40 1 10 38
M  V30 41 1 11 39
M  V30 42 1 11 40
M  V30 43 1 16 41
M  V30 44 1 16 42
M  V30 45 1 16 43
M  V30 46 1 17 44
M  V30 47 1 17 45
M  V30 48 1 17 46
M  V30 49 1 18 47
M  V30 50 1 18 48
M  V30 51 1 18 49
M  V30 52 1 23 50
M  V30 53 1 26 51
M  V30 54 1 27 52
M  V30 END BOND
M  V30 END CTAB
M  END
>  <Dataset>  (19) 
ChEMBL_Kinases

>  <Ligand_Instance>  (19) 
nan

>  <PDB_ID>  (19) 
nan

>  <Standardized_SMILES>  (19) 
Cn1cc(/C=C2\CC(CO)(COC(=O)C(C)(C)C)OC2=O)c2cc(Cl)ccc21

>  <Name>  (19) 
nan

>  <Pocket>  (19) 
nan

>  <ATP_Site>  (19) 
nan

>  <Peripheral>  (19) 
nan

>  <Num_H_Atoms_ProtBoundConf>  (19) 
nan

>  <Num_Resolved_Atoms>  (19) 
nan

>  <Num_Not_Resolved_Atoms>  (19) 
nan

$$$$
CHEMBL3765759
     RDKit          3D

  0  0  0  0  0  0  0  0  0  0999 V3000
M  V30 BEGIN CTAB
M  V30 COUNTS 77 81 0 0 0
M  V30 BEGIN ATOM
M  V30 1 C 4.024021 -6.273821 1.364738 0
M  V30 2 N 5.371304 -6.475870 1.829758 0
M  V30 3 C 6.351062 -6.581379 0.810626 0
M  V30 4 C 7.353729 -5.457431 0.772394 0
M  V30 5 N 7.180657 -4.522815 1.827920 0
M  V30 6 C 8.133553 -3.494364 1.982730 0
M  V30 7 C 8.130606 -2.479090 0.861871 0
M  V30 8 C 6.792269 -1.814414 0.707490 0
M  V30 9 O 6.344290 -1.125455 1.830908 0
M  V30 10 C 5.113311 -0.477791 1.815563 0
M  V30 11 C 4.414797 -0.582743 0.628960 0
M  V30 12 C 3.170285 0.053927 0.571957 0
M  V30 13 C 2.686619 0.751840 1.675347 0
M  V30 14 N 1.391703 1.322307 1.394353 0
M  V30 15 C 0.151899 0.671768 1.625082 0
M  V30 16 O 0.077109 -0.493428 2.114099 0
M  V30 17 C -1.014785 1.426554 1.265394 0
M  V30 18 C -2.245044 1.010742 1.227237 0
M  V30 19 C -3.362810 1.862249 0.845725 0
M  V30 20 C -4.544025 1.696293 1.559787 0
M  V30 21 C -5.679664 2.456204 1.272653 0
M  V30 22 C -5.597725 3.383126 0.253731 0
M  V30 23 O -6.642548 4.218232 -0.154108 0
M  V30 24 C -7.527424 3.752348 -1.149578 0
M  V30 25 C -8.631738 3.086636 -0.602138 0
M  V30 26 C -9.547545 2.598808 -1.516406 0
M  V30 27 C -9.475543 2.705116 -2.888988 0
M  V30 28 N -10.456036 2.178928 -3.773615 0
M  V30 29 S -10.059102 1.286448 -5.210440 0
M  V30 30 C -9.170735 -0.197340 -4.847138 0
M  V30 31 O -9.214811 2.163600 -6.068919 0
M  V30 32 O -11.347558 1.040336 -5.931452 0
M  V30 33 C -8.343202 3.383552 -3.358188 0
M  V30 34 C -7.386508 3.898321 -2.513678 0
M  V30 35 C -4.408017 3.537862 -0.452512 0
M  V30 36 C -3.280263 2.787762 -0.172140 0
M  V30 37 S -0.427005 3.072943 0.882979 0
M  V30 38 C 1.310231 2.629478 0.840791 0
M  V30 39 S 2.512326 3.572466 0.272067 0
M  V30 40 C 3.410368 0.837362 2.845948 0
M  V30 41 C 4.639186 0.210739 2.906252 0
M  V30 42 C 7.082058 -5.291578 3.055452 0
M  V30 43 C 5.687307 -5.857832 3.048068 0
M  V30 44 H 3.933932 -5.476489 0.602559 0
M  V30 45 H 3.415062 -5.920170 2.228783 0
M  V30 46 H 3.539873 -7.196742 0.989511 0
M  V30 47 H 5.826089 -6.588484 -0.167107 0
M  V30 48 H 6.866580 -7.559052 0.899938 0
M  V30 49 H 8.378528 -5.880233 0.824632 0
M  V30 50 H 7.301455 -4.887916 -0.186728 0
M  V30 51 H 9.173854 -3.896163 2.070720 0
M  V30 52 H 7.894898 -2.949057 2.925807 0
M  V30 53 H 8.889502 -1.712741 1.130511 0
M  V30 54 H 8.475061 -2.967081 -0.058597 0
M  V30 55 H 6.076347 -2.624662 0.426829 0
M  V30 56 H 6.823113 -1.096653 -0.147618 0
M  V30 57 H 4.776261 -1.125692 -0.250074 0
M  V30 58 H 2.642290 -0.051301 -0.388988 0
M  V30 59 H -2.465576 -0.028639 1.492775 0
M  V30 60 H -4.678999 0.979514 2.379935 0
M  V30 61 H -6.623442 2.371604 1.793087 0
M  V30 62 H -8.816511 2.930294 0.446147 0
M  V30 63 H -10.415759 2.077745 -1.137354 0
M  V30 64 H -11.417929 2.423529 -3.404245 0
M  V30 65 H -8.153723 -0.230457 -5.270456 0
M  V30 66 H -9.812899 -1.055200 -5.137588 0
M  V30 67 H -9.052600 -0.256887 -3.735728 0
M  V30 68 H -8.214097 3.508399 -4.425620 0
M  V30 69 H -6.502236 4.424575 -2.817183 0
M  V30 70 H -4.321858 4.259714 -1.255556 0
M  V30 71 H -2.367032 2.923343 -0.735559 0
M  V30 72 H 2.937036 1.399885 3.625524 0
M  V30 73 H 5.197840 0.283642 3.827502 0
M  V30 74 H 7.266579 -4.727426 3.968019 0
M  V30 75 H 7.772965 -6.162001 2.945035 0
M  V30 76 H 4.997493 -4.998459 3.301412 0
M  V30 77 H 5.553041 -6.574327 3.894770 0
M  V30 END ATOM
M  V30 BEGIN BOND
M  V30 1 1 1 2
M  V30 2 1 2 3
M  V30 3 1 3 4
M  V30 4 1 4 5
M  V30 5 1 5 6
M  V30 6 1 6 7
M  V30 7 1 7 8
M  V30 8 1 8 9
M  V30 9 1 9 10
M  V30 10 2 10 11
M  V30 11 1 11 12
M  V30 12 2 12 13
M  V30 13 1 13 14
M  V30 14 1 14 15
M  V30 15 2 15 16
M  V30 16 1 15 17
M  V30 17 2 17 18
M  V30 18 1 18 19
M  V30 19 2 19 20
M  V30 20 1 20 21
M  V30 21 2 21 22
M  V30 22 1 22 23
M  V30 23 1 23 24
M  V30 24 2 24 25
M  V30 25 1 25 26
M  V30 26 2 26 27
M  V30 27 1 27 28
M  V30 28 1 28 29
M  V30 29 1 29 30
M  V30 30 2 29 31
M  V30 31 2 29 32
M  V30 32 1 27 33
M  V30 33 2 33 34
M  V30 34 1 22 35
M  V30 35 2 35 36
M  V30 36 1 17 37
M  V30 37 1 37 38
M  V30 38 2 38 39
M  V30 39 1 13 40
M  V30 40 2 40 41
M  V30 41 1 5 42
M  V30 42 1 42 43
M  V30 43 1 43 2
M  V30 44 1 41 10
M  V30 45 1 38 14
M  V30 46 1 36 19
M  V30 47 1 34 24
M  V30 48 1 1 44
M  V30 49 1 1 45
M  V30 50 1 1 46
M  V30 51 1 3 47
M  V30 52 1 3 48
M  V30 53 1 4 49
M  V30 54 1 4 50
M  V30 55 1 6 51
M  V30 56 1 6 52
M  V30 57 1 7 53
M  V30 58 1 7 54
M  V30 59 1 8 55
M  V30 60 1 8 56
M  V30 61 1 11 57
M  V30 62 1 12 58
M  V30 63 1 18 59
M  V30 64 1 20 60
M  V30 65 1 21 61
M  V30 66 1 25 62
M  V30 67 1 26 63
M  V30 68 1 28 64
M  V30 69 1 30 65
M  V30 70 1 30 66
M  V30 71 1 30 67
M  V30 72 1 33 68
M  V30 73 1 34 69
M  V30 74 1 35 70
M  V30 75 1 36 71
M  V30 76 1 40 72
M  V30 77 1 41 73
M  V30 78 1 42 74
M  V30 79 1 42 75
M  V30 80 1 43 76
M  V30 81 1 43 77
M  V30 END BOND
M  V30 END CTAB
M  END
>  <Dataset>  (20) 
ChEMBL_Kinases

>  <Ligand_Instance>  (20) 
nan

>  <PDB_ID>  (20) 
nan

>  <Standardized_SMILES>  (20) 
CN1CCN(CCCOc2ccc(N3C(=O)/C(=C/c4ccc(Oc5ccc(NS(C)(=O)=O)cc5)cc4)SC3=S)cc2)CC1

>  <Name>  (20) 
nan

>  <Pocket>  (20) 
nan

>  <ATP_Site>  (20) 
nan

>  <Peripheral>  (20) 
nan

>  <Num_H_Atoms_ProtBoundConf>  (20) 
nan

>  <Num_Resolved_Atoms>  (20) 
nan

>  <Num_Not_Resolved_Atoms>  (20) 
nan

$$$$
CHEMBL3353354
     RDKit          3D

  0  0  0  0  0  0  0  0  0  0999 V3000
M  V30 BEGIN CTAB
M  V30 COUNTS 64 70 0 0 0
M  V30 BEGIN ATOM
M  V30 1 O 5.097015 5.477126 4.251654 0
M  V30 2 C 5.242771 4.214329 4.209368 0
M  V30 3 N 6.019352 3.433250 5.107431 0
M  V30 4 C 5.899290 2.098046 4.616224 0
M  V30 5 C 6.537073 1.020850 5.197427 0
M  V30 6 C 6.377660 -0.219488 4.620922 0
M  V30 7 C 5.610261 -0.417443 3.494915 0
M  V30 8 C 5.018755 0.720444 2.996739 0
M  V30 9 C 5.100636 2.025396 3.484677 0
M  V30 10 C 4.602496 3.347671 3.183195 0 CFG=2
M  V30 11 C 4.872671 3.746816 1.709422 0
M  V30 12 C 3.513396 3.798471 2.367575 0 CFG=1
M  V30 13 C 2.407573 3.055031 1.796907 0
M  V30 14 C 1.824731 1.847572 2.107950 0
M  V30 15 C 0.775532 1.268076 1.434083 0
M  V30 16 C 0.251974 1.938218 0.356433 0
M  V30 17 C -0.785633 1.583827 -0.480193 0
M  V30 18 C -1.580873 0.365055 -0.390649 0
M  V30 19 C -2.563480 0.088698 -1.230052 0
M  V30 20 C -3.400825 -1.103836 -1.206002 0
M  V30 21 C -3.231574 -2.096681 -0.265518 0
M  V30 22 C -4.080606 -3.186898 -0.330319 0
M  V30 23 C -5.101444 -3.378132 -1.266706 0
M  V30 24 C -5.940110 -4.571223 -1.232473 0
M  V30 25 N -5.495797 -5.702596 -1.968703 0
M  V30 26 C -5.362978 -5.507547 -3.358563 0
M  V30 27 C -3.937444 -5.515657 -3.856508 0
M  V30 28 O -3.219743 -6.596693 -3.292899 0
M  V30 29 C -3.078211 -6.235525 -1.941218 0
M  V30 30 C -4.436356 -6.376061 -1.305017 0
M  V30 31 C -5.199646 -2.339285 -2.166606 0
M  V30 32 C -4.387674 -1.226418 -2.158524 0
M  V30 33 N -0.876667 2.592958 -1.358004 0
M  V30 34 N 0.037984 3.536396 -1.108473 0
M  V30 35 C 0.760336 3.157798 -0.042509 0
M  V30 36 C 1.811782 3.669774 0.685411 0
M  V30 37 H 6.534660 3.824851 5.923286 0
M  V30 38 H 7.160851 1.063367 6.078150 0
M  V30 39 H 6.864073 -1.084011 5.052452 0
M  V30 40 H 5.460741 -1.367016 3.015393 0
M  V30 41 H 4.405850 0.574886 2.094657 0
M  V30 42 H 5.104693 2.966651 0.985278 0
M  V30 43 H 5.494071 4.651047 1.591817 0
M  V30 44 H 3.238457 4.902778 2.512151 0
M  V30 45 H 2.266516 1.369882 2.969030 0
M  V30 46 H 0.425129 0.310774 1.798408 0
M  V30 47 H -1.368369 -0.350701 0.390268 0
M  V30 48 H -2.710614 0.854372 -1.980473 0
M  V30 49 H -2.470751 -2.039847 0.498123 0
M  V30 50 H -3.915564 -3.941845 0.425114 0
M  V30 51 H -6.986289 -4.266887 -1.540778 0
M  V30 52 H -6.074976 -4.829777 -0.139806 0
M  V30 53 H -5.844751 -6.393197 -3.878987 0
M  V30 54 H -5.869627 -4.615372 -3.713544 0
M  V30 55 H -3.396851 -4.600740 -3.542790 0
M  V30 56 H -3.863396 -5.604387 -4.941005 0
M  V30 57 H -2.758006 -5.180038 -1.945880 0
M  V30 58 H -2.361021 -6.892584 -1.433113 0
M  V30 59 H -4.674049 -7.481170 -1.378594 0
M  V30 60 H -4.393555 -6.191435 -0.214006 0
M  V30 61 H -5.958802 -2.381442 -2.931382 0
M  V30 62 H -4.515088 -0.454561 -2.885318 0
M  V30 63 H 0.189197 4.421418 -1.630820 0
M  V30 64 H 2.145711 4.637286 0.294690 0
M  V30 END ATOM
M  V30 BEGIN BOND
M  V30 1 2 1 2
M  V30 2 1 2 3
M  V30 3 1 3 4
M  V30 4 2 4 5
M  V30 5 1 5 6
M  V30 6 2 6 7
M  V30 7 1 7 8
M  V30 8 2 8 9
M  V30 9 1 9 10
M  V30 10 1 10 11 CFG=3
M  V30 11 1 11 12
M  V30 12 1 12 13
M  V30 13 2 13 14
M  V30 14 1 14 15
M  V30 15 2 15 16
M  V30 16 1 16 17
M  V30 17 1 17 18
M  V30 18 2 18 19
M  V30 19 1 19 20
M  V30 20 2 20 21
M  V30 21 1 21 22
M  V30 22 2 22 23
M  V30 23 1 23 24
M  V30 24 1 24 25
M  V30 25 1 25 26
M  V30 26 1 26 27
M  V30 27 1 27 28
M  V30 28 1 28 29
M  V30 29 1 29 30
M  V30 30 1 23 31
M  V30 31 2 31 32
M  V30 32 2 17 33
M  V30 33 1 33 34
M  V30 34 1 34 35
M  V30 35 2 35 36
M  V30 36 1 10 2
M  V30 37 1 36 13
M  V30 38 1 9 4
M  V30 39 1 12 10
M  V30 40 1 35 16
M  V30 41 1 32 20
M  V30 42 1 30 25
M  V30 43 1 3 37
M  V30 44 1 5 38
M  V30 45 1 6 39
M  V30 46 1 7 40
M  V30 47 1 8 41
M  V30 48 1 11 42
M  V30 49 1 11 43
M  V30 50 1 12 44 CFG=1
M  V30 51 1 14 45
M  V30 52 1 15 46
M  V30 53 1 18 47
M  V30 54 1 19 48
M  V30 55 1 21 49
M  V30 56 1 22 50
M  V30 57 1 24 51
M  V30 58 1 24 52
M  V30 59 1 26 53
M  V30 60 1 26 54
M  V30 61 1 27 55
M  V30 62 1 27 56
M  V30 63 1 29 57
M  V30 64 1 29 58
M  V30 65 1 30 59
M  V30 66 1 30 60
M  V30 67 1 31 61
M  V30 68 1 32 62
M  V30 69 1 34 63
M  V30 70 1 36 64
M  V30 END BOND
M  V30 END CTAB
M  END
>  <Dataset>  (21) 
ChEMBL_Kinases

>  <Ligand_Instance>  (21) 
nan

>  <PDB_ID>  (21) 
nan

>  <Standardized_SMILES>  (21) 
O=C1Nc2ccccc2[C@]12C[C@H]2c1ccc2c(/C=C/c3ccc(CN4CCOCC4)cc3)n[nH]c2c1

>  <Name>  (21) 
nan

>  <Pocket>  (21) 
nan

>  <ATP_Site>  (21) 
nan

>  <Peripheral>  (21) 
nan

>  <Num_H_Atoms_ProtBoundConf>  (21) 
nan

>  <Num_Resolved_Atoms>  (21) 
nan

>  <Num_Not_Resolved_Atoms>  (21) 
nan

$$$$
CHEMBL3343310
     RDKit          3D

  0  0  0  0  0  0  0  0  0  0999 V3000
M  V30 BEGIN CTAB
M  V30 COUNTS 72 76 0 0 0
M  V30 BEGIN ATOM
M  V30 1 O 3.074809 2.959432 3.547772 0
M  V30 2 C 4.035956 3.663853 3.139741 0
M  V30 3 N 5.354734 3.525192 3.589782 0
M  V30 4 C 5.818347 2.527184 4.563175 0
M  V30 5 C 5.933433 1.260522 3.752619 0
M  V30 6 C 7.153120 1.061791 3.117861 0
M  V30 7 C 7.386292 -0.077564 2.329836 0
M  V30 8 C 6.376323 -1.020819 2.183390 0
M  V30 9 C 5.161003 -0.811554 2.822236 0
M  V30 10 C 4.975884 0.309943 3.580336 0
M  V30 11 N 3.564784 4.597654 2.167013 0
M  V30 12 C 2.141192 4.398675 2.012223 0
M  V30 13 C 1.085920 5.082223 2.566452 0
M  V30 14 C -0.191146 4.657641 2.298740 0
M  V30 15 C -0.431295 3.566523 1.488862 0
M  V30 16 N -1.827915 3.281263 1.340450 0
M  V30 17 C -2.117204 1.877220 1.270203 0
M  V30 18 N -2.224682 1.445374 2.558302 0
M  V30 19 C -2.496314 0.109925 2.689836 0
M  V30 20 N -2.659517 -0.776937 1.651300 0
M  V30 21 C -2.540425 -0.275092 0.391799 0
M  V30 22 C -2.665547 -0.977700 -0.764257 0
M  V30 23 C -2.555581 -0.541402 -2.046144 0
M  V30 24 O -2.661872 -1.168594 -3.230136 0
M  V30 25 C -2.914704 -2.493676 -3.573850 0
M  V30 26 C -1.887987 -3.484083 -3.109108 0
M  V30 27 C -2.236993 -4.901707 -3.507338 0
M  V30 28 N -3.481568 -5.346241 -2.976431 0
M  V30 29 C -3.812540 -6.689202 -3.331750 0
M  V30 30 C -4.964431 -7.160738 -2.497547 0
M  V30 31 C -5.932025 -6.016270 -2.172644 0
M  V30 32 C -5.189775 -4.949603 -1.382215 0
M  V30 33 C -3.681008 -5.173297 -1.569743 0
M  V30 34 C -2.275762 0.834028 -2.151415 0
M  V30 35 C -2.118891 1.695042 -1.076316 0
M  V30 36 C -2.262997 1.078421 0.163929 0
M  V30 37 C 0.622426 2.883981 0.933254 0
M  V30 38 C 1.922982 3.295736 1.191132 0
M  V30 39 H 6.051617 4.204961 3.181007 0
M  V30 40 H 5.037716 2.339712 5.341129 0
M  V30 41 H 6.801169 2.773220 4.934472 0
M  V30 42 H 8.005667 1.744521 3.173147 0
M  V30 43 H 8.335836 -0.236683 1.838910 0
M  V30 44 H 6.620867 -1.885290 1.554346 0
M  V30 45 H 4.427081 -1.570601 2.670016 0
M  V30 46 H 4.034495 0.470578 4.084420 0
M  V30 47 H 4.294932 5.248729 1.743579 0
M  V30 48 H 1.430051 5.912108 3.175778 0
M  V30 49 H -0.946491 5.274860 2.794554 0
M  V30 50 H -2.556259 3.996516 1.286512 0
M  V30 51 H -2.607472 -0.405600 3.652680 0
M  V30 52 H -2.896284 -2.028314 -0.634994 0
M  V30 53 H -3.953194 -2.817253 -3.308122 0
M  V30 54 H -2.897075 -2.522827 -4.715886 0
M  V30 55 H -1.675247 -3.349577 -2.062066 0
M  V30 56 H -0.911278 -3.273858 -3.646031 0
M  V30 57 H -2.313666 -4.920922 -4.616084 0
M  V30 58 H -1.420886 -5.609799 -3.256523 0
M  V30 59 H -2.932129 -7.329500 -3.064767 0
M  V30 60 H -3.959795 -6.845988 -4.420579 0
M  V30 61 H -4.655317 -7.661895 -1.545602 0
M  V30 62 H -5.555364 -7.940046 -3.039408 0
M  V30 63 H -6.225107 -5.571162 -3.136635 0
M  V30 64 H -6.769721 -6.412825 -1.586633 0
M  V30 65 H -5.422762 -3.952622 -1.799610 0
M  V30 66 H -5.418391 -5.029364 -0.316589 0
M  V30 67 H -3.093663 -4.403131 -1.079124 0
M  V30 68 H -3.389585 -6.142697 -1.074633 0
M  V30 69 H -2.155752 1.330700 -3.115462 0
M  V30 70 H -1.905995 2.736101 -1.113637 0
M  V30 71 H 0.365662 2.038130 0.313129 0
M  V30 72 H 2.661588 2.674540 0.697991 0
M  V30 END ATOM
M  V30 BEGIN BOND
M  V30 1 2 1 2
M  V30 2 1 2 3
M  V30 3 1 3 4
M  V30 4 1 4 5
M  V30 5 2 5 6
M  V30 6 1 6 7
M  V30 7 2 7 8
M  V30 8 1 8 9
M  V30 9 2 9 10
M  V30 10 1 2 11
M  V30 11 1 11 12
M  V30 12 2 12 13
M  V30 13 1 13 14
M  V30 14 2 14 15
M  V30 15 1 15 16
M  V30 16 1 16 17
M  V30 17 2 17 18
M  V30 18 1 18 19
M  V30 19 2 19 20
M  V30 20 1 20 21
M  V30 21 2 21 22
M  V30 22 1 22 23
M  V30 23 1 23 24
M  V30 24 1 24 25
M  V30 25 1 25 26
M  V30 26 1 26 27
M  V30 27 1 27 28
M  V30 28 1 28 29
M  V30 29 1 29 30
M  V30 30 1 30 31
M  V30 31 1 31 32
M  V30 32 1 32 33
M  V30 33 2 23 34
M  V30 34 1 34 35
M  V30 35 2 35 36
M  V30 36 1 15 37
M  V30 37 2 37 38
M  V30 38 1 10 5
M  V30 39 1 38 12
M  V30 40 1 36 17
M  V30 41 1 36 21
M  V30 42 1 33 28
M  V30 43 1 3 39
M  V30 44 1 4 40
M  V30 45 1 4 41
M  V30 46 1 6 42
M  V30 47 1 7 43
M  V30 48 1 8 44
M  V30 49 1 9 45
M  V30 50 1 10 46
M  V30 51 1 11 47
M  V30 52 1 13 48
M  V30 53 1 14 49
M  V30 54 1 16 50
M  V30 55 1 19 51
M  V30 56 1 22 52
M  V30 57 1 25 53
M  V30 58 1 25 54
M  V30 59 1 26 55
M  V30 60 1 26 56
M  V30 61 1 27 57
M  V30 62 1 27 58
M  V30 63 1 29 59
M  V30 64 1 29 60
M  V30 65 1 30 61
M  V30 66 1 30 62
M  V30 67 1 31 63
M  V30 68 1 31 64
M  V30 69 1 32 65
M  V30 70 1 32 66
M  V30 71 1 33 67
M  V30 72 1 33 68
M  V30 73 1 34 69
M  V30 74 1 35 70
M  V30 75 1 37 71
M  V30 76 1 38 72
M  V30 END BOND
M  V30 END CTAB
M  END
>  <Dataset>  (22) 
ChEMBL_Kinases

>  <Ligand_Instance>  (22) 
nan

>  <PDB_ID>  (22) 
nan

>  <Standardized_SMILES>  (22) 
O=C(NCc1ccccc1)Nc1ccc(Nc2ncnc3cc(OCCCN4CCCCC4)ccc23)cc1

>  <Name>  (22) 
nan

>  <Pocket>  (22) 
nan

>  <ATP_Site>  (22) 
nan

>  <Peripheral>  (22) 
nan

>  <Num_H_Atoms_ProtBoundConf>  (22) 
nan

>  <Num_Resolved_Atoms>  (22) 
nan

>  <Num_Not_Resolved_Atoms>  (22) 
nan

$$$$
CHEMBL3353358
     RDKit          3D

  0  0  0  0  0  0  0  0  0  0999 V3000
M  V30 BEGIN CTAB
M  V30 COUNTS 68 74 0 0 0
M  V30 BEGIN ATOM
M  V30 1 C -0.924628 4.611967 2.416905 0
M  V30 2 O -0.395261 5.835446 1.956014 0
M  V30 3 C 0.944680 6.051973 1.715101 0
M  V30 4 C 1.461801 7.248467 1.264371 0
M  V30 5 C 2.806724 7.440852 1.031154 0
M  V30 6 C 3.663689 6.382638 1.261991 0
M  V30 7 C 3.261020 5.136883 1.712388 0
M  V30 8 C 1.878095 5.058205 1.914987 0
M  V30 9 C 4.401377 4.269902 1.834534 0 CFG=1
M  V30 10 C 4.502259 3.707509 3.290843 0
M  V30 11 C 4.592551 2.876395 2.029727 0 CFG=1
M  V30 12 C 3.677331 1.757651 1.822645 0
M  V30 13 C 2.495164 1.666413 1.118431 0
M  V30 14 C 1.722489 0.530561 1.032323 0
M  V30 15 C 2.141359 -0.606510 1.687720 0
M  V30 16 C 1.583930 -1.850591 1.773462 0
M  V30 17 C 0.340286 -2.288533 1.151352 0
M  V30 18 C -0.146325 -3.505375 1.278453 0
M  V30 19 C -1.375533 -4.028918 0.695807 0
M  V30 20 C -1.756391 -5.343963 0.928191 0
M  V30 21 C -2.921208 -5.832913 0.374542 0
M  V30 22 F -3.280156 -7.128349 0.614089 0
M  V30 23 C -3.760374 -5.080056 -0.420010 0
M  V30 24 C -5.003376 -5.569212 -1.020720 0
M  V30 25 N -4.844963 -6.423382 -2.158532 0
M  V30 26 C -6.110644 -6.861996 -2.706420 0
M  V30 27 C -5.794124 -7.443570 -4.081326 0
M  V30 28 O -4.524245 -8.031378 -4.086156 0
M  V30 29 C -3.527716 -7.058533 -4.042735 0
M  V30 30 C -4.047082 -5.887485 -3.218435 0
M  V30 31 C -3.338004 -3.783374 -0.620026 0
M  V30 32 F -4.129792 -2.992402 -1.399218 0
M  V30 33 C -2.185116 -3.240298 -0.093061 0
M  V30 34 N 2.417631 -2.575197 2.543837 0
M  V30 35 N 3.447702 -1.844503 2.930473 0
M  V30 36 C 3.315889 -0.612018 2.420136 0
M  V30 37 C 4.036809 0.559333 2.461994 0
M  V30 38 C 5.531150 5.170323 1.471436 0
M  V30 39 O 6.732292 4.778827 1.514539 0
M  V30 40 N 5.073746 6.462167 1.091274 0
M  V30 41 H -0.469816 3.799318 1.802558 0
M  V30 42 H -2.009950 4.557011 2.358728 0
M  V30 43 H -0.553745 4.449752 3.450210 0
M  V30 44 H 0.764474 8.057348 1.093295 0
M  V30 45 H 3.101290 8.415866 0.679956 0
M  V30 46 H 1.483153 4.115490 2.273110 0
M  V30 47 H 5.380202 3.988817 3.865104 0
M  V30 48 H 3.566914 3.561944 3.844695 0
M  V30 49 H 5.680607 2.529752 1.923003 0
M  V30 50 H 2.205831 2.555346 0.616265 0
M  V30 51 H 0.821644 0.566111 0.459702 0
M  V30 52 H -0.231490 -1.597033 0.549471 0
M  V30 53 H 0.465864 -4.165572 1.894140 0
M  V30 54 H -1.139560 -6.009479 1.551898 0
M  V30 55 H -5.602930 -4.677929 -1.355588 0
M  V30 56 H -5.635204 -6.085583 -0.267084 0
M  V30 57 H -6.772733 -5.985083 -2.903956 0
M  V30 58 H -6.628790 -7.614700 -2.087085 0
M  V30 59 H -6.526703 -8.203844 -4.397822 0
M  V30 60 H -5.788282 -6.656099 -4.873031 0
M  V30 61 H -2.620411 -7.520149 -3.622322 0
M  V30 62 H -3.316853 -6.650446 -5.066054 0
M  V30 63 H -3.209544 -5.240029 -2.890678 0
M  V30 64 H -4.658596 -5.259708 -3.897530 0
M  V30 65 H -1.958097 -2.210678 -0.319734 0
M  V30 66 H 4.228498 -2.168360 3.528461 0
M  V30 67 H 4.951966 0.476075 3.059879 0
M  V30 68 H 5.691997 7.234043 0.773096 0
M  V30 END ATOM
M  V30 BEGIN BOND
M  V30 1 1 1 2
M  V30 2 1 2 3
M  V30 3 2 3 4
M  V30 4 1 4 5
M  V30 5 2 5 6
M  V30 6 1 6 7
M  V30 7 2 7 8
M  V30 8 1 7 9
M  V30 9 1 9 10 CFG=1
M  V30 10 1 10 11
M  V30 11 1 11 12
M  V30 12 2 12 13
M  V30 13 1 13 14
M  V30 14 2 14 15
M  V30 15 1 15 16
M  V30 16 1 16 17
M  V30 17 2 17 18
M  V30 18 1 18 19
M  V30 19 2 19 20
M  V30 20 1 20 21
M  V30 21 1 21 22
M  V30 22 2 21 23
M  V30 23 1 23 24
M  V30 24 1 24 25
M  V30 25 1 25 26
M  V30 26 1 26 27
M  V30 27 1 27 28
M  V30 28 1 28 29
M  V30 29 1 29 30
M  V30 30 1 23 31
M  V30 31 1 31 32
M  V30 32 2 31 33
M  V30 33 2 16 34
M  V30 34 1 34 35
M  V30 35 1 35 36
M  V30 36 2 36 37
M  V30 37 1 9 38
M  V30 38 2 38 39
M  V30 39 1 38 40
M  V30 40 1 8 3
M  V30 41 1 11 9
M  V30 42 1 37 12
M  V30 43 1 40 6
M  V30 44 1 36 15
M  V30 45 1 33 19
M  V30 46 1 30 25
M  V30 47 1 1 41
M  V30 48 1 1 42
M  V30 49 1 1 43
M  V30 50 1 4 44
M  V30 51 1 5 45
M  V30 52 1 8 46
M  V30 53 1 10 47
M  V30 54 1 10 48
M  V30 55 1 11 49 CFG=3
M  V30 56 1 13 50
M  V30 57 1 14 51
M  V30 58 1 17 52
M  V30 59 1 18 53
M  V30 60 1 20 54
M  V30 61 1 24 55
M  V30 62 1 24 56
M  V30 63 1 26 57
M  V30 64 1 26 58
M  V30 65 1 27 59
M  V30 66 1 27 60
M  V30 67 1 29 61
M  V30 68 1 29 62
M  V30 69 1 30 63
M  V30 70 1 30 64
M  V30 71 1 33 65
M  V30 72 1 35 66
M  V30 73 1 37 67
M  V30 74 1 40 68
M  V30 END BOND
M  V30 END CTAB
M  END
>  <Dataset>  (23) 
ChEMBL_Kinases

>  <Ligand_Instance>  (23) 
nan

>  <PDB_ID>  (23) 
nan

>  <Standardized_SMILES>  (23) 
COc1ccc2c(c1)[C@]1(C[C@H]1c1ccc3c(/C=C/c4cc(F)c(CN5CCOCC5)c(F)c4)n[nH]c3c1)C(=O)N2

>  <Name>  (23) 
nan

>  <Pocket>  (23) 
nan

>  <ATP_Site>  (23) 
nan

>  <Peripheral>  (23) 
nan

>  <Num_H_Atoms_ProtBoundConf>  (23) 
nan

>  <Num_Resolved_Atoms>  (23) 
nan

>  <Num_Not_Resolved_Atoms>  (23) 
nan

$$$$
CHEMBL3353359
     RDKit          3D

  0  0  0  0  0  0  0  0  0  0999 V3000
M  V30 BEGIN CTAB
M  V30 COUNTS 68 74 0 0 0
M  V30 BEGIN ATOM
M  V30 1 C 5.956676 2.162045 5.550296 0
M  V30 2 N 5.777200 2.877050 4.334111 0
M  V30 3 C 4.947180 4.036365 4.394024 0
M  V30 4 C 4.519244 4.408958 2.982422 0
M  V30 5 N 5.335613 3.815361 1.994463 0
M  V30 6 C 4.927351 3.870288 0.647618 0
M  V30 7 C 3.625335 3.117836 0.510857 0
M  V30 8 C 3.842448 1.771752 0.252567 0
M  V30 9 C 2.829291 0.843081 0.099391 0
M  V30 10 C 1.561496 1.324716 0.219680 0
M  V30 11 C 0.234043 0.671040 0.172490 0
M  V30 12 C -0.987100 0.761693 0.200475 0
M  V30 13 C -2.112032 -0.119684 0.122040 0
M  V30 14 N -3.355221 0.396614 0.275865 0
M  V30 15 N -4.252807 -0.542402 0.148415 0
M  V30 16 C -3.684870 -1.731654 -0.094877 0
M  V30 17 C -4.192400 -2.987979 -0.306121 0
M  V30 18 C -3.314571 -4.012722 -0.541279 0
M  V30 19 C -3.484889 -5.455709 -0.823896 0 CFG=2
M  V30 20 C -3.094618 -5.864603 -2.219697 0
M  V30 21 C -4.472194 -6.083682 -1.669059 0 CFG=1
M  V30 22 C -4.874669 -7.513163 -1.365351 0
M  V30 23 O -4.073880 -8.309155 -0.802060 0
M  V30 24 N -6.208138 -7.652694 -1.831178 0
M  V30 25 C -6.654795 -6.432757 -2.410351 0
M  V30 26 C -7.894445 -6.224821 -2.971333 0
M  V30 27 C -8.166252 -4.984463 -3.505539 0
M  V30 28 C -7.207770 -3.991878 -3.467914 0
M  V30 29 C -5.998725 -4.279162 -2.891040 0
M  V30 30 C -5.628321 -5.492961 -2.327276 0
M  V30 31 C -1.934696 -3.737118 -0.556957 0
M  V30 32 C -1.418939 -2.447487 -0.340880 0
M  V30 33 C -2.337063 -1.452448 -0.108935 0
M  V30 34 C 1.310248 2.653781 0.475310 0
M  V30 35 C 2.339069 3.598093 0.629388 0
M  V30 36 C 6.718237 3.837671 2.299248 0
M  V30 37 C 7.015665 3.111275 3.611655 0
M  V30 38 H 4.986592 1.988676 6.042279 0
M  V30 39 H 6.392895 1.153953 5.320867 0
M  V30 40 H 6.673549 2.658166 6.228384 0
M  V30 41 H 4.038062 3.804796 4.973816 0
M  V30 42 H 5.474711 4.870732 4.892975 0
M  V30 43 H 4.431356 5.512189 2.887415 0
M  V30 44 H 3.485684 4.026155 2.849012 0
M  V30 45 H 4.749126 4.956676 0.387345 0
M  V30 46 H 5.692875 3.505467 -0.033543 0
M  V30 47 H 4.831177 1.294545 0.138907 0
M  V30 48 H 2.870477 -0.212222 -0.101225 0
M  V30 49 H 0.557962 -0.380440 0.070872 0
M  V30 50 H -1.106705 1.841366 0.313509 0
M  V30 51 H -5.279256 -0.416743 0.220717 0
M  V30 52 H -5.205632 -3.280631 -0.306347 0
M  V30 53 H -2.950077 -6.155872 -0.084208 0
M  V30 54 H -2.488551 -6.771210 -2.387907 0
M  V30 55 H -3.040181 -5.123607 -3.025384 0
M  V30 56 H -6.673168 -8.586069 -1.695841 0
M  V30 57 H -8.681759 -6.940530 -3.039695 0
M  V30 58 H -9.119228 -4.759006 -3.960129 0
M  V30 59 H -7.437092 -3.033821 -3.887289 0
M  V30 60 H -5.292973 -3.475762 -2.891372 0
M  V30 61 H -1.133511 -4.457983 -0.729189 0
M  V30 62 H -0.380011 -2.252082 -0.358113 0
M  V30 63 H 0.378337 3.225258 0.605229 0
M  V30 64 H 2.300473 4.651534 0.829629 0
M  V30 65 H 7.276108 3.333776 1.497679 0
M  V30 66 H 7.033431 4.915428 2.409400 0
M  V30 67 H 7.626713 3.797435 4.225776 0
M  V30 68 H 7.580690 2.187888 3.454625 0
M  V30 END ATOM
M  V30 BEGIN BOND
M  V30 1 1 1 2
M  V30 2 1 2 3
M  V30 3 1 3 4
M  V30 4 1 4 5
M  V30 5 1 5 6
M  V30 6 1 6 7
M  V30 7 2 7 8
M  V30 8 1 8 9
M  V30 9 2 9 10
M  V30 10 1 10 11
M  V30 11 2 11 12
M  V30 12 1 12 13
M  V30 13 2 13 14
M  V30 14 1 14 15
M  V30 15 1 15 16
M  V30 16 2 16 17
M  V30 17 1 17 18
M  V30 18 1 18 19
M  V30 19 1 19 20
M  V30 20 1 21 20 CFG=3
M  V30 21 1 21 22
M  V30 22 2 22 23
M  V30 23 1 22 24
M  V30 24 1 24 25
M  V30 25 2 25 26
M  V30 26 1 26 27
M  V30 27 2 27 28
M  V30 28 1 28 29
M  V30 29 2 29 30
M  V30 30 2 18 31
M  V30 31 1 31 32
M  V30 32 2 32 33
M  V30 33 1 10 34
M  V30 34 2 34 35
M  V30 35 1 5 36
M  V30 36 1 36 37
M  V30 37 1 37 2
M  V30 38 1 35 7
M  V30 39 1 33 13
M  V30 40 1 33 16
M  V30 41 1 21 19
M  V30 42 1 30 25
M  V30 43 1 30 21
M  V30 44 1 1 38
M  V30 45 1 1 39
M  V30 46 1 1 40
M  V30 47 1 3 41
M  V30 48 1 3 42
M  V30 49 1 4 43
M  V30 50 1 4 44
M  V30 51 1 6 45
M  V30 52 1 6 46
M  V30 53 1 8 47
M  V30 54 1 9 48
M  V30 55 1 11 49
M  V30 56 1 12 50
M  V30 57 1 15 51
M  V30 58 1 17 52
M  V30 59 1 19 53 CFG=1
M  V30 60 1 20 54
M  V30 61 1 20 55
M  V30 62 1 24 56
M  V30 63 1 26 57
M  V30 64 1 27 58
M  V30 65 1 28 59
M  V30 66 1 29 60
M  V30 67 1 31 61
M  V30 68 1 32 62
M  V30 69 1 34 63
M  V30 70 1 35 64
M  V30 71 1 36 65
M  V30 72 1 36 66
M  V30 73 1 37 67
M  V30 74 1 37 68
M  V30 END BOND
M  V30 END CTAB
M  END
>  <Dataset>  (24) 
ChEMBL_Kinases

>  <Ligand_Instance>  (24) 
nan

>  <PDB_ID>  (24) 
nan

>  <Standardized_SMILES>  (24) 
CN1CCN(Cc2ccc(/C=C/c3n[nH]c4cc([C@@H]5C[C@@]56C(=O)Nc5ccccc56)ccc34)cc2)CC1

>  <Name>  (24) 
nan

>  <Pocket>  (24) 
nan

>  <ATP_Site>  (24) 
nan

>  <Peripheral>  (24) 
nan

>  <Num_H_Atoms_ProtBoundConf>  (24) 
nan

>  <Num_Resolved_Atoms>  (24) 
nan

>  <Num_Not_Resolved_Atoms>  (24) 
nan

$$$$
CHEMBL3770186
     RDKit          3D

  0  0  0  0  0  0  0  0  0  0999 V3000
M  V30 BEGIN CTAB
M  V30 COUNTS 69 73 0 0 0
M  V30 BEGIN ATOM
M  V30 1 C 3.807536 -0.271674 -0.986479 0
M  V30 2 C 2.363734 -0.662567 -1.009930 0
M  V30 3 N 1.652427 -0.405867 0.223498 0
M  V30 4 C 1.100672 0.815322 0.283084 0
M  V30 5 O 1.188856 1.677767 -0.612909 0
M  V30 6 C 0.385524 1.144517 1.410963 0
M  V30 7 C -0.298556 2.426310 1.581056 0
M  V30 8 C 0.351275 3.513452 2.095968 0
M  V30 9 C -0.381720 4.650850 2.184296 0
M  V30 10 C -1.665906 4.784127 1.812181 0
M  V30 11 C -2.711072 5.744951 1.715161 0
M  V30 12 C -1.951973 6.936515 2.122549 0
M  V30 13 N -2.459120 8.203620 2.244447 0
M  V30 14 C -3.778360 8.445894 1.978100 0
M  V30 15 C -4.508423 7.312584 1.589194 0
M  V30 16 C -5.929148 7.351242 1.261441 0
M  V30 17 N -3.324814 6.868117 1.783592 0
M  V30 18 C -2.302100 3.623576 1.282941 0
M  V30 19 C -1.635704 2.383022 1.143949 0
M  V30 20 Cl -2.341648 0.911946 0.502067 0
M  V30 21 C 0.247488 0.227414 2.453982 0
M  V30 22 C 0.812449 -1.023774 2.392539 0
M  V30 23 C 0.788056 -2.073952 3.282908 0
M  V30 24 N 1.408301 -3.234834 3.000501 0
M  V30 25 C 2.092316 -3.453377 1.837861 0
M  V30 26 N 2.570671 -4.805316 1.953736 0
M  V30 27 C 2.073284 -6.088717 1.569836 0
M  V30 28 C 1.999191 -6.389435 0.121615 0
M  V30 29 C 1.153816 -5.515479 -0.731223 0
M  V30 30 C -0.268326 -5.515168 -0.307185 0
M  V30 31 C -1.257051 -5.066122 -1.354827 0
M  V30 32 N -0.935813 -5.681978 -2.598617 0
M  V30 33 C -1.927251 -5.546728 -3.640645 0
M  V30 34 C 0.366397 -5.198166 -3.012122 0
M  V30 35 C 1.344911 -6.024435 -2.174794 0
M  V30 36 N 2.133893 -2.449058 0.953701 0
M  V30 37 C 1.527895 -1.296813 1.215255 0
M  V30 38 H 4.011213 0.322153 -0.060441 0
M  V30 39 H 4.483845 -1.170574 -0.931104 0
M  V30 40 H 4.047362 0.260301 -1.923088 0
M  V30 41 H 2.328191 -1.766745 -1.187093 0
M  V30 42 H 1.796781 -0.247405 -1.894393 0
M  V30 43 H 1.373127 3.506284 2.421505 0
M  V30 44 H 0.013494 5.565840 2.577434 0
M  V30 45 H -0.874150 7.226915 2.431584 0
M  V30 46 H -4.277702 9.450303 2.051193 0
M  V30 47 H -6.061851 7.955597 0.313704 0
M  V30 48 H -6.378554 6.380064 1.066414 0
M  V30 49 H -6.469906 7.941031 2.046998 0
M  V30 50 H -3.339515 3.468259 0.907049 0
M  V30 51 H -0.294550 0.381988 3.398525 0
M  V30 52 H 0.223713 -1.821521 4.180800 0
M  V30 53 H 3.508202 -4.694870 2.446443 0
M  V30 54 H 2.789217 -6.845861 2.017907 0
M  V30 55 H 1.103571 -6.339094 2.078506 0
M  V30 56 H 3.056012 -6.343567 -0.292733 0
M  V30 57 H 1.706126 -7.454747 -0.038302 0
M  V30 58 H 1.542796 -4.479821 -0.759903 0
M  V30 59 H -0.352339 -4.749142 0.527655 0
M  V30 60 H -0.597798 -6.510673 0.120421 0
M  V30 61 H -1.161646 -3.942720 -1.442232 0
M  V30 62 H -2.272167 -5.336234 -0.995750 0
M  V30 63 H -1.416055 -4.997673 -4.487066 0
M  V30 64 H -2.819292 -4.993202 -3.377333 0
M  V30 65 H -2.170150 -6.556725 -4.078882 0
M  V30 66 H 0.561391 -5.243408 -4.081084 0
M  V30 67 H 0.465679 -4.163354 -2.622186 0
M  V30 68 H 0.996101 -7.067698 -2.225444 0
M  V30 69 H 2.395987 -5.857244 -2.452468 0
M  V30 END ATOM
M  V30 BEGIN BOND
M  V30 1 1 1 2
M  V30 2 1 2 3
M  V30 3 1 3 4
M  V30 4 2 4 5
M  V30 5 1 4 6
M  V30 6 1 6 7
M  V30 7 2 7 8
M  V30 8 1 8 9
M  V30 9 2 9 10
M  V30 10 1 10 11
M  V30 11 2 11 12
M  V30 12 1 12 13
M  V30 13 2 13 14
M  V30 14 1 14 15
M  V30 15 1 15 16
M  V30 16 2 15 17
M  V30 17 1 10 18
M  V30 18 2 18 19
M  V30 19 1 19 20
M  V30 20 2 6 21
M  V30 21 1 21 22
M  V30 22 2 22 23
M  V30 23 1 23 24
M  V30 24 2 24 25
M  V30 25 1 25 26
M  V30 26 1 26 27
M  V30 27 1 27 28
M  V30 28 1 28 29
M  V30 29 1 29 30
M  V30 30 1 30 31
M  V30 31 1 31 32
M  V30 32 1 32 33
M  V30 33 1 32 34
M  V30 34 1 34 35
M  V30 35 1 25 36
M  V30 36 2 36 37
M  V30 37 1 37 3
M  V30 38 1 19 7
M  V30 39 1 37 22
M  V30 40 1 17 11
M  V30 41 1 35 29
M  V30 42 1 1 38
M  V30 43 1 1 39
M  V30 44 1 1 40
M  V30 45 1 2 41
M  V30 46 1 2 42
M  V30 47 1 8 43
M  V30 48 1 9 44
M  V30 49 1 12 45
M  V30 50 1 14 46
M  V30 51 1 16 47
M  V30 52 1 16 48
M  V30 53 1 16 49
M  V30 54 1 18 50
M  V30 55 1 21 51
M  V30 56 1 23 52
M  V30 57 1 26 53
M  V30 58 1 27 54
M  V30 59 1 27 55
M  V30 60 1 28 56
M  V30 61 1 28 57
M  V30 62 1 29 58
M  V30 63 1 30 59
M  V30 64 1 30 60
M  V30 65 1 31 61
M  V30 66 1 31 62
M  V30 67 1 33 63
M  V30 68 1 33 64
M  V30 69 1 33 65
M  V30 70 1 34 66
M  V30 71 1 34 67
M  V30 72 1 35 68
M  V30 73 1 35 69
M  V30 END BOND
M  V30 END CTAB
M  END
>  <Dataset>  (25) 
ChEMBL_Kinases

>  <Ligand_Instance>  (25) 
nan

>  <PDB_ID>  (25) 
nan

>  <Standardized_SMILES>  (25) 
CCn1c(=O)c(-c2ccc(-c3cncc(C)n3)cc2Cl)cc2cnc(NCCC3CCN(C)CC3)nc21

>  <Name>  (25) 
nan

>  <Pocket>  (25) 
nan

>  <ATP_Site>  (25) 
nan

>  <Peripheral>  (25) 
nan

>  <Num_H_Atoms_ProtBoundConf>  (25) 
nan

>  <Num_Resolved_Atoms>  (25) 
nan

>  <Num_Not_Resolved_Atoms>  (25) 
nan

$$$$
CHEMBL3770730
     RDKit          3D

  0  0  0  0  0  0  0  0  0  0999 V3000
M  V30 BEGIN CTAB
M  V30 COUNTS 36 38 0 0 0
M  V30 BEGIN ATOM
M  V30 1 N -0.355916 -2.557702 3.476648 0
M  V30 2 C -0.770255 -2.447754 2.080450 0
M  V30 3 C 0.326731 -1.790749 1.343754 0
M  V30 4 O 1.293790 -1.406581 2.075443 0
M  V30 5 N 0.423569 -1.547529 -0.038873 0
M  V30 6 C 1.537783 -0.899544 -0.637949 0
M  V30 7 C 2.651767 -1.543969 -1.104922 0
M  V30 8 C 3.696659 -0.815155 -1.679455 0
M  V30 9 C 3.634799 0.557724 -1.790463 0
M  V30 10 C 4.664944 1.309183 -2.360428 0
M  V30 11 N 4.553224 2.666409 -2.446258 0
M  V30 12 C 3.478407 3.324582 -1.999562 0
M  V30 13 C 2.426820 2.615186 -1.423638 0
M  V30 14 C 2.532071 1.248949 -1.333751 0
M  V30 15 C 1.534148 0.487308 -0.778350 0
M  V30 16 C -2.051593 -1.707778 2.043910 0
M  V30 17 C -2.923173 -2.231557 3.006791 0
M  V30 18 C -4.208368 -1.703081 3.179843 0
M  V30 19 C -4.637762 -0.650903 2.398358 0
M  V30 20 C -3.764415 -0.153177 1.459613 0
M  V30 21 C -2.495945 -0.656613 1.271446 0
M  V30 22 H -0.748264 -1.745618 3.982442 0
M  V30 23 H -0.652992 -3.469316 3.889959 0
M  V30 24 H -0.957908 -3.479927 1.688149 0
M  V30 25 H -0.379028 -1.876868 -0.617925 0
M  V30 26 H 2.695293 -2.622200 -1.015203 0
M  V30 27 H 4.574655 -1.340674 -2.045636 0
M  V30 28 H 5.523972 0.759250 -2.715157 0
M  V30 29 H 3.398428 4.419201 -2.073496 0
M  V30 30 H 1.523616 3.087603 -1.039878 0
M  V30 31 H 0.643648 1.019019 -0.406710 0
M  V30 32 H -2.736631 -3.062994 3.705295 0
M  V30 33 H -4.913052 -2.076026 3.909891 0
M  V30 34 H -5.607777 -0.171196 2.451510 0
M  V30 35 H -3.953073 0.675645 0.764686 0
M  V30 36 H -1.744507 -0.340020 0.574447 0
M  V30 END ATOM
M  V30 BEGIN BOND
M  V30 1 1 1 2
M  V30 2 1 2 3
M  V30 3 2 3 4
M  V30 4 1 3 5
M  V30 5 1 5 6
M  V30 6 2 6 7
M  V30 7 1 7 8
M  V30 8 2 8 9
M  V30 9 1 9 10
M  V30 10 2 10 11
M  V30 11 1 11 12
M  V30 12 2 12 13
M  V30 13 1 13 14
M  V30 14 2 14 15
M  V30 15 1 2 16
M  V30 16 2 16 17
M  V30 17 1 17 18
M  V30 18 2 18 19
M  V30 19 1 19 20
M  V30 20 2 20 21
M  V30 21 1 15 6
M  V30 22 1 21 16
M  V30 23 1 14 9
M  V30 24 1 1 22
M  V30 25 1 1 23
M  V30 26 1 2 24
M  V30 27 1 5 25
M  V30 28 1 7 26
M  V30 29 1 8 27
M  V30 30 1 10 28
M  V30 31 1 12 29
M  V30 32 1 13 30
M  V30 33 1 15 31
M  V30 34 1 17 32
M  V30 35 1 18 33
M  V30 36 1 19 34
M  V30 37 1 20 35
M  V30 38 1 21 36
M  V30 END BOND
M  V30 END CTAB
M  END
>  <Dataset>  (26) 
ChEMBL_Kinases

>  <Ligand_Instance>  (26) 
nan

>  <PDB_ID>  (26) 
nan

>  <Standardized_SMILES>  (26) 
NC(C(=O)Nc1ccc2cnccc2c1)c1ccccc1

>  <Name>  (26) 
nan

>  <Pocket>  (26) 
nan

>  <ATP_Site>  (26) 
nan

>  <Peripheral>  (26) 
nan

>  <Num_H_Atoms_ProtBoundConf>  (26) 
nan

>  <Num_Resolved_Atoms>  (26) 
nan

>  <Num_Not_Resolved_Atoms>  (26) 
nan

$$$$
CHEMBL4160544
     RDKit          3D

  0  0  0  0  0  0  0  0  0  0999 V3000
M  V30 BEGIN CTAB
M  V30 COUNTS 68 72 0 0 0
M  V30 BEGIN ATOM
M  V30 1 C 4.859034 -3.764908 4.289363 0
M  V30 2 C 4.636592 -2.804622 3.188028 0
M  V30 3 N 4.648731 -1.477250 3.219692 0
M  V30 4 C 4.443326 -0.645812 2.200042 0
M  V30 5 N 4.536039 0.715880 2.565130 0
M  V30 6 C 4.233394 1.944226 1.926994 0
M  V30 7 C 5.077777 2.988910 1.556966 0
M  V30 8 N 4.362027 3.974952 0.998104 0
M  V30 9 N 3.070150 3.621334 0.984516 0
M  V30 10 C 2.963186 2.388638 1.545074 0
M  V30 11 C 1.724914 1.652093 1.729767 0
M  V30 12 O 1.774484 0.526791 2.278280 0
M  V30 13 N 0.459262 2.131153 1.326888 0
M  V30 14 C -0.811990 1.553202 1.433440 0
M  V30 15 C -1.918725 2.227636 0.970917 0
M  V30 16 C -3.197898 1.727231 1.042043 0
M  V30 17 C -3.448000 0.489262 1.595086 0
M  V30 18 C -4.816719 -0.061480 1.679025 0
M  V30 19 N -5.216505 -0.830645 0.542290 0
M  V30 20 C -6.588400 -1.316198 0.739379 0
M  V30 21 C -7.143197 -1.687163 -0.632352 0
M  V30 22 N -6.075251 -2.210273 -1.444490 0
M  V30 23 C -6.604420 -3.037838 -2.505222 0
M  V30 24 C -5.144788 -2.941311 -0.626896 0
M  V30 25 C -4.421503 -2.020360 0.320904 0
M  V30 26 C -2.361017 -0.225831 2.074071 0
M  V30 27 C -1.104328 0.323148 1.977212 0
M  V30 28 C 4.187064 -1.155379 0.956402 0
M  V30 29 C 3.961511 -0.498455 -0.216203 0
M  V30 30 C 3.730383 -1.154392 -1.376126 0
M  V30 31 C 3.468386 -0.869303 -2.765459 0
M  V30 32 C 2.027742 -1.230507 -3.137154 0
M  V30 33 C 4.374343 -1.662593 -3.678867 0
M  V30 34 S 3.815790 -2.886642 -0.888773 0
M  V30 35 C 4.170841 -2.547394 0.909267 0
M  V30 36 N 4.387917 -3.350037 1.988944 0
M  V30 37 H 3.892363 -4.032945 4.781238 0
M  V30 38 H 5.330872 -4.699545 3.955076 0
M  V30 39 H 5.480996 -3.308001 5.104527 0
M  V30 40 H 4.893615 1.037171 3.491219 0
M  V30 41 H 6.143207 2.960465 1.717290 0
M  V30 42 H 4.697112 4.897486 0.614152 0
M  V30 43 H 0.533235 3.082320 0.877471 0
M  V30 44 H -1.778198 3.221952 0.519160 0
M  V30 45 H -4.000838 2.326746 0.654830 0
M  V30 46 H -5.529148 0.745222 1.864288 0
M  V30 47 H -4.821266 -0.747197 2.552577 0
M  V30 48 H -7.216210 -0.561904 1.257169 0
M  V30 49 H -6.490496 -2.234887 1.355932 0
M  V30 50 H -7.903336 -2.470251 -0.520531 0
M  V30 51 H -7.518054 -0.758454 -1.120311 0
M  V30 52 H -7.653612 -3.363625 -2.274886 0
M  V30 53 H -6.546237 -2.452230 -3.449694 0
M  V30 54 H -5.968717 -3.941017 -2.612629 0
M  V30 55 H -4.409804 -3.423140 -1.320042 0
M  V30 56 H -5.712832 -3.744291 -0.100978 0
M  V30 57 H -3.378729 -1.796195 0.025814 0
M  V30 58 H -4.380612 -2.554915 1.306823 0
M  V30 59 H -2.576034 -1.179329 2.497489 0
M  V30 60 H -0.334699 -0.290980 2.367459 0
M  V30 61 H 3.942406 0.563244 -0.377612 0
M  V30 62 H 3.574517 0.234093 -2.898133 0
M  V30 63 H 1.749872 -2.229735 -2.772703 0
M  V30 64 H 1.322129 -0.448413 -2.800378 0
M  V30 65 H 1.952732 -1.246592 -4.248833 0
M  V30 66 H 5.075514 -0.958198 -4.167768 0
M  V30 67 H 4.949714 -2.431156 -3.091300 0
M  V30 68 H 3.803164 -2.262626 -4.418233 0
M  V30 END ATOM
M  V30 BEGIN BOND
M  V30 1 1 1 2
M  V30 2 2 2 3
M  V30 3 1 3 4
M  V30 4 1 4 5
M  V30 5 1 5 6
M  V30 6 2 6 7
M  V30 7 1 7 8
M  V30 8 1 8 9
M  V30 9 2 9 10
M  V30 10 1 10 11
M  V30 11 2 11 12
M  V30 12 1 11 13
M  V30 13 1 13 14
M  V30 14 2 14 15
M  V30 15 1 15 16
M  V30 16 2 16 17
M  V30 17 1 17 18
M  V30 18 1 18 19
M  V30 19 1 19 20
M  V30 20 1 20 21
M  V30 21 1 21 22
M  V30 22 1 22 23
M  V30 23 1 22 24
M  V30 24 1 24 25
M  V30 25 1 17 26
M  V30 26 2 26 27
M  V30 27 2 4 28
M  V30 28 1 28 29
M  V30 29 2 29 30
M  V30 30 1 30 31
M  V30 31 1 31 32
M  V30 32 1 31 33
M  V30 33 1 30 34
M  V30 34 1 34 35
M  V30 35 2 35 36
M  V30 36 1 36 2
M  V30 37 1 10 6
M  V30 38 1 27 14
M  V30 39 1 35 28
M  V30 40 1 25 19
M  V30 41 1 1 37
M  V30 42 1 1 38
M  V30 43 1 1 39
M  V30 44 1 5 40
M  V30 45 1 7 41
M  V30 46 1 8 42
M  V30 47 1 13 43
M  V30 48 1 15 44
M  V30 49 1 16 45
M  V30 50 1 18 46
M  V30 51 1 18 47
M  V30 52 1 20 48
M  V30 53 1 20 49
M  V30 54 1 21 50
M  V30 55 1 21 51
M  V30 56 1 23 52
M  V30 57 1 23 53
M  V30 58 1 23 54
M  V30 59 1 24 55
M  V30 60 1 24 56
M  V30 61 1 25 57
M  V30 62 1 25 58
M  V30 63 1 26 59
M  V30 64 1 27 60
M  V30 65 1 29 61
M  V30 66 1 31 62
M  V30 67 1 32 63
M  V30 68 1 32 64
M  V30 69 1 32 65
M  V30 70 1 33 66
M  V30 71 1 33 67
M  V30 72 1 33 68
M  V30 END BOND
M  V30 END CTAB
M  END
>  <Dataset>  (27) 
ChEMBL_Kinases

>  <Ligand_Instance>  (27) 
nan

>  <PDB_ID>  (27) 
nan

>  <Standardized_SMILES>  (27) 
Cc1nc(Nc2c[nH]nc2C(=O)Nc2ccc(CN3CCN(C)CC3)cc2)c2cc(C(C)C)sc2n1

>  <Name>  (27) 
nan

>  <Pocket>  (27) 
nan

>  <ATP_Site>  (27) 
nan

>  <Peripheral>  (27) 
nan

>  <Num_H_Atoms_ProtBoundConf>  (27) 
nan

>  <Num_Resolved_Atoms>  (27) 
nan

>  <Num_Not_Resolved_Atoms>  (27) 
nan

$$$$
CHEMBL3770836
     RDKit          3D

  0  0  0  0  0  0  0  0  0  0999 V3000
M  V30 BEGIN CTAB
M  V30 COUNTS 39 41 0 0 0
M  V30 BEGIN ATOM
M  V30 1 N 0.419037 -4.181966 1.435314 0
M  V30 2 C 0.933826 -3.447815 2.540818 0
M  V30 3 C 0.514090 -2.010196 2.602782 0
M  V30 4 C 0.926259 -1.229230 1.426595 0
M  V30 5 O -0.243019 -0.805744 1.136307 0
M  V30 6 N 2.143659 -0.971747 0.768965 0
M  V30 7 C 1.861103 -0.106048 -0.350350 0
M  V30 8 C 1.539965 -0.513599 -1.629975 0
M  V30 9 C 1.296250 0.427199 -2.594343 0
M  V30 10 C 1.386470 1.747190 -2.228328 0
M  V30 11 C 1.143801 2.734274 -3.188252 0
M  V30 12 N 1.214145 4.050553 -2.901289 0
M  V30 13 C 1.528756 4.480431 -1.647497 0
M  V30 14 C 1.778834 3.539174 -0.657859 0
M  V30 15 C 1.705685 2.201468 -0.956103 0
M  V30 16 C 1.948000 1.228233 0.002512 0
M  V30 17 C -0.953844 -1.835859 2.729645 0
M  V30 18 C -1.883560 -2.286854 1.802856 0
M  V30 19 C -3.240581 -2.099399 1.967312 0
M  V30 20 C -3.718694 -1.445124 3.080523 0
M  V30 21 C -2.865197 -0.977192 4.028049 0
M  V30 22 C -1.524945 -1.193021 3.810561 0
M  V30 23 H 1.170377 -4.709067 0.923533 0
M  V30 24 H -0.220563 -4.950367 1.786867 0
M  V30 25 H 0.734568 -3.946928 3.492566 0
M  V30 26 H 2.052257 -3.430704 2.440795 0
M  V30 27 H 1.031115 -1.558195 3.479001 0
M  V30 28 H 2.892259 -1.480081 1.280886 0
M  V30 29 H 1.500533 -1.568490 -1.792538 0
M  V30 30 H 1.043704 0.125416 -3.600542 0
M  V30 31 H 0.888945 2.449833 -4.203566 0
M  V30 32 H 1.585612 5.527040 -1.415633 0
M  V30 33 H 2.033204 3.837237 0.355539 0
M  V30 34 H 2.193837 1.606886 0.982407 0
M  V30 35 H -1.489469 -2.807970 0.917887 0
M  V30 36 H -3.941868 -2.469552 1.214492 0
M  V30 37 H -4.797999 -1.301799 3.200997 0
M  V30 38 H -3.176979 -0.450633 4.933203 0
M  V30 39 H -0.822608 -0.818158 4.571974 0
M  V30 END ATOM
M  V30 BEGIN BOND
M  V30 1 1 1 2
M  V30 2 1 2 3
M  V30 3 1 3 4
M  V30 4 2 4 5
M  V30 5 1 4 6
M  V30 6 1 6 7
M  V30 7 2 7 8
M  V30 8 1 8 9
M  V30 9 2 9 10
M  V30 10 1 10 11
M  V30 11 2 11 12
M  V30 12 1 12 13
M  V30 13 2 13 14
M  V30 14 1 14 15
M  V30 15 2 15 16
M  V30 16 1 3 17
M  V30 17 2 17 18
M  V30 18 1 18 19
M  V30 19 2 19 20
M  V30 20 1 20 21
M  V30 21 2 21 22
M  V30 22 1 16 7
M  V30 23 1 22 17
M  V30 24 1 15 10
M  V30 25 1 1 23
M  V30 26 1 1 24
M  V30 27 1 2 25
M  V30 28 1 2 26
M  V30 29 1 3 27
M  V30 30 1 6 28
M  V30 31 1 8 29
M  V30 32 1 9 30
M  V30 33 1 11 31
M  V30 34 1 13 32
M  V30 35 1 14 33
M  V30 36 1 16 34
M  V30 37 1 18 35
M  V30 38 1 19 36
M  V30 39 1 20 37
M  V30 40 1 21 38
M  V30 41 1 22 39
M  V30 END BOND
M  V30 END CTAB
M  END
>  <Dataset>  (28) 
ChEMBL_Kinases

>  <Ligand_Instance>  (28) 
nan

>  <PDB_ID>  (28) 
nan

>  <Standardized_SMILES>  (28) 
NCC(C(=O)Nc1ccc2cnccc2c1)c1ccccc1

>  <Name>  (28) 
nan

>  <Pocket>  (28) 
nan

>  <ATP_Site>  (28) 
nan

>  <Peripheral>  (28) 
nan

>  <Num_H_Atoms_ProtBoundConf>  (28) 
nan

>  <Num_Resolved_Atoms>  (28) 
nan

>  <Num_Not_Resolved_Atoms>  (28) 
nan

$$$$
CHEMBL3353362
     RDKit          3D

  0  0  0  0  0  0  0  0  0  0999 V3000
M  V30 BEGIN CTAB
M  V30 COUNTS 66 72 0 0 0
M  V30 BEGIN ATOM
M  V30 1 O 4.333182 5.666489 5.607648 0
M  V30 2 C 4.666419 4.862900 4.719680 0
M  V30 3 N 5.801849 4.006851 4.791437 0
M  V30 4 C 5.831804 3.298450 3.559412 0
M  V30 5 C 6.821630 2.366453 3.214996 0
M  V30 6 C 6.763550 1.763198 1.974130 0
M  V30 7 C 5.751190 2.074297 1.094489 0
M  V30 8 C 4.806248 3.001220 1.496252 0
M  V30 9 C 4.792145 3.650023 2.721812 0
M  V30 10 C 3.965032 4.631613 3.423806 0 CFG=2
M  V30 11 C 3.318474 5.738771 2.675961 0
M  V30 12 C 2.512214 4.682713 3.450306 0 CFG=1
M  V30 13 C 1.604830 3.852970 2.630076 0
M  V30 14 C 1.700221 2.502551 2.369858 0
M  V30 15 C 0.790935 1.858162 1.568033 0
M  V30 16 C -0.244501 2.552861 1.002185 0
M  V30 17 C -1.235366 2.086200 0.181847 0
M  V30 18 C -1.630664 0.830307 -0.396727 0
M  V30 19 C -1.237075 -0.400561 -0.377325 0
M  V30 20 C -1.761688 -1.583011 -1.037281 0
M  V30 21 C -2.848436 -1.606519 -1.884205 0
M  V30 22 C -3.345080 -2.734185 -2.510994 0
M  V30 23 C -2.687799 -3.921354 -2.256160 0
M  V30 24 C -3.200293 -5.141138 -2.931094 0
M  V30 25 N -4.228221 -5.817378 -2.223720 0
M  V30 26 C -4.737832 -7.002075 -2.833361 0
M  V30 27 C -4.291079 -8.282881 -2.209350 0
M  V30 28 C -3.795006 -8.138890 -0.799477 0
M  V30 29 C -4.620657 -7.054626 -0.142104 0
M  V30 30 C -4.233797 -5.758662 -0.820159 0
M  V30 31 C -1.575458 -3.959657 -1.402094 0
M  V30 32 C -1.146721 -2.790197 -0.819201 0
M  V30 33 N -1.965086 3.207466 -0.065446 0
M  V30 34 N -1.440205 4.231506 0.558456 0
M  V30 35 C -0.347315 3.900048 1.256973 0
M  V30 36 C 0.551345 4.569011 2.057179 0
M  V30 37 H 6.442522 3.957207 5.610628 0
M  V30 38 H 7.631833 2.088707 3.865345 0
M  V30 39 H 7.464189 1.032359 1.597014 0
M  V30 40 H 5.653773 1.633096 0.102276 0
M  V30 41 H 4.010151 3.240386 0.788338 0
M  V30 42 H 3.318091 6.774584 3.028845 0
M  V30 43 H 3.294346 5.641234 1.564281 0
M  V30 44 H 2.030521 5.173899 4.354179 0
M  V30 45 H 2.517833 1.983236 2.837938 0
M  V30 46 H 0.918136 0.809897 1.401021 0
M  V30 47 H -2.511343 0.813054 -1.062258 0
M  V30 48 H -0.376393 -0.525658 0.244125 0
M  V30 49 H -3.371368 -0.688649 -2.091693 0
M  V30 50 H -4.205930 -2.667861 -3.164129 0
M  V30 51 H -2.352891 -5.850185 -3.169870 0
M  V30 52 H -3.616844 -4.834874 -3.933677 0
M  V30 53 H -5.840926 -6.903339 -2.865220 0
M  V30 54 H -4.393982 -7.011682 -3.888245 0
M  V30 55 H -3.487635 -8.781441 -2.793357 0
M  V30 56 H -5.149297 -8.983941 -2.196842 0
M  V30 57 H -2.710211 -7.900214 -0.734155 0
M  V30 58 H -3.952554 -9.073197 -0.223739 0
M  V30 59 H -4.420493 -6.947310 0.933909 0
M  V30 60 H -5.681423 -7.287449 -0.362478 0
M  V30 61 H -3.256670 -5.446779 -0.409596 0
M  V30 62 H -4.990346 -5.006238 -0.458955 0
M  V30 63 H -1.070310 -4.899546 -1.213593 0
M  V30 64 H -0.280739 -2.875529 -0.165412 0
M  V30 65 H -1.873524 5.185591 0.481397 0
M  V30 66 H 0.379479 5.633415 2.195322 0
M  V30 END ATOM
M  V30 BEGIN BOND
M  V30 1 2 1 2
M  V30 2 1 2 3
M  V30 3 1 3 4
M  V30 4 2 4 5
M  V30 5 1 5 6
M  V30 6 2 6 7
M  V30 7 1 7 8
M  V30 8 2 8 9
M  V30 9 1 9 10
M  V30 10 1 10 11 CFG=3
M  V30 11 1 11 12
M  V30 12 1 12 13
M  V30 13 2 13 14
M  V30 14 1 14 15
M  V30 15 2 15 16
M  V30 16 1 16 17
M  V30 17 1 17 18
M  V30 18 2 18 19
M  V30 19 1 19 20
M  V30 20 2 20 21
M  V30 21 1 21 22
M  V30 22 2 22 23
M  V30 23 1 23 24
M  V30 24 1 24 25
M  V30 25 1 25 26
M  V30 26 1 26 27
M  V30 27 1 27 28
M  V30 28 1 28 29
M  V30 29 1 29 30
M  V30 30 1 23 31
M  V30 31 2 31 32
M  V30 32 2 17 33
M  V30 33 1 33 34
M  V30 34 1 34 35
M  V30 35 2 35 36
M  V30 36 1 10 2
M  V30 37 1 36 13
M  V30 38 1 9 4
M  V30 39 1 12 10
M  V30 40 1 35 16
M  V30 41 1 32 20
M  V30 42 1 30 25
M  V30 43 1 3 37
M  V30 44 1 5 38
M  V30 45 1 6 39
M  V30 46 1 7 40
M  V30 47 1 8 41
M  V30 48 1 11 42
M  V30 49 1 11 43
M  V30 50 1 12 44 CFG=1
M  V30 51 1 14 45
M  V30 52 1 15 46
M  V30 53 1 18 47
M  V30 54 1 19 48
M  V30 55 1 21 49
M  V30 56 1 22 50
M  V30 57 1 24 51
M  V30 58 1 24 52
M  V30 59 1 26 53
M  V30 60 1 26 54
M  V30 61 1 27 55
M  V30 62 1 27 56
M  V30 63 1 28 57
M  V30 64 1 28 58
M  V30 65 1 29 59
M  V30 66 1 29 60
M  V30 67 1 30 61
M  V30 68 1 30 62
M  V30 69 1 31 63
M  V30 70 1 32 64
M  V30 71 1 34 65
M  V30 72 1 36 66
M  V30 END BOND
M  V30 END CTAB
M  END
>  <Dataset>  (29) 
ChEMBL_Kinases

>  <Ligand_Instance>  (29) 
nan

>  <PDB_ID>  (29) 
nan

>  <Standardized_SMILES>  (29) 
O=C1Nc2ccccc2[C@]12C[C@H]2c1ccc2c(/C=C/c3ccc(CN4CCCCC4)cc3)n[nH]c2c1

>  <Name>  (29) 
nan

>  <Pocket>  (29) 
nan

>  <ATP_Site>  (29) 
nan

>  <Peripheral>  (29) 
nan

>  <Num_H_Atoms_ProtBoundConf>  (29) 
nan

>  <Num_Resolved_Atoms>  (29) 
nan

>  <Num_Not_Resolved_Atoms>  (29) 
nan

$$$$
CHEMBL3354185
     RDKit          3D

  0  0  0  0  0  0  0  0  0  0999 V3000
M  V30 BEGIN CTAB
M  V30 COUNTS 50 54 0 0 0
M  V30 BEGIN ATOM
M  V30 1 C -1.007793 -3.553516 3.176658 0
M  V30 2 O 0.347912 -3.916270 3.130502 0
M  V30 3 C 1.018277 -2.898448 2.408242 0
M  V30 4 C 1.990850 -2.242863 3.287391 0
M  V30 5 C 3.362032 -1.976083 2.730900 0
M  V30 6 N 3.166269 -1.676022 1.332660 0
M  V30 7 C 3.319248 -0.454767 0.632479 0
M  V30 8 N 3.909564 0.658048 1.089953 0
M  V30 9 C 3.991420 1.788335 0.368192 0
M  V30 10 C 3.474084 1.887461 -0.897716 0
M  V30 11 C 2.854546 0.726504 -1.382377 0
M  V30 12 N 2.185662 0.508609 -2.648061 0
M  V30 13 C 0.752165 0.551615 -2.490510 0
M  V30 14 C 0.166278 0.759939 -1.254279 0
M  V30 15 C -1.195548 0.801578 -1.021274 0
M  V30 16 N -1.982593 0.985842 0.052219 0
M  V30 17 C -3.259725 0.929064 -0.313800 0
M  V30 18 C -4.431185 1.079773 0.581323 0
M  V30 19 C -5.762661 1.033603 0.145951 0
M  V30 20 N -6.458572 1.213124 1.311151 0
M  V30 21 N -5.616151 1.347738 2.305215 0
M  V30 22 C -4.325233 1.280496 1.962259 0
M  V30 23 N -3.311647 0.705219 -1.644295 0
M  V30 24 C -2.037324 0.620422 -2.116796 0
M  V30 25 C -1.455904 0.414723 -3.341442 0
M  V30 26 N -0.099610 0.384432 -3.503487 0
M  V30 27 N 2.816202 -0.352137 -0.603622 0
M  V30 28 C 2.752184 -2.869731 0.585213 0
M  V30 29 C 1.480461 -3.425184 1.089708 0
M  V30 30 H -1.187735 -2.586853 3.675253 0
M  V30 31 H -1.406743 -3.417184 2.133147 0
M  V30 32 H -1.558646 -4.362201 3.655430 0
M  V30 33 H 0.201669 -2.163958 2.156958 0
M  V30 34 H 2.151746 -2.847739 4.229190 0
M  V30 35 H 1.596295 -1.265981 3.679062 0
M  V30 36 H 3.975167 -2.889634 2.814410 0
M  V30 37 H 3.786777 -1.099900 3.259238 0
M  V30 38 H 4.462015 2.697027 0.712536 0
M  V30 39 H 3.444672 2.686530 -1.608029 0
M  V30 40 H 2.531954 0.334374 -3.615103 0
M  V30 41 H 0.750902 0.906197 -0.362238 0
M  V30 42 H -1.591194 1.146092 1.018291 0
M  V30 43 H -6.043770 0.886086 -0.885692 0
M  V30 44 H -5.887414 1.500221 3.324826 0
M  V30 45 H -3.397867 1.347344 2.504937 0
M  V30 46 H -2.096900 0.274228 -4.199995 0
M  V30 47 H 3.573252 -3.605828 0.756560 0
M  V30 48 H 2.680297 -2.652249 -0.517705 0
M  V30 49 H 1.580385 -4.534353 1.179260 0
M  V30 50 H 0.693452 -3.305161 0.286572 0
M  V30 END ATOM
M  V30 BEGIN BOND
M  V30 1 1 1 2
M  V30 2 1 2 3
M  V30 3 1 3 4
M  V30 4 1 4 5
M  V30 5 1 5 6
M  V30 6 1 6 7
M  V30 7 2 7 8
M  V30 8 1 8 9
M  V30 9 2 9 10
M  V30 10 1 10 11
M  V30 11 1 11 12
M  V30 12 1 12 13
M  V30 13 2 13 14
M  V30 14 1 14 15
M  V30 15 1 15 16
M  V30 16 1 16 17
M  V30 17 1 17 18
M  V30 18 1 18 19
M  V30 19 2 19 20
M  V30 20 1 20 21
M  V30 21 1 21 22
M  V30 22 2 17 23
M  V30 23 1 23 24
M  V30 24 1 24 25
M  V30 25 2 25 26
M  V30 26 2 11 27
M  V30 27 1 6 28
M  V30 28 1 28 29
M  V30 29 1 29 3
M  V30 30 1 27 7
M  V30 31 1 26 13
M  V30 32 2 24 15
M  V30 33 2 22 18
M  V30 34 1 1 30
M  V30 35 1 1 31
M  V30 36 1 1 32
M  V30 37 1 3 33
M  V30 38 1 4 34
M  V30 39 1 4 35
M  V30 40 1 5 36
M  V30 41 1 5 37
M  V30 42 1 9 38
M  V30 43 1 10 39
M  V30 44 1 12 40
M  V30 45 1 14 41
M  V30 46 1 16 42
M  V30 47 1 19 43
M  V30 48 1 21 44
M  V30 49 1 22 45
M  V30 50 1 25 46
M  V30 51 1 28 47
M  V30 52 1 28 48
M  V30 53 1 29 49
M  V30 54 1 29 50
M  V30 END BOND
M  V30 END CTAB
M  END
>  <Dataset>  (30) 
ChEMBL_Kinases

>  <Ligand_Instance>  (30) 
nan

>  <PDB_ID>  (30) 
nan

>  <Standardized_SMILES>  (30) 
COC1CCN(c2nccc(Nc3cc4[nH]c(-c5cn[nH]c5)nc4cn3)n2)CC1

>  <Name>  (30) 
nan

>  <Pocket>  (30) 
nan

>  <ATP_Site>  (30) 
nan

>  <Peripheral>  (30) 
nan

>  <Num_H_Atoms_ProtBoundConf>  (30) 
nan

>  <Num_Resolved_Atoms>  (30) 
nan

>  <Num_Not_Resolved_Atoms>  (30) 
nan

$$$$
CHEMBL3354186
     RDKit          3D

  0  0  0  0  0  0  0  0  0  0999 V3000
M  V30 BEGIN CTAB
M  V30 COUNTS 51 55 0 0 0
M  V30 BEGIN ATOM
M  V30 1 C 1.669433 -6.264358 2.791047 0
M  V30 2 O 1.717183 -4.916859 3.152559 0
M  V30 3 C 2.172949 -4.134367 2.115579 0
M  V30 4 C 3.458681 -3.391045 2.430611 0
M  V30 5 C 3.861004 -2.694160 1.125822 0
M  V30 6 N 2.809602 -1.725543 0.880800 0
M  V30 7 C 3.124597 -0.341308 0.943687 0
M  V30 8 N 4.387135 0.002009 1.229121 0
M  V30 9 C 4.774673 1.300528 1.309122 0
M  V30 10 C 3.798014 2.211612 1.080810 0
M  V30 11 C 2.481293 1.932777 0.782620 0
M  V30 12 N 1.557200 2.983864 0.565474 0
M  V30 13 C 0.181238 2.891358 0.252156 0
M  V30 14 C -0.530769 1.724644 0.096412 0
M  V30 15 C -1.870810 1.627854 -0.208669 0
M  V30 16 N -2.721506 0.603242 -0.396873 0
M  V30 17 C -3.923992 1.138645 -0.674188 0
M  V30 18 C -5.116549 0.338753 -0.941671 0
M  V30 19 C -5.193331 -1.040918 -0.951479 0
M  V30 20 N -6.449149 -1.438634 -1.235621 0
M  V30 21 N -7.158174 -0.330747 -1.403482 0
M  V30 22 C -6.393214 0.780421 -1.235250 0
M  V30 23 C -3.891079 2.520760 -0.674543 0
M  V30 24 C -2.571467 2.803613 -0.375167 0
M  V30 25 C -1.859231 3.972883 -0.219382 0
M  V30 26 N -0.552480 4.001179 0.078493 0
M  V30 27 N 2.225914 0.619965 0.732818 0
M  V30 28 C 1.503435 -2.263056 0.587396 0
M  V30 29 C 1.062527 -3.188266 1.704611 0
M  V30 30 H 2.662246 -6.655306 2.502614 0
M  V30 31 H 1.310657 -6.831970 3.675633 0
M  V30 32 H 0.900266 -6.410914 1.978214 0
M  V30 33 H 2.407246 -4.751879 1.203496 0
M  V30 34 H 4.194689 -4.175742 2.720171 0
M  V30 35 H 3.354812 -2.694704 3.263267 0
M  V30 36 H 4.831132 -2.205499 1.211351 0
M  V30 37 H 3.833992 -3.492513 0.337458 0
M  V30 38 H 5.789402 1.578892 1.538506 0
M  V30 39 H 4.120570 3.257271 1.147605 0
M  V30 40 H 1.944361 3.963692 0.647872 0
M  V30 41 H -0.035901 0.779254 0.214649 0
M  V30 42 H -2.500049 -0.409307 -0.340606 0
M  V30 43 H -4.395467 -1.761836 -0.765526 0
M  V30 44 H -8.187842 -0.308705 -1.638400 0
M  V30 45 H -6.701094 1.812796 -1.311202 0
M  V30 46 H -4.663372 3.238552 -0.854776 0
M  V30 47 H -2.412243 4.896857 -0.350771 0
M  V30 48 H 1.529753 -2.845434 -0.362091 0
M  V30 49 H 0.731684 -1.477220 0.483417 0
M  V30 50 H 0.232415 -3.784580 1.319578 0
M  V30 51 H 0.747320 -2.573259 2.561388 0
M  V30 END ATOM
M  V30 BEGIN BOND
M  V30 1 1 1 2
M  V30 2 1 2 3
M  V30 3 1 3 4
M  V30 4 1 4 5
M  V30 5 1 5 6
M  V30 6 1 6 7
M  V30 7 2 7 8
M  V30 8 1 8 9
M  V30 9 2 9 10
M  V30 10 1 10 11
M  V30 11 1 11 12
M  V30 12 1 12 13
M  V30 13 2 13 14
M  V30 14 1 14 15
M  V30 15 1 15 16
M  V30 16 1 16 17
M  V30 17 1 17 18
M  V30 18 1 18 19
M  V30 19 2 19 20
M  V30 20 1 20 21
M  V30 21 1 21 22
M  V30 22 2 17 23
M  V30 23 1 23 24
M  V30 24 1 24 25
M  V30 25 2 25 26
M  V30 26 2 11 27
M  V30 27 1 6 28
M  V30 28 1 28 29
M  V30 29 1 29 3
M  V30 30 1 27 7
M  V30 31 1 26 13
M  V30 32 2 24 15
M  V30 33 2 22 18
M  V30 34 1 1 30
M  V30 35 1 1 31
M  V30 36 1 1 32
M  V30 37 1 3 33
M  V30 38 1 4 34
M  V30 39 1 4 35
M  V30 40 1 5 36
M  V30 41 1 5 37
M  V30 42 1 9 38
M  V30 43 1 10 39
M  V30 44 1 12 40
M  V30 45 1 14 41
M  V30 46 1 16 42
M  V30 47 1 19 43
M  V30 48 1 21 44
M  V30 49 1 22 45
M  V30 50 1 23 46
M  V30 51 1 25 47
M  V30 52 1 28 48
M  V30 53 1 28 49
M  V30 54 1 29 50
M  V30 55 1 29 51
M  V30 END BOND
M  V30 END CTAB
M  END
>  <Dataset>  (31) 
ChEMBL_Kinases

>  <Ligand_Instance>  (31) 
nan

>  <PDB_ID>  (31) 
nan

>  <Standardized_SMILES>  (31) 
COC1CCN(c2nccc(Nc3cc4[nH]c(-c5cn[nH]c5)cc4cn3)n2)CC1

>  <Name>  (31) 
nan

>  <Pocket>  (31) 
nan

>  <ATP_Site>  (31) 
nan

>  <Peripheral>  (31) 
nan

>  <Num_H_Atoms_ProtBoundConf>  (31) 
nan

>  <Num_Resolved_Atoms>  (31) 
nan

>  <Num_Not_Resolved_Atoms>  (31) 
nan

$$$$
CHEMBL3353355
     RDKit          3D

  0  0  0  0  0  0  0  0  0  0999 V3000
M  V30 BEGIN CTAB
M  V30 COUNTS 68 74 0 0 0
M  V30 BEGIN ATOM
M  V30 1 C 4.348131 -3.979210 1.903707 0
M  V30 2 O 4.362229 -2.861069 1.068102 0
M  V30 3 C 5.152065 -1.744357 1.310116 0
M  V30 4 C 5.950163 -1.763741 2.433155 0
M  V30 5 C 6.741767 -0.667805 2.691440 0
M  V30 6 C 6.707740 0.409844 1.818164 0
M  V30 7 C 5.921332 0.500891 0.661077 0
M  V30 8 C 5.168293 -0.641254 0.488453 0
M  V30 9 C 6.143850 1.789172 0.023705 0 CFG=1
M  V30 10 C 6.004745 2.080602 -1.395322 0
M  V30 11 C 5.099262 2.768704 -0.359225 0 CFG=1
M  V30 12 C 3.696644 2.396322 -0.266312 0
M  V30 13 C 2.945920 1.476128 -0.957028 0
M  V30 14 C 1.611557 1.208239 -0.769806 0
M  V30 15 C 0.951262 1.924987 0.201263 0
M  V30 16 C -0.368863 1.861413 0.595233 0
M  V30 17 C -1.390219 0.983094 0.040251 0
M  V30 18 C -2.631262 0.970768 0.463122 0
M  V30 19 C -3.720008 0.132590 -0.026647 0
M  V30 20 C -4.993347 0.224304 0.525574 0
M  V30 21 C -6.009196 -0.576974 0.045737 0
M  V30 22 C -5.842895 -1.496146 -0.981128 0
M  V30 23 C -6.994181 -2.297612 -1.410689 0
M  V30 24 N -7.178122 -3.542736 -0.749032 0
M  V30 25 C -6.116507 -4.489347 -0.869273 0
M  V30 26 C -5.249713 -4.587358 0.360246 0
M  V30 27 O -5.987316 -4.839064 1.509327 0
M  V30 28 C -7.357049 -4.752185 1.297882 0
M  V30 29 C -7.747109 -3.488872 0.561624 0
M  V30 30 C -4.567896 -1.562121 -1.507127 0
M  V30 31 C -3.532348 -0.774471 -1.048659 0
M  V30 32 N -0.476942 2.771531 1.574610 0
M  V30 33 N 0.688207 3.358937 1.776734 0
M  V30 34 C 1.623158 2.869436 0.944473 0
M  V30 35 C 2.960815 3.086539 0.703649 0
M  V30 36 C 7.238441 2.367129 0.867445 0
M  V30 37 O 7.776943 3.461170 0.546424 0
M  V30 38 N 7.541324 1.551726 1.987583 0
M  V30 39 H 5.346436 -4.479699 1.879001 0
M  V30 40 H 3.634095 -4.708782 1.437554 0
M  V30 41 H 4.031151 -3.665819 2.908466 0
M  V30 42 H 5.953182 -2.613853 3.089904 0
M  V30 43 H 7.348508 -0.730163 3.581441 0
M  V30 44 H 4.527515 -0.746385 -0.349197 0
M  V30 45 H 5.521942 1.369624 -2.071525 0
M  V30 46 H 6.769878 2.736252 -1.891760 0
M  V30 47 H 5.334651 3.847218 -0.102069 0
M  V30 48 H 3.526093 0.945699 -1.710266 0
M  V30 49 H 1.139303 0.454885 -1.384905 0
M  V30 50 H -1.137552 0.300891 -0.757835 0
M  V30 51 H -2.841400 1.672953 1.267042 0
M  V30 52 H -5.097720 0.939463 1.315201 0
M  V30 53 H -6.942379 -0.394997 0.569966 0
M  V30 54 H -7.918149 -1.683904 -1.231872 0
M  V30 55 H -6.967358 -2.524124 -2.510537 0
M  V30 56 H -6.574829 -5.514756 -0.991415 0
M  V30 57 H -5.464379 -4.326306 -1.738823 0
M  V30 58 H -4.555448 -3.734250 0.477062 0
M  V30 59 H -4.600869 -5.493515 0.208644 0
M  V30 60 H -7.725505 -5.678304 0.817147 0
M  V30 61 H -7.828537 -4.704601 2.300991 0
M  V30 62 H -7.442825 -2.651468 1.188675 0
M  V30 63 H -8.863548 -3.536545 0.469712 0
M  V30 64 H -4.394148 -2.264315 -2.310507 0
M  V30 65 H -2.580556 -0.905301 -1.527410 0
M  V30 66 H 0.889474 4.115217 2.489186 0
M  V30 67 H 3.391986 3.846773 1.339988 0
M  V30 68 H 8.232888 1.818047 2.714063 0
M  V30 END ATOM
M  V30 BEGIN BOND
M  V30 1 1 1 2
M  V30 2 1 2 3
M  V30 3 2 3 4
M  V30 4 1 4 5
M  V30 5 2 5 6
M  V30 6 1 6 7
M  V30 7 2 7 8
M  V30 8 1 7 9
M  V30 9 1 9 10 CFG=3
M  V30 10 1 10 11
M  V30 11 1 11 12
M  V30 12 2 12 13
M  V30 13 1 13 14
M  V30 14 2 14 15
M  V30 15 1 15 16
M  V30 16 1 16 17
M  V30 17 2 17 18
M  V30 18 1 18 19
M  V30 19 2 19 20
M  V30 20 1 20 21
M  V30 21 2 21 22
M  V30 22 1 22 23
M  V30 23 1 23 24
M  V30 24 1 24 25
M  V30 25 1 25 26
M  V30 26 1 26 27
M  V30 27 1 27 28
M  V30 28 1 28 29
M  V30 29 1 22 30
M  V30 30 2 30 31
M  V30 31 2 16 32
M  V30 32 1 32 33
M  V30 33 1 33 34
M  V30 34 2 34 35
M  V30 35 1 9 36
M  V30 36 2 36 37
M  V30 37 1 36 38
M  V30 38 1 8 3
M  V30 39 1 11 9
M  V30 40 1 35 12
M  V30 41 1 38 6
M  V30 42 1 34 15
M  V30 43 1 31 19
M  V30 44 1 29 24
M  V30 45 1 1 39
M  V30 46 1 1 40
M  V30 47 1 1 41
M  V30 48 1 4 42
M  V30 49 1 5 43
M  V30 50 1 8 44
M  V30 51 1 10 45
M  V30 52 1 10 46
M  V30 53 1 11 47 CFG=1
M  V30 54 1 13 48
M  V30 55 1 14 49
M  V30 56 1 17 50
M  V30 57 1 18 51
M  V30 58 1 20 52
M  V30 59 1 21 53
M  V30 60 1 23 54
M  V30 61 1 23 55
M  V30 62 1 25 56
M  V30 63 1 25 57
M  V30 64 1 26 58
M  V30 65 1 26 59
M  V30 66 1 28 60
M  V30 67 1 28 61
M  V30 68 1 29 62
M  V30 69 1 29 63
M  V30 70 1 30 64
M  V30 71 1 31 65
M  V30 72 1 33 66
M  V30 73 1 35 67
M  V30 74 1 38 68
M  V30 END BOND
M  V30 END CTAB
M  END
>  <Dataset>  (32) 
ChEMBL_Kinases

>  <Ligand_Instance>  (32) 
nan

>  <PDB_ID>  (32) 
nan

>  <Standardized_SMILES>  (32) 
COc1ccc2c(c1)[C@]1(C[C@H]1c1ccc3c(/C=C/c4ccc(CN5CCOCC5)cc4)n[nH]c3c1)C(=O)N2

>  <Name>  (32) 
nan

>  <Pocket>  (32) 
nan

>  <ATP_Site>  (32) 
nan

>  <Peripheral>  (32) 
nan

>  <Num_H_Atoms_ProtBoundConf>  (32) 
nan

>  <Num_Resolved_Atoms>  (32) 
nan

>  <Num_Not_Resolved_Atoms>  (32) 
nan

$$$$
CHEMBL3343311
     RDKit          3D

  0  0  0  0  0  0  0  0  0  0999 V3000
M  V30 BEGIN CTAB
M  V30 COUNTS 75 79 0 0 0
M  V30 BEGIN ATOM
M  V30 1 C 4.965665 -3.531699 2.657251 0
M  V30 2 C 3.746025 -3.561815 1.762723 0
M  V30 3 C 3.166000 -4.933616 1.850328 0
M  V30 4 C 3.497400 -5.880928 0.761297 0
M  V30 5 C 4.634478 -5.525851 -0.125013 0
M  V30 6 C 5.076010 -4.115390 -0.139589 0
M  V30 7 N 4.147876 -3.153990 0.427743 0
M  V30 8 C 2.988452 -2.971839 -0.429029 0
M  V30 9 C 3.295983 -2.359464 -1.748075 0
M  V30 10 C 3.918063 -1.005930 -1.773709 0
M  V30 11 O 3.261686 0.055000 -1.255626 0
M  V30 12 C 2.786045 0.572137 -0.138170 0
M  V30 13 C 2.161044 1.781485 -0.514222 0
M  V30 14 C 1.527620 2.634649 0.405760 0
M  V30 15 C 1.540903 2.231416 1.731103 0
M  V30 16 C 0.941546 2.976370 2.753381 0
M  V30 17 N 0.308520 4.180171 2.269646 0
M  V30 18 C -0.965638 3.817511 1.708362 0
M  V30 19 C -1.537904 2.582979 1.793838 0
M  V30 20 C -2.746218 2.243785 1.224215 0
M  V30 21 C -3.463109 3.172983 0.511801 0
M  V30 22 N -4.697171 2.904326 -0.120625 0
M  V30 23 C -5.451406 1.714735 -0.149624 0
M  V30 24 O -5.022654 0.718271 0.475144 0
M  V30 25 N -6.663311 1.478376 -0.808718 0
M  V30 26 C -7.391929 0.228263 -0.807032 0
M  V30 27 C -6.807716 -0.817622 -1.663914 0
M  V30 28 C -5.939920 -1.757361 -1.118932 0
M  V30 29 C -5.345361 -2.754558 -1.859819 0
M  V30 30 C -5.587345 -2.874447 -3.209706 0
M  V30 31 C -6.449612 -1.954150 -3.788952 0
M  V30 32 C -7.040936 -0.950160 -3.016289 0
M  V30 33 C -2.928192 4.435680 0.397191 0
M  V30 34 C -1.715773 4.722219 0.987126 0
M  V30 35 N 0.951781 2.581100 4.038476 0
M  V30 36 C 1.549898 1.431918 4.395706 0
M  V30 37 N 2.145042 0.675493 3.425243 0
M  V30 38 C 2.135717 1.066742 2.146478 0
M  V30 39 C 2.732701 0.287991 1.191801 0
M  V30 40 H 4.707595 -3.050239 3.626271 0
M  V30 41 H 5.322162 -4.581852 2.873336 0
M  V30 42 H 5.798194 -3.031163 2.133380 0
M  V30 43 H 3.038328 -2.801554 2.150671 0
M  V30 44 H 3.343123 -5.397855 2.860178 0
M  V30 45 H 2.038351 -4.794653 1.838470 0
M  V30 46 H 3.790030 -6.863797 1.259585 0
M  V30 47 H 2.580118 -6.184036 0.176736 0
M  V30 48 H 5.550146 -6.169061 0.069875 0
M  V30 49 H 4.339467 -5.843927 -1.168526 0
M  V30 50 H 5.242378 -3.760926 -1.191538 0
M  V30 51 H 6.052349 -3.982029 0.360581 0
M  V30 52 H 2.266654 -2.341950 0.111939 0
M  V30 53 H 2.495207 -3.963555 -0.609098 0
M  V30 54 H 2.283434 -2.228169 -2.266603 0
M  V30 55 H 3.818220 -3.074686 -2.440690 0
M  V30 56 H 4.931549 -1.054874 -1.255492 0
M  V30 57 H 4.256011 -0.794047 -2.858169 0
M  V30 58 H 2.055519 2.248262 -1.504995 0
M  V30 59 H 1.032302 3.573434 0.170884 0
M  V30 60 H 0.557714 5.198339 2.238637 0
M  V30 61 H -1.008309 1.795856 2.355152 0
M  V30 62 H -3.073614 1.244370 1.369591 0
M  V30 63 H -5.183436 3.651318 -0.667838 0
M  V30 64 H -7.063233 2.293290 -1.346346 0
M  V30 65 H -8.466032 0.438789 -1.068883 0
M  V30 66 H -7.404529 -0.124822 0.263669 0
M  V30 67 H -5.649149 -1.820493 -0.086824 0
M  V30 68 H -4.665399 -3.502187 -1.471749 0
M  V30 69 H -5.137593 -3.644035 -3.819549 0
M  V30 70 H -6.643337 -2.043623 -4.848015 0
M  V30 71 H -7.708702 -0.242703 -3.488730 0
M  V30 72 H -3.484771 5.194795 -0.167178 0
M  V30 73 H -1.376534 5.740861 0.841147 0
M  V30 74 H 1.553018 1.122801 5.429584 0
M  V30 75 H 3.244626 -0.631773 1.383816 0
M  V30 END ATOM
M  V30 BEGIN BOND
M  V30 1 1 1 2
M  V30 2 1 2 3
M  V30 3 1 3 4
M  V30 4 1 4 5
M  V30 5 1 5 6
M  V30 6 1 6 7
M  V30 7 1 7 8
M  V30 8 1 8 9
M  V30 9 1 9 10
M  V30 10 1 10 11
M  V30 11 1 11 12
M  V30 12 2 12 13
M  V30 13 1 13 14
M  V30 14 2 14 15
M  V30 15 1 15 16
M  V30 16 1 16 17
M  V30 17 1 17 18
M  V30 18 2 18 19
M  V30 19 1 19 20
M  V30 20 2 20 21
M  V30 21 1 21 22
M  V30 22 1 22 23
M  V30 23 2 23 24
M  V30 24 1 23 25
M  V30 25 1 25 26
M  V30 26 1 26 27
M  V30 27 2 27 28
M  V30 28 1 28 29
M  V30 29 2 29 30
M  V30 30 1 30 31
M  V30 31 2 31 32
M  V30 32 1 21 33
M  V30 33 2 33 34
M  V30 34 2 16 35
M  V30 35 1 35 36
M  V30 36 2 36 37
M  V30 37 1 37 38
M  V30 38 2 38 39
M  V30 39 1 7 2
M  V30 40 1 39 12
M  V30 41 1 38 15
M  V30 42 1 34 18
M  V30 43 1 32 27
M  V30 44 1 1 40
M  V30 45 1 1 41
M  V30 46 1 1 42
M  V30 47 1 2 43
M  V30 48 1 3 44
M  V30 49 1 3 45
M  V30 50 1 4 46
M  V30 51 1 4 47
M  V30 52 1 5 48
M  V30 53 1 5 49
M  V30 54 1 6 50
M  V30 55 1 6 51
M  V30 56 1 8 52
M  V30 57 1 8 53
M  V30 58 1 9 54
M  V30 59 1 9 55
M  V30 60 1 10 56
M  V30 61 1 10 57
M  V30 62 1 13 58
M  V30 63 1 14 59
M  V30 64 1 17 60
M  V30 65 1 19 61
M  V30 66 1 20 62
M  V30 67 1 22 63
M  V30 68 1 25 64
M  V30 69 1 26 65
M  V30 70 1 26 66
M  V30 71 1 28 67
M  V30 72 1 29 68
M  V30 73 1 30 69
M  V30 74 1 31 70
M  V30 75 1 32 71
M  V30 76 1 33 72
M  V30 77 1 34 73
M  V30 78 1 36 74
M  V30 79 1 39 75
M  V30 END BOND
M  V30 END CTAB
M  END
>  <Dataset>  (33) 
ChEMBL_Kinases

>  <Ligand_Instance>  (33) 
nan

>  <PDB_ID>  (33) 
nan

>  <Standardized_SMILES>  (33) 
CC1CCCCN1CCCOc1ccc2c(Nc3ccc(NC(=O)NCc4ccccc4)cc3)ncnc2c1

>  <Name>  (33) 
nan

>  <Pocket>  (33) 
nan

>  <ATP_Site>  (33) 
nan

>  <Peripheral>  (33) 
nan

>  <Num_H_Atoms_ProtBoundConf>  (33) 
nan

>  <Num_Resolved_Atoms>  (33) 
nan

>  <Num_Not_Resolved_Atoms>  (33) 
nan

$$$$
CHEMBL3343312
     RDKit          3D

  0  0  0  0  0  0  0  0  0  0999 V3000
M  V30 BEGIN CTAB
M  V30 COUNTS 75 79 0 0 0
M  V30 BEGIN ATOM
M  V30 1 C 8.176676 -2.681897 4.490621 0
M  V30 2 C 6.817551 -2.050587 4.209912 0
M  V30 3 C 5.975638 -3.020120 3.463905 0
M  V30 4 C 5.244311 -2.432542 2.262410 0
M  V30 5 N 6.061854 -1.717760 1.388908 0
M  V30 6 C 6.143773 -1.982028 0.029451 0
M  V30 7 C 4.957703 -1.594914 -0.802187 0
M  V30 8 C 3.657318 -2.231982 -0.436079 0
M  V30 9 O 2.620245 -1.888438 -1.290123 0
M  V30 10 C 2.079485 -0.680013 -1.517438 0
M  V30 11 C 1.083981 -0.928902 -2.483386 0
M  V30 12 C 0.261798 0.081610 -3.009632 0
M  V30 13 C 0.419032 1.394881 -2.572598 0
M  V30 14 C -0.315382 2.472476 -3.000336 0
M  V30 15 N -1.321813 2.164816 -3.979790 0
M  V30 16 C -2.566588 1.794811 -3.395594 0
M  V30 17 C -2.766663 1.775268 -2.033422 0
M  V30 18 C -3.995333 1.401591 -1.506209 0
M  V30 19 C -5.070112 1.034937 -2.270636 0
M  V30 20 N -6.339652 0.641153 -1.790905 0
M  V30 21 C -6.797037 0.517318 -0.475899 0
M  V30 22 O -6.039490 0.770059 0.471265 0
M  V30 23 N -8.104979 0.110799 -0.116347 0
M  V30 24 C -8.609351 -0.035039 1.232894 0
M  V30 25 C -8.098543 -1.307637 1.805263 0
M  V30 26 C -6.963606 -1.515214 2.557097 0
M  V30 27 C -6.606735 -2.764767 3.017056 0
M  V30 28 C -7.381094 -3.872757 2.739924 0
M  V30 29 C -8.534513 -3.681267 1.979476 0
M  V30 30 C -8.885654 -2.429325 1.522763 0
M  V30 31 C -4.849143 1.061872 -3.615677 0
M  V30 32 C -3.644718 1.427525 -4.159805 0
M  V30 33 N -0.093516 3.711304 -2.518954 0
M  V30 34 C 0.872137 3.897950 -1.595243 0
M  V30 35 N 1.619245 2.865288 -1.145117 0
M  V30 36 C 1.390788 1.634327 -1.630376 0
M  V30 37 C 2.179848 0.629497 -1.132725 0
M  V30 38 C 7.191765 -1.048592 1.976952 0
M  V30 39 C 6.943424 -0.771784 3.448861 0
M  V30 40 H 8.899510 -2.500587 3.675121 0
M  V30 41 H 8.581796 -2.404498 5.482322 0
M  V30 42 H 8.068375 -3.802823 4.535922 0
M  V30 43 H 6.389540 -1.773888 5.216197 0
M  V30 44 H 6.591424 -3.905604 3.148248 0
M  V30 45 H 5.197301 -3.427644 4.137036 0
M  V30 46 H 4.808867 -3.329065 1.758849 0
M  V30 47 H 4.437528 -1.812393 2.677251 0
M  V30 48 H 7.057651 -1.554225 -0.471540 0
M  V30 49 H 6.269980 -3.092939 -0.136119 0
M  V30 50 H 4.818093 -0.473632 -0.802097 0
M  V30 51 H 5.145062 -1.836627 -1.893505 0
M  V30 52 H 3.772611 -3.342879 -0.466949 0
M  V30 53 H 3.364608 -1.989594 0.628803 0
M  V30 54 H 0.758047 -1.841858 -2.986080 0
M  V30 55 H -0.525164 0.000179 -3.746860 0
M  V30 56 H -1.265151 2.176064 -5.031727 0
M  V30 57 H -1.959740 2.053862 -1.355926 0
M  V30 58 H -4.070784 1.412261 -0.436042 0
M  V30 59 H -7.086158 0.394329 -2.492303 0
M  V30 60 H -8.777428 -0.108312 -0.911942 0
M  V30 61 H -9.708318 -0.046153 1.223799 0
M  V30 62 H -8.210243 0.796834 1.874918 0
M  V30 63 H -6.375718 -0.636430 2.766389 0
M  V30 64 H -5.699413 -2.811989 3.595811 0
M  V30 65 H -7.018705 -4.807396 3.144037 0
M  V30 66 H -9.080146 -4.597388 1.809537 0
M  V30 67 H -9.803589 -2.453296 0.950719 0
M  V30 68 H -5.656295 0.782385 -4.308598 0
M  V30 69 H -3.538348 1.426681 -5.232034 0
M  V30 70 H 1.024581 4.908335 -1.228890 0
M  V30 71 H 2.937796 0.744978 -0.391985 0
M  V30 72 H 7.271543 -0.046829 1.504453 0
M  V30 73 H 8.152973 -1.551707 1.784918 0
M  V30 74 H 5.947342 -0.260865 3.502600 0
M  V30 75 H 7.724040 -0.120322 3.858238 0
M  V30 END ATOM
M  V30 BEGIN BOND
M  V30 1 1 1 2
M  V30 2 1 2 3
M  V30 3 1 3 4
M  V30 4 1 4 5
M  V30 5 1 5 6
M  V30 6 1 6 7
M  V30 7 1 7 8
M  V30 8 1 8 9
M  V30 9 1 9 10
M  V30 10 2 10 11
M  V30 11 1 11 12
M  V30 12 2 12 13
M  V30 13 1 13 14
M  V30 14 1 14 15
M  V30 15 1 15 16
M  V30 16 2 16 17
M  V30 17 1 17 18
M  V30 18 2 18 19
M  V30 19 1 19 20
M  V30 20 1 20 21
M  V30 21 2 21 22
M  V30 22 1 21 23
M  V30 23 1 23 24
M  V30 24 1 24 25
M  V30 25 2 25 26
M  V30 26 1 26 27
M  V30 27 2 27 28
M  V30 28 1 28 29
M  V30 29 2 29 30
M  V30 30 1 19 31
M  V30 31 2 31 32
M  V30 32 2 14 33
M  V30 33 1 33 34
M  V30 34 2 34 35
M  V30 35 1 35 36
M  V30 36 2 36 37
M  V30 37 1 5 38
M  V30 38 1 38 39
M  V30 39 1 39 2
M  V30 40 1 37 10
M  V30 41 1 36 13
M  V30 42 1 32 16
M  V30 43 1 30 25
M  V30 44 1 1 40
M  V30 45 1 1 41
M  V30 46 1 1 42
M  V30 47 1 2 43
M  V30 48 1 3 44
M  V30 49 1 3 45
M  V30 50 1 4 46
M  V30 51 1 4 47
M  V30 52 1 6 48
M  V30 53 1 6 49
M  V30 54 1 7 50
M  V30 55 1 7 51
M  V30 56 1 8 52
M  V30 57 1 8 53
M  V30 58 1 11 54
M  V30 59 1 12 55
M  V30 60 1 15 56
M  V30 61 1 17 57
M  V30 62 1 18 58
M  V30 63 1 20 59
M  V30 64 1 23 60
M  V30 65 1 24 61
M  V30 66 1 24 62
M  V30 67 1 26 63
M  V30 68 1 27 64
M  V30 69 1 28 65
M  V30 70 1 29 66
M  V30 71 1 30 67
M  V30 72 1 31 68
M  V30 73 1 32 69
M  V30 74 1 34 70
M  V30 75 1 37 71
M  V30 76 1 38 72
M  V30 77 1 38 73
M  V30 78 1 39 74
M  V30 79 1 39 75
M  V30 END BOND
M  V30 END CTAB
M  END
>  <Dataset>  (34) 
ChEMBL_Kinases

>  <Ligand_Instance>  (34) 
nan

>  <PDB_ID>  (34) 
nan

>  <Standardized_SMILES>  (34) 
CC1CCN(CCCOc2ccc3c(Nc4ccc(NC(=O)NCc5ccccc5)cc4)ncnc3c2)CC1

>  <Name>  (34) 
nan

>  <Pocket>  (34) 
nan

>  <ATP_Site>  (34) 
nan

>  <Peripheral>  (34) 
nan

>  <Num_H_Atoms_ProtBoundConf>  (34) 
nan

>  <Num_Resolved_Atoms>  (34) 
nan

>  <Num_Not_Resolved_Atoms>  (34) 
nan

$$$$
CHEMBL3763358
     RDKit          3D

  0  0  0  0  0  0  0  0  0  0999 V3000
M  V30 BEGIN CTAB
M  V30 COUNTS 48 51 0 0 0
M  V30 BEGIN ATOM
M  V30 1 C 0.278331 -0.042506 4.868466 0
M  V30 2 O 1.192781 -0.961566 4.303583 0
M  V30 3 C 0.385185 -1.699323 3.401783 0
M  V30 4 C 1.171801 -2.743630 2.686512 0
M  V30 5 O 0.374520 -3.453732 1.815618 0
M  V30 6 C -0.273415 -3.029954 0.729325 0
M  V30 7 C -0.412181 -1.853364 0.034852 0
M  V30 8 C -1.145938 -1.596509 -1.091613 0
M  V30 9 C -1.143681 -0.328600 -1.627685 0
M  V30 10 N -0.432010 0.782018 -1.112364 0
M  V30 11 N 0.369829 1.066389 -0.120222 0
M  V30 12 C 0.778579 2.333444 -0.091036 0
M  V30 13 C 1.676150 2.885304 0.920368 0
M  V30 14 C 1.276027 3.675296 1.980715 0
M  V30 15 C 2.253798 4.131797 2.871488 0
M  V30 16 C 3.576517 3.788955 2.675580 0
M  V30 17 C 3.941200 2.989689 1.593553 0
M  V30 18 N 2.980358 2.558162 0.743103 0
M  V30 19 N 0.182445 2.894717 -1.156834 0
M  V30 20 C -0.562551 1.945442 -1.787684 0
M  V30 21 N -1.278447 2.339138 -2.948593 0
M  V30 22 N -1.908133 -0.235824 -2.727110 0
M  V30 23 C -2.604998 -1.252554 -3.260918 0
M  V30 24 N -2.576536 -2.470191 -2.703547 0
M  V30 25 C -1.840282 -2.674434 -1.595831 0
M  V30 26 C -1.779661 -3.925993 -0.979565 0
M  V30 27 C -1.005308 -4.095703 0.166973 0
M  V30 28 O -1.029041 -5.371579 0.676492 0
M  V30 29 C -1.788234 -6.368305 0.046899 0
M  V30 30 H 0.737716 0.622067 5.602894 0
M  V30 31 H -0.185742 0.500713 3.998404 0
M  V30 32 H -0.551906 -0.671197 5.279485 0
M  V30 33 H 0.007051 -0.952557 2.700812 0
M  V30 34 H -0.420682 -2.195091 3.986321 0
M  V30 35 H 1.609741 -3.427296 3.462482 0
M  V30 36 H 2.050922 -2.283510 2.125944 0
M  V30 37 H 0.168786 -1.071824 0.465222 0
M  V30 38 H 0.224307 3.900813 2.067795 0
M  V30 39 H 1.911261 4.757193 3.704990 0
M  V30 40 H 4.323459 4.153460 3.379074 0
M  V30 41 H 4.981704 2.729294 1.453002 0
M  V30 42 H -0.869075 2.621261 -3.856569 0
M  V30 43 H -2.328514 2.403612 -3.061789 0
M  V30 44 H -3.163630 -0.983831 -4.149808 0
M  V30 45 H -2.360477 -4.680482 -1.464616 0
M  V30 46 H -2.875865 -6.104713 -0.040157 0
M  V30 47 H -1.752499 -7.336902 0.544210 0
M  V30 48 H -1.419640 -6.434806 -1.015282 0
M  V30 END ATOM
M  V30 BEGIN BOND
M  V30 1 1 1 2
M  V30 2 1 2 3
M  V30 3 1 3 4
M  V30 4 1 4 5
M  V30 5 1 5 6
M  V30 6 2 6 7
M  V30 7 1 7 8
M  V30 8 2 8 9
M  V30 9 1 9 10
M  V30 10 1 10 11
M  V30 11 2 11 12
M  V30 12 1 12 13
M  V30 13 2 13 14
M  V30 14 1 14 15
M  V30 15 2 15 16
M  V30 16 1 16 17
M  V30 17 2 17 18
M  V30 18 1 12 19
M  V30 19 2 19 20
M  V30 20 1 20 21
M  V30 21 1 9 22
M  V30 22 2 22 23
M  V30 23 1 23 24
M  V30 24 2 24 25
M  V30 25 1 25 26
M  V30 26 2 26 27
M  V30 27 1 27 28
M  V30 28 1 28 29
M  V30 29 1 27 6
M  V30 30 1 25 8
M  V30 31 1 20 10
M  V30 32 1 18 13
M  V30 33 1 1 30
M  V30 34 1 1 31
M  V30 35 1 1 32
M  V30 36 1 3 33
M  V30 37 1 3 34
M  V30 38 1 4 35
M  V30 39 1 4 36
M  V30 40 1 7 37
M  V30 41 1 14 38
M  V30 42 1 15 39
M  V30 43 1 16 40
M  V30 44 1 17 41
M  V30 45 1 21 42
M  V30 46 1 21 43
M  V30 47 1 23 44
M  V30 48 1 26 45
M  V30 49 1 29 46
M  V30 50 1 29 47
M  V30 51 1 29 48
M  V30 END BOND
M  V30 END CTAB
M  END
>  <Dataset>  (35) 
ChEMBL_Kinases

>  <Ligand_Instance>  (35) 
nan

>  <PDB_ID>  (35) 
nan

>  <Standardized_SMILES>  (35) 
COCCOc1cc2c(-n3nc(-c4ccccn4)nc3N)ncnc2cc1OC

>  <Name>  (35) 
nan

>  <Pocket>  (35) 
nan

>  <ATP_Site>  (35) 
nan

>  <Peripheral>  (35) 
nan

>  <Num_H_Atoms_ProtBoundConf>  (35) 
nan

>  <Num_Resolved_Atoms>  (35) 
nan

>  <Num_Not_Resolved_Atoms>  (35) 
nan

$$$$
CHEMBL4161644
     RDKit          3D

  0  0  0  0  0  0  0  0  0  0999 V3000
M  V30 BEGIN CTAB
M  V30 COUNTS 61 64 0 0 0
M  V30 BEGIN ATOM
M  V30 1 C -2.515331 -5.913774 4.747234 0
M  V30 2 O -2.205372 -5.236796 3.547169 0
M  V30 3 C -1.704200 -3.946454 3.469683 0
M  V30 4 O -1.573062 -3.477714 4.626636 0
M  V30 5 C -1.426208 -3.376879 2.146550 0
M  V30 6 C -0.906942 -2.085463 2.141463 0
M  V30 7 C -0.636195 -1.561778 0.873962 0
M  V30 8 C -0.871794 -2.283261 -0.273805 0
M  V30 9 N -0.592145 -1.752559 -1.562661 0
M  V30 10 C -0.104800 -0.443829 -1.832070 0
M  V30 11 N 1.213935 -0.099370 -1.831640 0
M  V30 12 C 1.628531 1.137810 -2.096777 0
M  V30 13 N 3.001785 1.509313 -2.094126 0
M  V30 14 C 3.510682 2.014679 -0.865337 0
M  V30 15 C 4.101824 1.554151 0.292386 0
M  V30 16 C 4.336170 2.675744 1.087262 0
M  V30 17 C 4.971035 2.486843 2.410455 0
M  V30 18 N 3.885567 3.762884 0.394906 0
M  V30 19 N 3.396861 3.370037 -0.761655 0
M  V30 20 C 0.715310 2.141282 -2.389182 0
M  V30 21 C -0.601098 1.796999 -2.389521 0
M  V30 22 N -1.675839 2.689796 -2.666629 0
M  V30 23 C -3.088041 2.302722 -2.687151 0
M  V30 24 C -3.525360 2.379181 -4.114662 0
M  V30 25 N -3.179767 3.553423 -4.813398 0
M  V30 26 C -2.900067 3.273263 -6.216605 0
M  V30 27 C -2.305672 4.475231 -4.227823 0
M  V30 28 C -1.594683 4.103571 -2.971696 0
M  V30 29 N -0.984335 0.533033 -2.115751 0
M  V30 30 C -1.388775 -3.561754 -0.217853 0
M  V30 31 C -1.675056 -4.129522 1.004451 0
M  V30 32 O -2.195688 -5.400682 1.181750 0
M  V30 33 C -2.497720 -6.270722 0.128280 0
M  V30 34 H -2.659655 -5.261800 5.617934 0
M  V30 35 H -1.734744 -6.686432 4.903105 0
M  V30 36 H -3.500204 -6.444192 4.587923 0
M  V30 37 H -0.731285 -1.542364 3.049823 0
M  V30 38 H -0.233296 -0.564424 0.840971 0
M  V30 39 H -0.727142 -2.299327 -2.438486 0
M  V30 40 H 3.790588 1.508275 -2.806904 0
M  V30 41 H 4.253793 0.490483 0.347238 0
M  V30 42 H 4.240815 2.077385 3.166849 0
M  V30 43 H 5.821326 1.805579 2.378016 0
M  V30 44 H 5.262666 3.481450 2.860985 0
M  V30 45 H 4.011013 4.678695 0.902034 0
M  V30 46 H 0.997946 3.150066 -2.608807 0
M  V30 47 H -3.695860 2.987213 -2.065365 0
M  V30 48 H -3.209188 1.239547 -2.351666 0
M  V30 49 H -3.079271 1.508243 -4.639684 0
M  V30 50 H -4.625687 2.239528 -4.148612 0
M  V30 51 H -3.859303 3.421163 -6.750791 0
M  V30 52 H -2.124104 3.937237 -6.617360 0
M  V30 53 H -2.578442 2.227026 -6.391183 0
M  V30 54 H -2.821714 5.446606 -4.071792 0
M  V30 55 H -1.497506 4.706323 -4.981662 0
M  V30 56 H -0.536287 4.428147 -2.954522 0
M  V30 57 H -2.071641 4.636490 -2.098276 0
M  V30 58 H -1.583832 -4.148469 -1.093552 0
M  V30 59 H -3.238249 -7.059298 0.429391 0
M  V30 60 H -3.060993 -5.658093 -0.628382 0
M  V30 61 H -1.606760 -6.674241 -0.371943 0
M  V30 END ATOM
M  V30 BEGIN BOND
M  V30 1 1 1 2
M  V30 2 1 2 3
M  V30 3 2 3 4
M  V30 4 1 3 5
M  V30 5 2 5 6
M  V30 6 1 6 7
M  V30 7 2 7 8
M  V30 8 1 8 9
M  V30 9 1 9 10
M  V30 10 2 10 11
M  V30 11 1 11 12
M  V30 12 1 12 13
M  V30 13 1 13 14
M  V30 14 1 14 15
M  V30 15 2 15 16
M  V30 16 1 16 17
M  V30 17 1 16 18
M  V30 18 1 18 19
M  V30 19 2 12 20
M  V30 20 1 20 21
M  V30 21 1 21 22
M  V30 22 1 22 23
M  V30 23 1 23 24
M  V30 24 1 24 25
M  V30 25 1 25 26
M  V30 26 1 25 27
M  V30 27 1 27 28
M  V30 28 2 21 29
M  V30 29 1 8 30
M  V30 30 2 30 31
M  V30 31 1 31 32
M  V30 32 1 32 33
M  V30 33 1 31 5
M  V30 34 1 29 10
M  V30 35 2 19 14
M  V30 36 1 28 22
M  V30 37 1 1 34
M  V30 38 1 1 35
M  V30 39 1 1 36
M  V30 40 1 6 37
M  V30 41 1 7 38
M  V30 42 1 9 39
M  V30 43 1 13 40
M  V30 44 1 15 41
M  V30 45 1 17 42
M  V30 46 1 17 43
M  V30 47 1 17 44
M  V30 48 1 18 45
M  V30 49 1 20 46
M  V30 50 1 23 47
M  V30 51 1 23 48
M  V30 52 1 24 49
M  V30 53 1 24 50
M  V30 54 1 26 51
M  V30 55 1 26 52
M  V30 56 1 26 53
M  V30 57 1 27 54
M  V30 58 1 27 55
M  V30 59 1 28 56
M  V30 60 1 28 57
M  V30 61 1 30 58
M  V30 62 1 33 59
M  V30 63 1 33 60
M  V30 64 1 33 61
M  V30 END BOND
M  V30 END CTAB
M  END
>  <Dataset>  (36) 
ChEMBL_Kinases

>  <Ligand_Instance>  (36) 
nan

>  <PDB_ID>  (36) 
nan

>  <Standardized_SMILES>  (36) 
COC(=O)c1ccc(Nc2nc(Nc3cc(C)[nH]n3)cc(N3CCN(C)CC3)n2)cc1OC

>  <Name>  (36) 
nan

>  <Pocket>  (36) 
nan

>  <ATP_Site>  (36) 
nan

>  <Peripheral>  (36) 
nan

>  <Num_H_Atoms_ProtBoundConf>  (36) 
nan

>  <Num_Resolved_Atoms>  (36) 
nan

>  <Num_Not_Resolved_Atoms>  (36) 
nan

$$$$
CHEMBL4161600
     RDKit          3D

  0  0  0  0  0  0  0  0  0  0999 V3000
M  V30 BEGIN CTAB
M  V30 COUNTS 71 75 0 0 0
M  V30 BEGIN ATOM
M  V30 1 C 5.391256 0.089634 -2.470801 0
M  V30 2 C 4.756329 -1.275558 -2.500870 0
M  V30 3 N 3.678427 -1.383026 -3.435628 0
M  V30 4 C 3.096138 -2.707287 -3.395278 0
M  V30 5 C 3.969681 -0.934324 -4.774171 0
M  V30 6 C 2.751146 -1.053223 -5.644960 0
M  V30 7 C 2.473460 -2.134879 -6.482456 0
M  V30 8 C 1.320090 -2.151567 -7.197262 0
M  V30 9 C 0.385577 -1.152295 -7.151093 0
M  V30 10 C 0.585173 -0.059098 -6.355375 0
M  V30 11 N -0.145263 1.141935 -6.012094 0
M  V30 12 C -0.922699 0.837853 -4.824916 0
M  V30 13 O -0.705927 -0.393044 -4.549430 0
M  V30 14 N -1.752030 1.765450 -4.121877 0
M  V30 15 C -2.377833 1.151909 -2.965614 0
M  V30 16 C -3.599729 0.573906 -2.735688 0
M  V30 17 C -3.870583 0.012009 -1.518844 0
M  V30 18 C -2.943373 0.011049 -0.511319 0
M  V30 19 C -3.131337 -0.560267 0.835462 0
M  V30 20 C -3.495566 0.473701 1.894940 0
M  V30 21 N -3.604460 -0.187812 3.129459 0
M  V30 22 C -3.939715 -0.941804 4.284305 0
M  V30 23 N -5.142926 -1.552058 4.089729 0
M  V30 24 C -5.729977 -2.340600 4.991689 0
M  V30 25 N -5.047821 -2.502028 6.130781 0
M  V30 26 C -3.868091 -1.949816 6.415959 0
M  V30 27 O -3.010484 -1.926196 7.384543 0
M  V30 28 C -1.956480 -1.176221 7.114323 0
M  V30 29 C -0.905483 -1.049362 8.098124 0
M  V30 30 C -0.988803 -1.701176 9.305026 0
M  V30 31 C -0.028491 -1.634639 10.289171 0
M  V30 32 C 1.104680 -0.882154 10.101904 0
M  V30 33 C 1.237715 -0.202571 8.898110 0
M  V30 34 C 0.241409 -0.315837 7.963625 0
M  V30 35 C -2.086377 -0.630572 5.856361 0
M  V30 36 Cl -0.983793 0.410776 5.046247 0
M  V30 37 C -3.296612 -1.155501 5.485249 0
M  V30 38 C -1.669709 0.593228 -0.691446 0
M  V30 39 C -1.420276 1.158633 -1.939725 0
M  V30 40 C 1.788237 -0.046343 -5.613439 0
M  V30 41 H 6.385677 0.010017 -2.952629 0
M  V30 42 H 4.775071 0.859387 -2.966017 0
M  V30 43 H 5.600930 0.370933 -1.412047 0
M  V30 44 H 4.366376 -1.462912 -1.445661 0
M  V30 45 H 5.564876 -2.034650 -2.634103 0
M  V30 46 H 3.876628 -3.492886 -3.577599 0
M  V30 47 H 2.665567 -2.866083 -2.375043 0
M  V30 48 H 2.298458 -2.841811 -4.137657 0
M  V30 49 H 4.292960 0.105329 -4.766494 0
M  V30 50 H 4.768784 -1.611298 -5.172880 0
M  V30 51 H 3.189689 -2.918495 -6.528798 0
M  V30 52 H 1.048313 -2.956886 -7.861171 0
M  V30 53 H -0.572298 -1.025478 -7.654018 0
M  V30 54 H -0.224745 2.101572 -6.408247 0
M  V30 55 H -1.765101 2.725176 -4.553065 0
M  V30 56 H -4.209241 0.652168 -3.620938 0
M  V30 57 H -4.848763 -0.427325 -1.396709 0
M  V30 58 H -3.986756 -1.269722 0.795160 0
M  V30 59 H -2.216446 -1.073490 1.185018 0
M  V30 60 H -4.518497 0.861929 1.537967 0
M  V30 61 H -2.857347 1.345461 1.874582 0
M  V30 62 H -2.683384 0.146183 3.425054 0
M  V30 63 H -6.685134 -2.832810 4.853959 0
M  V30 64 H -1.835355 -2.314352 9.548649 0
M  V30 65 H -0.140404 -2.162454 11.210649 0
M  V30 66 H 1.897166 -0.807332 10.861744 0
M  V30 67 H 2.123728 0.376019 8.774570 0
M  V30 68 H 0.426849 0.242027 7.060802 0
M  V30 69 H -0.931388 0.595384 0.109135 0
M  V30 70 H -0.399641 1.587664 -1.985891 0
M  V30 71 H 2.075222 0.768480 -4.941442 0
M  V30 END ATOM
M  V30 BEGIN BOND
M  V30 1 1 1 2
M  V30 2 1 2 3
M  V30 3 1 3 4
M  V30 4 1 3 5
M  V30 5 1 5 6
M  V30 6 2 6 7
M  V30 7 1 7 8
M  V30 8 2 8 9
M  V30 9 1 9 10
M  V30 10 1 10 11
M  V30 11 1 11 12
M  V30 12 2 12 13
M  V30 13 1 12 14
M  V30 14 1 14 15
M  V30 15 2 15 16
M  V30 16 1 16 17
M  V30 17 2 17 18
M  V30 18 1 18 19
M  V30 19 1 19 20
M  V30 20 1 20 21
M  V30 21 1 21 22
M  V30 22 2 22 23
M  V30 23 1 23 24
M  V30 24 2 24 25
M  V30 25 1 25 26
M  V30 26 1 26 27
M  V30 27 1 27 28
M  V30 28 1 28 29
M  V30 29 2 29 30
M  V30 30 1 30 31
M  V30 31 2 31 32
M  V30 32 1 32 33
M  V30 33 2 33 34
M  V30 34 2 28 35
M  V30 35 1 35 36
M  V30 36 1 35 37
M  V30 37 1 18 38
M  V30 38 2 38 39
M  V30 39 2 10 40
M  V30 40 1 40 6
M  V30 41 1 39 15
M  V30 42 1 37 22
M  V30 43 2 37 26
M  V30 44 1 34 29
M  V30 45 1 1 41
M  V30 46 1 1 42
M  V30 47 1 1 43
M  V30 48 1 2 44
M  V30 49 1 2 45
M  V30 50 1 4 46
M  V30 51 1 4 47
M  V30 52 1 4 48
M  V30 53 1 5 49
M  V30 54 1 5 50
M  V30 55 1 7 51
M  V30 56 1 8 52
M  V30 57 1 9 53
M  V30 58 1 11 54
M  V30 59 1 14 55
M  V30 60 1 16 56
M  V30 61 1 17 57
M  V30 62 1 19 58
M  V30 63 1 19 59
M  V30 64 1 20 60
M  V30 65 1 20 61
M  V30 66 1 21 62
M  V30 67 1 24 63
M  V30 68 1 30 64
M  V30 69 1 31 65
M  V30 70 1 32 66
M  V30 71 1 33 67
M  V30 72 1 34 68
M  V30 73 1 38 69
M  V30 74 1 39 70
M  V30 75 1 40 71
M  V30 END BOND
M  V30 END CTAB
M  END
>  <Dataset>  (37) 
ChEMBL_Kinases

>  <Ligand_Instance>  (37) 
nan

>  <PDB_ID>  (37) 
nan

>  <Standardized_SMILES>  (37) 
CCN(C)Cc1cccc(NC(=O)Nc2ccc(CCNc3ncnc4oc(-c5ccccc5)c(Cl)c34)cc2)c1

>  <Name>  (37) 
nan

>  <Pocket>  (37) 
nan

>  <ATP_Site>  (37) 
nan

>  <Peripheral>  (37) 
nan

>  <Num_H_Atoms_ProtBoundConf>  (37) 
nan

>  <Num_Resolved_Atoms>  (37) 
nan

>  <Num_Not_Resolved_Atoms>  (37) 
nan

$$$$
CHEMBL4161596
     RDKit          3D

  0  0  0  0  0  0  0  0  0  0999 V3000
M  V30 BEGIN CTAB
M  V30 COUNTS 39 42 0 0 0
M  V30 BEGIN ATOM
M  V30 1 O 1.510583 -1.982916 3.294108 0
M  V30 2 C 0.261092 -1.879462 3.251392 0
M  V30 3 N -0.311362 -0.931240 2.368754 0
M  V30 4 C 0.143316 0.031027 1.428685 0
M  V30 5 C 0.340667 -0.291222 0.104478 0
M  V30 6 C 0.780222 0.653150 -0.787283 0
M  V30 7 C 1.029777 0.492184 -2.210062 0
M  V30 8 C 0.209824 -0.417321 -2.843811 0
M  V30 9 C 0.442113 -0.573875 -4.216454 0
M  V30 10 C 1.410373 0.113089 -4.917427 0
M  V30 11 O 1.561994 -0.117284 -6.295264 0
M  V30 12 C 2.195111 1.007542 -4.219151 0
M  V30 13 C 2.005591 1.198604 -2.862504 0
M  V30 14 C 1.017492 1.940864 -0.302595 0
M  V30 15 C 0.824579 2.276671 1.017900 0
M  V30 16 N 0.964202 3.395791 1.741201 0
M  V30 17 N 0.645787 3.215200 3.004067 0
M  V30 18 C 0.277154 1.928893 3.142406 0
M  V30 19 C 0.382649 1.311849 1.893045 0
M  V30 20 C -0.677826 -2.662347 4.044489 0
M  V30 21 C -0.071970 -3.578247 4.913760 0
M  V30 22 C -0.787619 -4.414437 5.757692 0
M  V30 23 C -2.165574 -4.323000 5.722633 0
M  V30 24 C -2.761011 -3.416132 4.861304 0
M  V30 25 N -2.020916 -2.627637 4.062988 0
M  V30 26 H -1.344635 -0.774346 2.264164 0
M  V30 27 H 0.168498 -1.261968 -0.288998 0
M  V30 28 H -0.578669 -1.016087 -2.419797 0
M  V30 29 H -0.165329 -1.274255 -4.786789 0
M  V30 30 H 1.079858 0.485173 -6.966837 0
M  V30 31 H 2.963260 1.563747 -4.734465 0
M  V30 32 H 2.600775 1.888393 -2.291607 0
M  V30 33 H 1.365398 2.754396 -0.924949 0
M  V30 34 H 1.287176 4.306816 1.353785 0
M  V30 35 H -0.057479 1.387737 4.039325 0
M  V30 36 H 1.014186 -3.701302 4.991056 0
M  V30 37 H -0.295499 -5.111350 6.418651 0
M  V30 38 H -2.808853 -4.951851 6.360495 0
M  V30 39 H -3.847971 -3.285648 4.777730 0
M  V30 END ATOM
M  V30 BEGIN BOND
M  V30 1 2 1 2
M  V30 2 1 2 3
M  V30 3 1 3 4
M  V30 4 2 4 5
M  V30 5 1 5 6
M  V30 6 1 6 7
M  V30 7 2 7 8
M  V30 8 1 8 9
M  V30 9 2 9 10
M  V30 10 1 10 11
M  V30 11 1 10 12
M  V30 12 2 12 13
M  V30 13 2 6 14
M  V30 14 1 14 15
M  V30 15 1 15 16
M  V30 16 1 16 17
M  V30 17 2 17 18
M  V30 18 1 18 19
M  V30 19 1 2 20
M  V30 20 2 20 21
M  V30 21 1 21 22
M  V30 22 2 22 23
M  V30 23 1 23 24
M  V30 24 2 24 25
M  V30 25 1 19 4
M  V30 26 1 25 20
M  V30 27 1 13 7
M  V30 28 2 19 15
M  V30 29 1 3 26
M  V30 30 1 5 27
M  V30 31 1 8 28
M  V30 32 1 9 29
M  V30 33 1 11 30
M  V30 34 1 12 31
M  V30 35 1 13 32
M  V30 36 1 14 33
M  V30 37 1 16 34
M  V30 38 1 18 35
M  V30 39 1 21 36
M  V30 40 1 22 37
M  V30 41 1 23 38
M  V30 42 1 24 39
M  V30 END BOND
M  V30 END CTAB
M  END
>  <Dataset>  (38) 
ChEMBL_Kinases

>  <Ligand_Instance>  (38) 
nan

>  <PDB_ID>  (38) 
nan

>  <Standardized_SMILES>  (38) 
O=C(Nc1cc(-c2ccc(O)cc2)cc2[nH]ncc12)c1ccccn1

>  <Name>  (38) 
nan

>  <Pocket>  (38) 
nan

>  <ATP_Site>  (38) 
nan

>  <Peripheral>  (38) 
nan

>  <Num_H_Atoms_ProtBoundConf>  (38) 
nan

>  <Num_Resolved_Atoms>  (38) 
nan

>  <Num_Not_Resolved_Atoms>  (38) 
nan

$$$$
CHEMBL3763572
     RDKit          3D

  0  0  0  0  0  0  0  0  0  0999 V3000
M  V30 BEGIN CTAB
M  V30 COUNTS 71 75 0 0 0
M  V30 BEGIN ATOM
M  V30 1 C -6.430949 -4.041361 -0.680114 0
M  V30 2 N -6.380739 -3.718049 -2.070621 0
M  V30 3 C -6.482825 -4.857065 -2.941058 0
M  V30 4 C -5.887984 -4.492553 -4.297871 0
M  V30 5 N -5.816291 -3.073744 -4.409915 0
M  V30 6 C -5.441405 -2.555083 -5.672706 0
M  V30 7 C -3.971200 -2.851564 -6.017133 0
M  V30 8 C -3.174616 -2.217490 -4.920917 0
M  V30 9 O -1.772957 -2.347376 -5.031129 0
M  V30 10 C -1.016592 -1.766762 -3.997492 0
M  V30 11 C -1.687397 -1.121163 -2.950653 0
M  V30 12 C -0.899279 -0.570568 -1.965530 0
M  V30 13 C 0.464927 -0.577481 -1.885676 0
M  V30 14 N 1.232804 0.005955 -0.847240 0
M  V30 15 C 2.642214 -0.038115 -0.755263 0
M  V30 16 O 3.527052 -0.551221 -1.495198 0
M  V30 17 C 3.196741 0.624237 0.396149 0
M  V30 18 C 4.357887 1.161282 0.693515 0
M  V30 19 C 4.675976 1.790852 1.971013 0
M  V30 20 C 3.877010 2.601809 2.749638 0
M  V30 21 C 4.326230 3.112659 3.948604 0
M  V30 22 C 5.584501 2.834349 4.413861 0
M  V30 23 O 5.875746 3.422836 5.628533 0
M  V30 24 C 5.593559 2.841075 6.837709 0
M  V30 25 C 4.967903 1.614661 6.983174 0
M  V30 26 C 4.736356 1.130642 8.260913 0
M  V30 27 C 5.109750 1.833079 9.379973 0
M  V30 28 N 4.855594 1.304013 10.675178 0
M  V30 29 C 5.738899 3.064806 9.283197 0
M  V30 30 C 5.957304 3.522912 8.003702 0
M  V30 31 C 6.414605 2.027728 3.665125 0
M  V30 32 C 5.959268 1.515724 2.459287 0
M  V30 33 S 1.811415 0.612057 1.575496 0
M  V30 34 C 0.598039 0.704134 0.219862 0
M  V30 35 S -0.795321 1.486316 0.462692 0
M  V30 36 C 1.045469 -1.233238 -2.955978 0
M  V30 37 C 0.360448 -1.825394 -4.004030 0
M  V30 38 C -7.050899 -2.465960 -3.969726 0
M  V30 39 C -7.264654 -2.670274 -2.479781 0
M  V30 40 H -7.027752 -3.304354 -0.084071 0
M  V30 41 H -5.374257 -3.996914 -0.282831 0
M  V30 42 H -6.795874 -5.059887 -0.454317 0
M  V30 43 H -7.543831 -5.147031 -3.055335 0
M  V30 44 H -5.878245 -5.675851 -2.502922 0
M  V30 45 H -4.870419 -4.928088 -4.401166 0
M  V30 46 H -6.578012 -4.853899 -5.104117 0
M  V30 47 H -5.590617 -1.439179 -5.611307 0
M  V30 48 H -6.051282 -2.884482 -6.526892 0
M  V30 49 H -3.720586 -2.445297 -6.997374 0
M  V30 50 H -3.827502 -3.946239 -5.969844 0
M  V30 51 H -3.459380 -2.692463 -3.950853 0
M  V30 52 H -3.475480 -1.137660 -4.809252 0
M  V30 53 H -2.759859 -1.065571 -2.926354 0
M  V30 54 H -1.488376 -0.106226 -1.203136 0
M  V30 55 H 5.099452 1.108258 -0.090578 0
M  V30 56 H 2.902882 2.776876 2.316970 0
M  V30 57 H 3.573979 3.732942 4.439637 0
M  V30 58 H 4.672783 1.061499 6.110063 0
M  V30 59 H 4.240819 0.159801 8.397624 0
M  V30 60 H 3.931513 1.058658 11.130212 0
M  V30 61 H 5.528291 1.050743 11.437957 0
M  V30 62 H 6.037156 3.625716 10.144331 0
M  V30 63 H 6.451414 4.491030 7.898987 0
M  V30 64 H 7.396635 1.836415 4.072415 0
M  V30 65 H 6.669642 0.881110 1.912434 0
M  V30 66 H 2.112476 -1.341697 -3.069070 0
M  V30 67 H 0.834576 -2.330809 -4.824976 0
M  V30 68 H -7.939527 -2.875001 -4.529142 0
M  V30 69 H -7.022593 -1.382172 -4.215010 0
M  V30 70 H -6.925034 -1.721559 -1.977676 0
M  V30 71 H -8.322304 -2.814765 -2.264401 0
M  V30 END ATOM
M  V30 BEGIN BOND
M  V30 1 1 1 2
M  V30 2 1 2 3
M  V30 3 1 3 4
M  V30 4 1 4 5
M  V30 5 1 5 6
M  V30 6 1 6 7
M  V30 7 1 7 8
M  V30 8 1 8 9
M  V30 9 1 9 10
M  V30 10 2 10 11
M  V30 11 1 11 12
M  V30 12 2 12 13
M  V30 13 1 13 14
M  V30 14 1 14 15
M  V30 15 2 15 16
M  V30 16 1 15 17
M  V30 17 2 17 18
M  V30 18 1 18 19
M  V30 19 2 19 20
M  V30 20 1 20 21
M  V30 21 2 21 22
M  V30 22 1 22 23
M  V30 23 1 23 24
M  V30 24 2 24 25
M  V30 25 1 25 26
M  V30 26 2 26 27
M  V30 27 1 27 28
M  V30 28 1 27 29
M  V30 29 2 29 30
M  V30 30 1 22 31
M  V30 31 2 31 32
M  V30 32 1 17 33
M  V30 33 1 33 34
M  V30 34 2 34 35
M  V30 35 1 13 36
M  V30 36 2 36 37
M  V30 37 1 5 38
M  V30 38 1 38 39
M  V30 39 1 39 2
M  V30 40 1 37 10
M  V30 41 1 34 14
M  V30 42 1 32 19
M  V30 43 1 30 24
M  V30 44 1 1 40
M  V30 45 1 1 41
M  V30 46 1 1 42
M  V30 47 1 3 43
M  V30 48 1 3 44
M  V30 49 1 4 45
M  V30 50 1 4 46
M  V30 51 1 6 47
M  V30 52 1 6 48
M  V30 53 1 7 49
M  V30 54 1 7 50
M  V30 55 1 8 51
M  V30 56 1 8 52
M  V30 57 1 11 53
M  V30 58 1 12 54
M  V30 59 1 18 55
M  V30 60 1 20 56
M  V30 61 1 21 57
M  V30 62 1 25 58
M  V30 63 1 26 59
M  V30 64 1 28 60
M  V30 65 1 28 61
M  V30 66 1 29 62
M  V30 67 1 30 63
M  V30 68 1 31 64
M  V30 69 1 32 65
M  V30 70 1 36 66
M  V30 71 1 37 67
M  V30 72 1 38 68
M  V30 73 1 38 69
M  V30 74 1 39 70
M  V30 75 1 39 71
M  V30 END BOND
M  V30 END CTAB
M  END
>  <Dataset>  (39) 
ChEMBL_Kinases

>  <Ligand_Instance>  (39) 
nan

>  <PDB_ID>  (39) 
nan

>  <Standardized_SMILES>  (39) 
CN1CCN(CCCOc2ccc(N3C(=O)/C(=C/c4ccc(Oc5ccc(N)cc5)cc4)SC3=S)cc2)CC1

>  <Name>  (39) 
nan

>  <Pocket>  (39) 
nan

>  <ATP_Site>  (39) 
nan

>  <Peripheral>  (39) 
nan

>  <Num_H_Atoms_ProtBoundConf>  (39) 
nan

>  <Num_Resolved_Atoms>  (39) 
nan

>  <Num_Not_Resolved_Atoms>  (39) 
nan

$$$$
CHEMBL334881
     RDKit          3D

  0  0  0  0  0  0  0  0  0  0999 V3000
M  V30 BEGIN CTAB
M  V30 COUNTS 49 52 0 0 0
M  V30 BEGIN ATOM
M  V30 1 C -1.162802 -3.670015 2.587842 0
M  V30 2 N 0.178285 -4.119766 2.524613 0
M  V30 3 C 0.733789 -4.395726 1.256915 0
M  V30 4 C 1.588187 -3.290089 0.691721 0
M  V30 5 C 1.574309 -2.149778 1.689011 0 CFG=2
M  V30 6 C 2.090061 -0.894975 1.179988 0
M  V30 7 C 3.401592 -0.494603 1.243634 0
M  V30 8 O 4.332864 -1.310062 1.823874 0
M  V30 9 C 3.875476 0.705039 0.753361 0
M  V30 10 C 3.015492 1.585807 0.155391 0
M  V30 11 O 3.342813 2.823200 -0.382116 0
M  V30 12 C 1.680093 1.255605 0.052892 0
M  V30 13 C 0.741428 2.090982 -0.538508 0
M  V30 14 O 1.145753 3.209543 -1.003035 0
M  V30 15 C -0.595735 1.766956 -0.644364 0
M  V30 16 C -0.901829 0.533879 -0.104767 0
M  V30 17 S -2.596467 -0.061772 -0.148908 0
M  V30 18 C -3.670918 1.125593 -0.938229 0
M  V30 19 C -3.851876 1.033968 -2.313372 0
M  V30 20 C -4.692590 1.963082 -2.930931 0
M  V30 21 C -5.322815 2.946083 -2.173393 0
M  V30 22 C -5.108230 2.991867 -0.810530 0
M  V30 23 C -4.275566 2.083592 -0.147994 0
M  V30 24 Cl -4.037730 2.183803 1.573337 0
M  V30 25 O -0.027812 -0.267039 0.457128 0
M  V30 26 C 1.256334 0.048556 0.556640 0
M  V30 27 C 2.131139 -2.688817 2.958525 0 CFG=2
M  V30 28 O 3.245860 -3.521918 2.729108 0
M  V30 29 C 1.071091 -3.629688 3.533208 0
M  V30 30 H -1.519929 -3.288341 1.600605 0
M  V30 31 H -1.815016 -4.545665 2.858883 0
M  V30 32 H -1.331739 -2.941965 3.411135 0
M  V30 33 H 1.319039 -5.359724 1.316685 0
M  V30 34 H -0.100066 -4.638370 0.561331 0
M  V30 35 H 1.259066 -2.965510 -0.314888 0
M  V30 36 H 2.641084 -3.670848 0.624447 0
M  V30 37 H 0.475260 -1.968455 1.886969 0
M  V30 38 H 4.881731 -1.065129 2.624497 0
M  V30 39 H 4.911140 1.005284 0.811370 0
M  V30 40 H 4.315230 3.111075 -0.374268 0
M  V30 41 H -1.332542 2.411899 -1.103334 0
M  V30 42 H -3.370118 0.279252 -2.906405 0
M  V30 43 H -4.877600 1.947672 -4.003492 0
M  V30 44 H -5.968756 3.652173 -2.681033 0
M  V30 45 H -5.622254 3.779169 -0.254287 0
M  V30 46 H 2.311797 -1.926273 3.733295 0
M  V30 47 H 3.308688 -4.147974 3.489313 0
M  V30 48 H 0.433828 -3.120593 4.286369 0
M  V30 49 H 1.513864 -4.508432 4.047368 0
M  V30 END ATOM
M  V30 BEGIN BOND
M  V30 1 1 1 2
M  V30 2 1 2 3
M  V30 3 1 3 4
M  V30 4 1 4 5
M  V30 5 1 5 6
M  V30 6 2 6 7
M  V30 7 1 7 8
M  V30 8 1 7 9
M  V30 9 2 9 10
M  V30 10 1 10 11
M  V30 11 1 10 12
M  V30 12 1 12 13
M  V30 13 2 13 14
M  V30 14 1 13 15
M  V30 15 2 15 16
M  V30 16 1 16 17
M  V30 17 1 17 18
M  V30 18 2 18 19
M  V30 19 1 19 20
M  V30 20 2 20 21
M  V30 21 1 21 22
M  V30 22 2 22 23
M  V30 23 1 23 24
M  V30 24 1 16 25
M  V30 25 1 25 26
M  V30 26 1 5 27
M  V30 27 1 27 28
M  V30 28 1 27 29
M  V30 29 1 29 2
M  V30 30 1 26 6
M  V30 31 2 26 12
M  V30 32 1 23 18
M  V30 33 1 1 30
M  V30 34 1 1 31
M  V30 35 1 1 32
M  V30 36 1 3 33
M  V30 37 1 3 34
M  V30 38 1 4 35
M  V30 39 1 4 36
M  V30 40 1 5 37 CFG=1
M  V30 41 1 8 38
M  V30 42 1 9 39
M  V30 43 1 11 40
M  V30 44 1 15 41
M  V30 45 1 19 42
M  V30 46 1 20 43
M  V30 47 1 21 44
M  V30 48 1 22 45
M  V30 49 1 27 46 CFG=1
M  V30 50 1 28 47
M  V30 51 1 29 48
M  V30 52 1 29 49
M  V30 END BOND
M  V30 END CTAB
M  END
>  <Dataset>  (40) 
ChEMBL_Kinases

>  <Ligand_Instance>  (40) 
nan

>  <PDB_ID>  (40) 
nan

>  <Standardized_SMILES>  (40) 
CN1CC[C@H](c2c(O)cc(O)c3c(=O)cc(Sc4ccccc4Cl)oc23)[C@H](O)C1

>  <Name>  (40) 
nan

>  <Pocket>  (40) 
nan

>  <ATP_Site>  (40) 
nan

>  <Peripheral>  (40) 
nan

>  <Num_H_Atoms_ProtBoundConf>  (40) 
nan

>  <Num_Resolved_Atoms>  (40) 
nan

>  <Num_Not_Resolved_Atoms>  (40) 
nan

$$$$
CHEMBL3763630
     RDKit          3D

  0  0  0  0  0  0  0  0  0  0999 V3000
M  V30 BEGIN CTAB
M  V30 COUNTS 43 46 0 0 0
M  V30 BEGIN ATOM
M  V30 1 O 2.267358 -0.178294 1.331242 0
M  V30 2 C 1.689710 0.937508 1.387797 0
M  V30 3 N 2.559418 2.038215 1.477409 0
M  V30 4 C 3.979101 2.019747 1.509582 0
M  V30 5 N 4.795082 3.113066 1.597521 0
M  V30 6 C 6.074068 2.701581 1.601646 0
M  V30 7 C 7.189792 3.506401 1.678464 0
M  V30 8 C 8.421489 2.882533 1.668114 0
M  V30 9 Cl 9.909789 3.814596 1.761677 0
M  V30 10 C 8.501332 1.501953 1.583124 0
M  V30 11 F 9.708446 0.888901 1.572869 0
M  V30 12 C 7.337477 0.731410 1.507333 0
M  V30 13 C 6.090551 1.324762 1.515407 0
M  V30 14 N 4.801704 0.957192 1.462034 0
M  V30 15 C 0.216226 1.095800 1.363127 0
M  V30 16 C -0.387283 2.349634 1.427601 0
M  V30 17 S -2.192332 1.918327 1.358164 0
M  V30 18 C -1.770670 0.080192 1.252774 0
M  V30 19 N -2.668273 -1.115690 1.156690 0
M  V30 20 C -2.986299 -1.499418 -0.160613 0
M  V30 21 O -2.431327 -0.731911 -1.003564 0
M  V30 22 C -3.811106 -2.586477 -0.628729 0
M  V30 23 C -3.968462 -2.754287 -1.989016 0
M  V30 24 C -4.735841 -3.762426 -2.528358 0
M  V30 25 C -5.392412 -4.664001 -1.737079 0
M  V30 26 C -5.261744 -4.532017 -0.371009 0
M  V30 27 C -4.485657 -3.511112 0.131946 0
M  V30 28 O -4.396013 -3.433796 1.494090 0
M  V30 29 C -4.992076 -4.259428 2.442498 0
M  V30 30 F -4.611058 -5.571098 2.324982 0
M  V30 31 F -4.602077 -3.827205 3.705054 0
M  V30 32 F -6.387418 -4.147691 2.436274 0
M  V30 33 N -0.632248 0.082248 1.279633 0
M  V30 34 H 2.087730 2.983967 1.525773 0
M  V30 35 H 7.136972 4.572084 1.744276 0
M  V30 36 H 7.356809 -0.360508 1.439085 0
M  V30 37 H 4.572465 -0.041666 1.393810 0
M  V30 38 H 0.075611 3.311318 1.498785 0
M  V30 39 H -3.057632 -1.659562 1.922572 0
M  V30 40 H -3.469673 -2.066357 -2.686695 0
M  V30 41 H -4.813595 -3.832953 -3.598600 0
M  V30 42 H -5.975453 -5.427353 -2.231105 0
M  V30 43 H -5.767511 -5.227567 0.272206 0
M  V30 END ATOM
M  V30 BEGIN BOND
M  V30 1 2 1 2
M  V30 2 1 2 3
M  V30 3 1 3 4
M  V30 4 2 4 5
M  V30 5 1 5 6
M  V30 6 2 6 7
M  V30 7 1 7 8
M  V30 8 1 8 9
M  V30 9 2 8 10
M  V30 10 1 10 11
M  V30 11 1 10 12
M  V30 12 2 12 13
M  V30 13 1 13 14
M  V30 14 1 2 15
M  V30 15 2 15 16
M  V30 16 1 16 17
M  V30 17 1 17 18
M  V30 18 1 18 19
M  V30 19 1 19 20
M  V30 20 2 20 21
M  V30 21 1 20 22
M  V30 22 2 22 23
M  V30 23 1 23 24
M  V30 24 2 24 25
M  V30 25 1 25 26
M  V30 26 2 26 27
M  V30 27 1 27 28
M  V30 28 1 28 29
M  V30 29 1 29 30
M  V30 30 1 29 31
M  V30 31 1 29 32
M  V30 32 2 18 33
M  V30 33 1 14 4
M  V30 34 1 33 15
M  V30 35 1 13 6
M  V30 36 1 27 22
M  V30 37 1 3 34
M  V30 38 1 7 35
M  V30 39 1 12 36
M  V30 40 1 14 37
M  V30 41 1 16 38
M  V30 42 1 19 39
M  V30 43 1 23 40
M  V30 44 1 24 41
M  V30 45 1 25 42
M  V30 46 1 26 43
M  V30 END BOND
M  V30 END CTAB
M  END
>  <Dataset>  (41) 
ChEMBL_Kinases

>  <Ligand_Instance>  (41) 
nan

>  <PDB_ID>  (41) 
nan

>  <Standardized_SMILES>  (41) 
O=C(Nc1nc2cc(Cl)c(F)cc2[nH]1)c1csc(NC(=O)c2ccccc2OC(F)(F)F)n1

>  <Name>  (41) 
nan

>  <Pocket>  (41) 
nan

>  <ATP_Site>  (41) 
nan

>  <Peripheral>  (41) 
nan

>  <Num_H_Atoms_ProtBoundConf>  (41) 
nan

>  <Num_Resolved_Atoms>  (41) 
nan

>  <Num_Not_Resolved_Atoms>  (41) 
nan

$$$$
CHEMBL3353340
     RDKit          3D

  0  0  0  0  0  0  0  0  0  0999 V3000
M  V30 BEGIN CTAB
M  V30 COUNTS 47 52 0 0 0
M  V30 BEGIN ATOM
M  V30 1 O 6.073149 -0.330955 2.992685 0
M  V30 2 C 5.487694 -0.237114 1.890348 0
M  V30 3 N 5.851701 -0.860253 0.667403 0
M  V30 4 C 4.920427 -0.388697 -0.297389 0
M  V30 5 C 4.979099 -0.745253 -1.628264 0
M  V30 6 C 4.073946 -0.217032 -2.522689 0
M  V30 7 C 3.124969 0.662676 -2.057499 0
M  V30 8 C 3.128849 0.969389 -0.719015 0
M  V30 9 C 3.984232 0.497204 0.249997 0
M  V30 10 C 4.255619 0.584986 1.680716 0 CFG=2
M  V30 11 C 3.885329 1.708622 2.530423 0
M  V30 12 C 3.256453 0.415253 2.759991 0 CFG=1
M  V30 13 C 1.878340 0.063988 2.432391 0
M  V30 14 C 0.911471 0.832515 1.859934 0
M  V30 15 C -0.380729 0.473738 1.550926 0
M  V30 16 C -0.757850 -0.817558 1.851540 0
M  V30 17 C -1.929045 -1.527336 1.698269 0
M  V30 18 C -3.164154 -1.014248 1.121204 0
M  V30 19 C -4.220704 -1.789944 1.028172 0
M  V30 20 C -5.498845 -1.375135 0.469225 0
M  V30 21 C -5.757252 -0.119628 -0.030493 0
M  V30 22 C -7.003367 0.228995 -0.556858 0
M  V30 23 N -8.007546 -0.679466 -0.588441 0
M  V30 24 C -7.792518 -1.922192 -0.107234 0
M  V30 25 C -6.557848 -2.249482 0.408312 0
M  V30 26 N -1.705563 -2.756611 2.177075 0
M  V30 27 N -0.461354 -2.864318 2.623767 0
M  V30 28 C 0.156339 -1.669802 2.434434 0
M  V30 29 C 1.432983 -1.233116 2.712504 0
M  V30 30 H 6.658070 -1.514957 0.604436 0
M  V30 31 H 5.691318 -1.426688 -2.068898 0
M  V30 32 H 4.085842 -0.470533 -3.571158 0
M  V30 33 H 2.410437 1.083772 -2.749452 0
M  V30 34 H 2.365128 1.674231 -0.429821 0
M  V30 35 H 3.335058 2.552855 2.025052 0
M  V30 36 H 4.631896 2.111043 3.260497 0
M  V30 37 H 3.625780 -0.161920 3.672435 0
M  V30 38 H 1.198070 1.859809 1.624031 0
M  V30 39 H -1.070235 1.170482 1.093506 0
M  V30 40 H -3.217810 0.004116 0.767486 0
M  V30 41 H -4.117918 -2.798013 1.394646 0
M  V30 42 H -4.979905 0.626380 -0.020060 0
M  V30 43 H -7.114989 1.254508 -0.932212 0
M  V30 44 H -8.628198 -2.584556 -0.164457 0
M  V30 45 H -6.496073 -3.260149 0.762281 0
M  V30 46 H -0.039287 -3.739951 3.051677 0
M  V30 47 H 2.089079 -1.963923 3.170172 0
M  V30 END ATOM
M  V30 BEGIN BOND
M  V30 1 2 1 2
M  V30 2 1 2 3
M  V30 3 1 3 4
M  V30 4 2 4 5
M  V30 5 1 5 6
M  V30 6 2 6 7
M  V30 7 1 7 8
M  V30 8 2 8 9
M  V30 9 1 9 10
M  V30 10 1 10 11 CFG=3
M  V30 11 1 11 12
M  V30 12 1 12 13
M  V30 13 2 13 14
M  V30 14 1 14 15
M  V30 15 2 15 16
M  V30 16 1 16 17
M  V30 17 1 17 18
M  V30 18 2 18 19
M  V30 19 1 19 20
M  V30 20 2 20 21
M  V30 21 1 21 22
M  V30 22 2 22 23
M  V30 23 1 23 24
M  V30 24 2 24 25
M  V30 25 2 17 26
M  V30 26 1 26 27
M  V30 27 1 27 28
M  V30 28 2 28 29
M  V30 29 1 10 2
M  V30 30 1 29 13
M  V30 31 1 9 4
M  V30 32 1 12 10
M  V30 33 1 28 16
M  V30 34 1 25 20
M  V30 35 1 3 30
M  V30 36 1 5 31
M  V30 37 1 6 32
M  V30 38 1 7 33
M  V30 39 1 8 34
M  V30 40 1 11 35
M  V30 41 1 11 36
M  V30 42 1 12 37 CFG=1
M  V30 43 1 14 38
M  V30 44 1 15 39
M  V30 45 1 18 40
M  V30 46 1 19 41
M  V30 47 1 21 42
M  V30 48 1 22 43
M  V30 49 1 24 44
M  V30 50 1 25 45
M  V30 51 1 27 46
M  V30 52 1 29 47
M  V30 END BOND
M  V30 END CTAB
M  END
>  <Dataset>  (42) 
ChEMBL_Kinases

>  <Ligand_Instance>  (42) 
nan

>  <PDB_ID>  (42) 
nan

>  <Standardized_SMILES>  (42) 
O=C1Nc2ccccc2[C@]12C[C@H]2c1ccc2c(/C=C/c3ccncc3)n[nH]c2c1

>  <Name>  (42) 
nan

>  <Pocket>  (42) 
nan

>  <ATP_Site>  (42) 
nan

>  <Peripheral>  (42) 
nan

>  <Num_H_Atoms_ProtBoundConf>  (42) 
nan

>  <Num_Resolved_Atoms>  (42) 
nan

>  <Num_Not_Resolved_Atoms>  (42) 
nan

$$$$
CHEMBL3764354
     RDKit          3D

  0  0  0  0  0  0  0  0  0  0999 V3000
M  V30 BEGIN CTAB
M  V30 COUNTS 70 74 0 0 0
M  V30 BEGIN ATOM
M  V30 1 C 3.927445 -7.043721 1.373340 0
M  V30 2 N 3.667113 -7.053509 -0.020550 0
M  V30 3 C 4.482121 -7.848490 -0.851456 0
M  V30 4 C 5.257348 -7.110614 -1.923722 0
M  V30 5 N 4.632992 -5.876326 -2.289746 0
M  V30 6 C 5.414157 -4.701402 -2.144635 0
M  V30 7 C 4.612405 -3.453869 -2.457284 0
M  V30 8 C 5.565550 -2.281397 -2.323306 0
M  V30 9 O 5.019632 -1.035434 -2.546714 0
M  V30 10 C 4.041572 -0.355959 -1.882258 0
M  V30 11 C 3.286254 -0.664674 -0.765683 0
M  V30 12 C 2.333343 0.190688 -0.264928 0
M  V30 13 C 2.105083 1.403292 -0.879734 0
M  V30 14 N 1.063704 2.131983 -0.187704 0
M  V30 15 C -0.197824 1.781287 -0.734093 0
M  V30 16 O -0.723576 1.063318 -1.611103 0
M  V30 17 C -1.227736 2.495194 -0.044238 0
M  V30 18 C -2.412318 2.731585 0.362237 0
M  V30 19 C -3.632906 3.183585 0.919019 0
M  V30 20 C -3.751654 4.542515 0.745488 0
M  V30 21 C -4.856649 5.275546 1.236283 0
M  V30 22 C -5.768524 4.442609 1.897345 0
M  V30 23 O -6.884057 5.080119 2.413495 0
M  V30 24 C -7.868825 4.446945 3.142221 0
M  V30 25 C -8.981419 3.884747 2.593118 0
M  V30 26 C -9.907089 3.275787 3.417069 0
M  V30 27 C -9.684874 3.247978 4.797402 0
M  V30 28 C -10.614037 2.630085 5.730422 0
M  V30 29 N -11.346658 2.128486 6.476265 0
M  V30 30 C -8.538504 3.831710 5.318718 0
M  V30 31 C -7.602022 4.444886 4.509378 0
M  V30 32 C -5.687064 3.111534 2.086734 0
M  V30 33 C -4.592446 2.434105 1.590963 0
M  V30 34 S -0.418407 3.939336 0.760164 0
M  V30 35 C 1.168235 3.058828 0.876215 0
M  V30 36 S 2.474436 3.139851 1.837306 0
M  V30 37 C 2.826866 1.765250 -1.994426 0
M  V30 38 C 3.771846 0.876213 -2.461213 0
M  V30 39 C 3.249073 -5.804341 -2.058694 0
M  V30 40 C 3.000181 -5.933752 -0.568836 0
M  V30 41 H 4.041260 -6.015758 1.791247 0
M  V30 42 H 2.987809 -7.423366 1.877412 0
M  V30 43 H 4.726068 -7.736907 1.695647 0
M  V30 44 H 3.854112 -8.637742 -1.323672 0
M  V30 45 H 5.257587 -8.370483 -0.215462 0
M  V30 46 H 5.283792 -7.759894 -2.820828 0
M  V30 47 H 6.328299 -6.972574 -1.638092 0
M  V30 48 H 5.851872 -4.637517 -1.115425 0
M  V30 49 H 6.300539 -4.757436 -2.850148 0
M  V30 50 H 3.825935 -3.413983 -1.682061 0
M  V30 51 H 4.245503 -3.529057 -3.491437 0
M  V30 52 H 6.422970 -2.520320 -2.980960 0
M  V30 53 H 5.989393 -2.361695 -1.278956 0
M  V30 54 H 3.504190 -1.606593 -0.315297 0
M  V30 55 H 1.818850 -0.189996 0.618473 0
M  V30 56 H -2.837728 1.827884 -0.197586 0
M  V30 57 H -3.055111 5.205041 0.236077 0
M  V30 58 H -4.986839 6.327756 1.123745 0
M  V30 59 H -9.157810 3.901605 1.543790 0
M  V30 60 H -10.812430 2.804358 3.121599 0
M  V30 61 H -8.399028 3.793733 6.386551 0
M  V30 62 H -6.739724 4.876332 4.970179 0
M  V30 63 H -6.424441 2.527723 2.604838 0
M  V30 64 H -4.364938 1.383400 1.646992 0
M  V30 65 H 2.558582 2.725999 -2.376238 0
M  V30 66 H 4.285862 1.275891 -3.353294 0
M  V30 67 H 2.800921 -4.884237 -2.412867 0
M  V30 68 H 2.761967 -6.716350 -2.502558 0
M  V30 69 H 1.890764 -6.147996 -0.492541 0
M  V30 70 H 3.120775 -4.976111 -0.023484 0
M  V30 END ATOM
M  V30 BEGIN BOND
M  V30 1 1 1 2
M  V30 2 1 2 3
M  V30 3 1 3 4
M  V30 4 1 4 5
M  V30 5 1 5 6
M  V30 6 1 6 7
M  V30 7 1 7 8
M  V30 8 1 8 9
M  V30 9 1 9 10
M  V30 10 2 10 11
M  V30 11 1 11 12
M  V30 12 2 12 13
M  V30 13 1 13 14
M  V30 14 1 14 15
M  V30 15 2 15 16
M  V30 16 1 15 17
M  V30 17 2 17 18
M  V30 18 1 18 19
M  V30 19 2 19 20
M  V30 20 1 20 21
M  V30 21 2 21 22
M  V30 22 1 22 23
M  V30 23 1 23 24
M  V30 24 2 24 25
M  V30 25 1 25 26
M  V30 26 2 26 27
M  V30 27 1 27 28
M  V30 28 3 28 29
M  V30 29 1 27 30
M  V30 30 2 30 31
M  V30 31 1 22 32
M  V30 32 2 32 33
M  V30 33 1 17 34
M  V30 34 1 34 35
M  V30 35 2 35 36
M  V30 36 1 13 37
M  V30 37 2 37 38
M  V30 38 1 5 39
M  V30 39 1 39 40
M  V30 40 1 40 2
M  V30 41 1 38 10
M  V30 42 1 35 14
M  V30 43 1 33 19
M  V30 44 1 31 24
M  V30 45 1 1 41
M  V30 46 1 1 42
M  V30 47 1 1 43
M  V30 48 1 3 44
M  V30 49 1 3 45
M  V30 50 1 4 46
M  V30 51 1 4 47
M  V30 52 1 6 48
M  V30 53 1 6 49
M  V30 54 1 7 50
M  V30 55 1 7 51
M  V30 56 1 8 52
M  V30 57 1 8 53
M  V30 58 1 11 54
M  V30 59 1 12 55
M  V30 60 1 18 56
M  V30 61 1 20 57
M  V30 62 1 21 58
M  V30 63 1 25 59
M  V30 64 1 26 60
M  V30 65 1 30 61
M  V30 66 1 31 62
M  V30 67 1 32 63
M  V30 68 1 33 64
M  V30 69 1 37 65
M  V30 70 1 38 66
M  V30 71 1 39 67
M  V30 72 1 39 68
M  V30 73 1 40 69
M  V30 74 1 40 70
M  V30 END BOND
M  V30 END CTAB
M  END
>  <Dataset>  (43) 
ChEMBL_Kinases

>  <Ligand_Instance>  (43) 
nan

>  <PDB_ID>  (43) 
nan

>  <Standardized_SMILES>  (43) 
CN1CCN(CCCOc2ccc(N3C(=O)/C(=C/c4ccc(Oc5ccc(C#N)cc5)cc4)SC3=S)cc2)CC1

>  <Name>  (43) 
nan

>  <Pocket>  (43) 
nan

>  <ATP_Site>  (43) 
nan

>  <Peripheral>  (43) 
nan

>  <Num_H_Atoms_ProtBoundConf>  (43) 
nan

>  <Num_Resolved_Atoms>  (43) 
nan

>  <Num_Not_Resolved_Atoms>  (43) 
nan

$$$$
CHEMBL3352857
     RDKit          3D

  0  0  0  0  0  0  0  0  0  0999 V3000
M  V30 BEGIN CTAB
M  V30 COUNTS 41 44 0 0 0
M  V30 BEGIN ATOM
M  V30 1 C -1.572852 -2.612929 2.221122 0
M  V30 2 C -0.874301 -3.774396 1.580516 0
M  V30 3 C 0.439723 -3.299019 0.943114 0
M  V30 4 C 1.023481 -4.548933 0.348254 0
M  V30 5 O 1.987839 -5.068800 0.977000 0
M  V30 6 N 0.541307 -5.138040 -0.851689 0
M  V30 7 N -0.206227 -4.329172 -1.715243 0
M  V30 8 C -0.396199 -3.097138 -1.340144 0
M  V30 9 C -1.207508 -2.280064 -2.313458 0
M  V30 10 O -0.714804 -0.957139 -2.378436 0
M  V30 11 C -0.281058 -0.253182 -1.266253 0
M  V30 12 C -0.211276 1.123293 -1.193713 0
M  V30 13 C 0.233344 1.776740 -0.047682 0
M  V30 14 C 0.604920 0.987054 1.022653 0
M  V30 15 N 1.060427 1.649167 2.197387 0
M  V30 16 C 1.110272 3.091138 2.210443 0
M  V30 17 C 1.608699 3.700056 3.505747 0
M  V30 18 N 2.943984 3.647945 2.953221 0
M  V30 19 C 2.373622 3.690167 1.635195 0
M  V30 20 C 0.532721 -0.389350 0.943553 0
M  V30 21 C 0.091496 -1.033746 -0.194190 0
M  V30 22 N 0.069425 -2.452204 -0.134955 0
M  V30 23 H -1.905689 -1.854262 1.494886 0
M  V30 24 H -2.457007 -3.039017 2.764334 0
M  V30 25 H -0.912427 -2.092202 2.955590 0
M  V30 26 H -0.740289 -4.620962 2.250688 0
M  V30 27 H -1.498248 -4.098107 0.700685 0
M  V30 28 H 1.042457 -2.897952 1.738914 0
M  V30 29 H 0.778787 -6.159400 -1.019768 0
M  V30 30 H -1.138657 -2.677153 -3.343418 0
M  V30 31 H -2.250835 -2.356107 -1.990478 0
M  V30 32 H -0.533902 1.637726 -2.108591 0
M  V30 33 H 0.255402 2.859162 -0.079320 0
M  V30 34 H 1.363647 1.145754 3.059000 0
M  V30 35 H 0.196206 3.587014 1.840890 0
M  V30 36 H 1.297088 4.737232 3.647659 0
M  V30 37 H 1.417512 3.015559 4.343532 0
M  V30 38 H 3.583819 4.428393 3.219807 0
M  V30 39 H 2.835645 3.053320 0.869254 0
M  V30 40 H 2.217827 4.717285 1.277602 0
M  V30 41 H 0.844466 -0.913780 1.831375 0
M  V30 END ATOM
M  V30 BEGIN BOND
M  V30 1 1 1 2
M  V30 2 1 2 3
M  V30 3 1 3 4
M  V30 4 2 4 5
M  V30 5 1 4 6
M  V30 6 1 6 7
M  V30 7 2 7 8
M  V30 8 1 8 9
M  V30 9 1 9 10
M  V30 10 1 10 11
M  V30 11 2 11 12
M  V30 12 1 12 13
M  V30 13 2 13 14
M  V30 14 1 14 15
M  V30 15 1 15 16
M  V30 16 1 16 17
M  V30 17 1 17 18
M  V30 18 1 18 19
M  V30 19 1 14 20
M  V30 20 2 20 21
M  V30 21 1 21 22
M  V30 22 1 22 3
M  V30 23 1 22 8
M  V30 24 1 21 11
M  V30 25 1 19 16
M  V30 26 1 1 23
M  V30 27 1 1 24
M  V30 28 1 1 25
M  V30 29 1 2 26
M  V30 30 1 2 27
M  V30 31 1 3 28
M  V30 32 1 6 29
M  V30 33 1 9 30
M  V30 34 1 9 31
M  V30 35 1 12 32
M  V30 36 1 13 33
M  V30 37 1 15 34
M  V30 38 1 16 35
M  V30 39 1 17 36
M  V30 40 1 17 37
M  V30 41 1 18 38
M  V30 42 1 19 39
M  V30 43 1 19 40
M  V30 44 1 20 41
M  V30 END BOND
M  V30 END CTAB
M  END
>  <Dataset>  (44) 
ChEMBL_Kinases

>  <Ligand_Instance>  (44) 
nan

>  <PDB_ID>  (44) 
nan

>  <Standardized_SMILES>  (44) 
CCC1C(=O)NN=C2COc3ccc(NC4CNC4)cc3N21

>  <Name>  (44) 
nan

>  <Pocket>  (44) 
nan

>  <ATP_Site>  (44) 
nan

>  <Peripheral>  (44) 
nan

>  <Num_H_Atoms_ProtBoundConf>  (44) 
nan

>  <Num_Resolved_Atoms>  (44) 
nan

>  <Num_Not_Resolved_Atoms>  (44) 
nan

$$$$
CHEMBL3764369
     RDKit          3D

  0  0  0  0  0  0  0  0  0  0999 V3000
M  V30 BEGIN CTAB
M  V30 COUNTS 69 73 0 0 0
M  V30 BEGIN ATOM
M  V30 1 C 7.754293 -3.034034 2.853391 0
M  V30 2 N 6.993313 -3.973172 2.087692 0
M  V30 3 C 7.618284 -4.396740 0.865984 0
M  V30 4 C 7.669241 -3.347884 -0.204376 0
M  V30 5 N 6.593603 -2.383944 0.054486 0
M  V30 6 C 6.459539 -1.469117 -1.023853 0
M  V30 7 C 5.408065 -0.433134 -0.758640 0
M  V30 8 C 5.373646 0.495725 -1.958042 0
M  V30 9 O 4.437278 1.522311 -1.882538 0
M  V30 10 C 3.078069 1.471051 -1.813679 0
M  V30 11 C 2.143122 0.467579 -1.809970 0
M  V30 12 C 0.800309 0.745415 -1.723913 0
M  V30 13 C 0.328920 2.055428 -1.636822 0
M  V30 14 N -1.116298 2.034121 -1.551659 0
M  V30 15 C -1.541566 1.968528 -0.221816 0
M  V30 16 O -1.071297 1.933552 0.933691 0
M  V30 17 C -2.974747 1.929814 -0.193891 0
M  V30 18 C -4.086480 1.736488 0.327839 0
M  V30 19 C -5.399969 1.541953 0.840345 0
M  V30 20 C -6.096895 0.882443 -0.186034 0
M  V30 21 C -7.448958 0.529256 -0.055004 0
M  V30 22 C -8.015960 0.894147 1.173923 0
M  V30 23 O -9.347868 0.606607 1.449120 0
M  V30 24 C -9.624803 -0.644898 2.035424 0
M  V30 25 C -9.644658 -0.874442 3.394252 0
M  V30 26 C -9.920113 -2.117317 3.921052 0
M  V30 27 C -10.189078 -3.191036 3.095742 0
M  V30 28 Cl -10.548014 -4.826227 3.605712 0
M  V30 29 C -10.171170 -2.969992 1.740594 0
M  V30 30 C -9.896201 -1.724728 1.186668 0
M  V30 31 C -7.343977 1.538392 2.180832 0
M  V30 32 C -6.021034 1.865814 2.012728 0
M  V30 33 S -3.602706 2.457564 -1.834233 0
M  V30 34 C -2.025680 2.056502 -2.636910 0
M  V30 35 S -1.609466 1.764770 -4.183288 0
M  V30 36 C 1.247870 3.084889 -1.639281 0
M  V30 37 C 2.599980 2.787663 -1.726864 0
M  V30 38 C 5.437821 -3.138276 0.420780 0
M  V30 39 C 5.632413 -3.519145 1.899238 0
M  V30 40 H 7.739144 -3.265692 3.958942 0
M  V30 41 H 8.822656 -2.979615 2.585242 0
M  V30 42 H 7.322862 -2.015534 2.760340 0
M  V30 43 H 7.066758 -5.291455 0.511852 0
M  V30 44 H 8.642534 -4.760755 1.134378 0
M  V30 45 H 7.469313 -3.856621 -1.193942 0
M  V30 46 H 8.668665 -2.882157 -0.192390 0
M  V30 47 H 7.462944 -0.966228 -1.141938 0
M  V30 48 H 6.242938 -2.053782 -1.948537 0
M  V30 49 H 5.754539 0.191718 0.098724 0
M  V30 50 H 4.443553 -0.889980 -0.603620 0
M  V30 51 H 5.059531 -0.153254 -2.831510 0
M  V30 52 H 6.374832 0.872119 -2.216699 0
M  V30 53 H 2.577221 -0.511998 -1.891702 0
M  V30 54 H 0.210408 -0.172844 -1.734399 0
M  V30 55 H -3.620674 1.392485 1.320575 0
M  V30 56 H -5.782621 0.542036 -1.182788 0
M  V30 57 H -8.105834 0.034358 -0.728734 0
M  V30 58 H -9.434913 -0.038533 4.060936 0
M  V30 59 H -9.941259 -2.325189 4.980736 0
M  V30 60 H -10.372480 -3.761653 1.031628 0
M  V30 61 H -9.894642 -1.606677 0.092241 0
M  V30 62 H -7.771082 1.824456 3.128264 0
M  V30 63 H -5.338810 2.364573 2.680419 0
M  V30 64 H 0.743412 4.034349 -1.567260 0
M  V30 65 H 3.159036 3.728445 -1.713232 0
M  V30 66 H 5.352389 -4.101494 -0.148877 0
M  V30 67 H 4.492286 -2.620623 0.267725 0
M  V30 68 H 5.499614 -2.602581 2.516903 0
M  V30 69 H 4.887691 -4.259577 2.232371 0
M  V30 END ATOM
M  V30 BEGIN BOND
M  V30 1 1 1 2
M  V30 2 1 2 3
M  V30 3 1 3 4
M  V30 4 1 4 5
M  V30 5 1 5 6
M  V30 6 1 6 7
M  V30 7 1 7 8
M  V30 8 1 8 9
M  V30 9 1 9 10
M  V30 10 2 10 11
M  V30 11 1 11 12
M  V30 12 2 12 13
M  V30 13 1 13 14
M  V30 14 1 14 15
M  V30 15 2 15 16
M  V30 16 1 15 17
M  V30 17 2 17 18
M  V30 18 1 18 19
M  V30 19 2 19 20
M  V30 20 1 20 21
M  V30 21 2 21 22
M  V30 22 1 22 23
M  V30 23 1 23 24
M  V30 24 2 24 25
M  V30 25 1 25 26
M  V30 26 2 26 27
M  V30 27 1 27 28
M  V30 28 1 27 29
M  V30 29 2 29 30
M  V30 30 1 22 31
M  V30 31 2 31 32
M  V30 32 1 17 33
M  V30 33 1 33 34
M  V30 34 2 34 35
M  V30 35 1 13 36
M  V30 36 2 36 37
M  V30 37 1 5 38
M  V30 38 1 38 39
M  V30 39 1 39 2
M  V30 40 1 37 10
M  V30 41 1 34 14
M  V30 42 1 32 19
M  V30 43 1 30 24
M  V30 44 1 1 40
M  V30 45 1 1 41
M  V30 46 1 1 42
M  V30 47 1 3 43
M  V30 48 1 3 44
M  V30 49 1 4 45
M  V30 50 1 4 46
M  V30 51 1 6 47
M  V30 52 1 6 48
M  V30 53 1 7 49
M  V30 54 1 7 50
M  V30 55 1 8 51
M  V30 56 1 8 52
M  V30 57 1 11 53
M  V30 58 1 12 54
M  V30 59 1 18 55
M  V30 60 1 20 56
M  V30 61 1 21 57
M  V30 62 1 25 58
M  V30 63 1 26 59
M  V30 64 1 29 60
M  V30 65 1 30 61
M  V30 66 1 31 62
M  V30 67 1 32 63
M  V30 68 1 36 64
M  V30 69 1 37 65
M  V30 70 1 38 66
M  V30 71 1 38 67
M  V30 72 1 39 68
M  V30 73 1 39 69
M  V30 END BOND
M  V30 END CTAB
M  END
>  <Dataset>  (45) 
ChEMBL_Kinases

>  <Ligand_Instance>  (45) 
nan

>  <PDB_ID>  (45) 
nan

>  <Standardized_SMILES>  (45) 
CN1CCN(CCCOc2ccc(N3C(=O)/C(=C/c4ccc(Oc5ccc(Cl)cc5)cc4)SC3=S)cc2)CC1

>  <Name>  (45) 
nan

>  <Pocket>  (45) 
nan

>  <ATP_Site>  (45) 
nan

>  <Peripheral>  (45) 
nan

>  <Num_H_Atoms_ProtBoundConf>  (45) 
nan

>  <Num_Resolved_Atoms>  (45) 
nan

>  <Num_Not_Resolved_Atoms>  (45) 
nan

$$$$
CHEMBL3764955
     RDKit          3D

  0  0  0  0  0  0  0  0  0  0999 V3000
M  V30 BEGIN CTAB
M  V30 COUNTS 75 79 0 0 0
M  V30 BEGIN ATOM
M  V30 1 C 4.808852 -2.533508 1.614107 0
M  V30 2 N 5.758245 -1.662146 0.959264 0
M  V30 3 C 6.747845 -2.499906 0.305800 0
M  V30 4 C 7.655092 -1.663273 -0.587848 0
M  V30 5 N 7.960523 -0.396498 -0.001889 0
M  V30 6 C 7.239134 0.708948 -0.629639 0
M  V30 7 C 7.711046 0.970557 -2.004115 0
M  V30 8 C 7.026740 2.127378 -2.680720 0
M  V30 9 O 5.707848 2.067896 -2.826800 0
M  V30 10 C 4.532611 2.042864 -2.196143 0
M  V30 11 C 4.003872 2.093442 -0.925414 0
M  V30 12 C 2.669315 2.034172 -0.597469 0
M  V30 13 C 1.795997 1.913802 -1.655569 0
M  V30 14 N 0.413256 1.851619 -1.253719 0
M  V30 15 C -0.141867 0.557889 -0.942834 0
M  V30 16 O 0.455848 -0.574331 -0.976626 0
M  V30 17 C -1.561469 0.554727 -0.541985 0
M  V30 18 C -2.220169 -0.346664 0.115384 0
M  V30 19 C -3.635996 -0.174831 0.422616 0
M  V30 20 C -4.019240 -0.543632 1.716948 0
M  V30 21 C -5.340425 -0.454261 2.157056 0
M  V30 22 C -6.319246 0.012297 1.298959 0
M  V30 23 O -7.650492 0.115982 1.706781 0
M  V30 24 C -8.433239 -1.050147 1.611513 0
M  V30 25 C -8.337416 -1.694915 2.846683 0
M  V30 26 C -9.016744 -2.896837 3.057632 0
M  V30 27 C -9.780813 -3.439918 2.038295 0
M  V30 28 S -10.652085 -4.951477 2.273281 0
M  V30 29 C -9.532088 -6.278585 1.833703 0
M  V30 30 O -11.123844 -5.106711 3.672709 0
M  V30 31 O -11.794707 -5.043252 1.307038 0
M  V30 32 C -9.848732 -2.771496 0.833799 0
M  V30 33 C -9.190236 -1.585984 0.598007 0
M  V30 34 C -5.940326 0.377273 0.017764 0
M  V30 35 C -4.639307 0.290334 -0.417594 0
M  V30 36 S -2.156366 2.140175 -1.190440 0
M  V30 37 C -0.515987 2.921474 -1.119613 0
M  V30 38 S -0.004501 4.466193 -0.946518 0
M  V30 39 C 2.202914 1.853707 -2.982067 0
M  V30 40 C 3.582493 1.920379 -3.229633 0
M  V30 41 C 7.788467 -0.377300 1.436027 0
M  V30 42 C 6.360437 -0.693623 1.837957 0
M  V30 43 H 5.033113 -2.718458 2.661853 0
M  V30 44 H 4.728523 -3.506642 1.082694 0
M  V30 45 H 3.798565 -2.048411 1.486669 0
M  V30 46 H 6.198105 -3.189995 -0.364916 0
M  V30 47 H 7.298283 -3.113843 1.034487 0
M  V30 48 H 8.554933 -2.294728 -0.795779 0
M  V30 49 H 7.159947 -1.495879 -1.567929 0
M  V30 50 H 6.172287 0.349746 -0.719130 0
M  V30 51 H 7.261153 1.576168 0.028204 0
M  V30 52 H 7.569555 0.081274 -2.689807 0
M  V30 53 H 8.827139 1.159514 -2.051601 0
M  V30 54 H 7.303967 3.079277 -2.128307 0
M  V30 55 H 7.489869 2.231629 -3.732776 0
M  V30 56 H 4.809128 2.199690 -0.222296 0
M  V30 57 H 2.458865 2.089509 0.453876 0
M  V30 58 H -1.705927 -1.255470 0.447595 0
M  V30 59 H -3.285144 -0.922273 2.443200 0
M  V30 60 H -5.566828 -0.752889 3.162015 0
M  V30 61 H -7.796684 -1.421484 3.740490 0
M  V30 62 H -9.006951 -3.474813 3.981940 0
M  V30 63 H -8.819352 -5.865199 1.091464 0
M  V30 64 H -10.048688 -7.155232 1.420380 0
M  V30 65 H -8.969627 -6.490172 2.782321 0
M  V30 66 H -10.427221 -3.141740 0.000643 0
M  V30 67 H -9.157300 -0.973478 -0.273890 0
M  V30 68 H -6.681142 0.751185 -0.701468 0
M  V30 69 H -4.281505 0.560546 -1.407920 0
M  V30 70 H 1.375139 1.759571 -3.665287 0
M  V30 71 H 3.676180 1.857550 -4.321851 0
M  V30 72 H 8.055580 0.624128 1.791413 0
M  V30 73 H 8.468426 -1.110680 1.901751 0
M  V30 74 H 5.763701 0.250405 1.773013 0
M  V30 75 H 6.334788 -1.001735 2.905104 0
M  V30 END ATOM
M  V30 BEGIN BOND
M  V30 1 1 1 2
M  V30 2 1 2 3
M  V30 3 1 3 4
M  V30 4 1 4 5
M  V30 5 1 5 6
M  V30 6 1 6 7
M  V30 7 1 7 8
M  V30 8 1 8 9
M  V30 9 1 9 10
M  V30 10 2 10 11
M  V30 11 1 11 12
M  V30 12 2 12 13
M  V30 13 1 13 14
M  V30 14 1 14 15
M  V30 15 2 15 16
M  V30 16 1 15 17
M  V30 17 2 17 18
M  V30 18 1 18 19
M  V30 19 2 19 20
M  V30 20 1 20 21
M  V30 21 2 21 22
M  V30 22 1 22 23
M  V30 23 1 23 24
M  V30 24 2 24 25
M  V30 25 1 25 26
M  V30 26 2 26 27
M  V30 27 1 27 28
M  V30 28 1 28 29
M  V30 29 2 28 30
M  V30 30 2 28 31
M  V30 31 1 27 32
M  V30 32 2 32 33
M  V30 33 1 22 34
M  V30 34 2 34 35
M  V30 35 1 17 36
M  V30 36 1 36 37
M  V30 37 2 37 38
M  V30 38 1 13 39
M  V30 39 2 39 40
M  V30 40 1 5 41
M  V30 41 1 41 42
M  V30 42 1 42 2
M  V30 43 1 40 10
M  V30 44 1 37 14
M  V30 45 1 35 19
M  V30 46 1 33 24
M  V30 47 1 1 43
M  V30 48 1 1 44
M  V30 49 1 1 45
M  V30 50 1 3 46
M  V30 51 1 3 47
M  V30 52 1 4 48
M  V30 53 1 4 49
M  V30 54 1 6 50
M  V30 55 1 6 51
M  V30 56 1 7 52
M  V30 57 1 7 53
M  V30 58 1 8 54
M  V30 59 1 8 55
M  V30 60 1 11 56
M  V30 61 1 12 57
M  V30 62 1 18 58
M  V30 63 1 20 59
M  V30 64 1 21 60
M  V30 65 1 25 61
M  V30 66 1 26 62
M  V30 67 1 29 63
M  V30 68 1 29 64
M  V30 69 1 29 65
M  V30 70 1 32 66
M  V30 71 1 33 67
M  V30 72 1 34 68
M  V30 73 1 35 69
M  V30 74 1 39 70
M  V30 75 1 40 71
M  V30 76 1 41 72
M  V30 77 1 41 73
M  V30 78 1 42 74
M  V30 79 1 42 75
M  V30 END BOND
M  V30 END CTAB
M  END
>  <Dataset>  (46) 
ChEMBL_Kinases

>  <Ligand_Instance>  (46) 
nan

>  <PDB_ID>  (46) 
nan

>  <Standardized_SMILES>  (46) 
CN1CCN(CCCOc2ccc(N3C(=O)/C(=C/c4ccc(Oc5ccc(S(C)(=O)=O)cc5)cc4)SC3=S)cc2)CC1

>  <Name>  (46) 
nan

>  <Pocket>  (46) 
nan

>  <ATP_Site>  (46) 
nan

>  <Peripheral>  (46) 
nan

>  <Num_H_Atoms_ProtBoundConf>  (46) 
nan

>  <Num_Resolved_Atoms>  (46) 
nan

>  <Num_Not_Resolved_Atoms>  (46) 
nan

$$$$
CHEMBL3764998
     RDKit          3D

  0  0  0  0  0  0  0  0  0  0999 V3000
M  V30 BEGIN CTAB
M  V30 COUNTS 69 73 0 0 0
M  V30 BEGIN ATOM
M  V30 1 C 7.028985 0.862154 2.338953 0
M  V30 2 N 6.683970 -0.521860 2.082394 0
M  V30 3 C 7.742552 -1.198521 1.354065 0
M  V30 4 C 7.326635 -1.365430 -0.121199 0
M  V30 5 N 6.332081 -2.404502 -0.104116 0
M  V30 6 C 5.837218 -2.772940 -1.393563 0
M  V30 7 C 4.977666 -1.645047 -1.981807 0
M  V30 8 C 4.435807 -2.094401 -3.300567 0
M  V30 9 O 3.574300 -1.259863 -3.973068 0
M  V30 10 C 2.314939 -0.846021 -3.623831 0
M  V30 11 C 1.754567 -1.317560 -2.458519 0
M  V30 12 C 0.479797 -0.986033 -1.961697 0
M  V30 13 C -0.254377 -0.093325 -2.755512 0
M  V30 14 N -1.526667 0.125632 -2.088827 0
M  V30 15 C -2.778635 -0.568890 -2.295045 0
M  V30 16 O -2.802459 -1.442365 -3.217822 0
M  V30 17 C -3.798311 -0.076937 -1.334962 0
M  V30 18 C -4.766053 -0.904566 -1.001744 0
M  V30 19 C -5.706405 -0.273825 -0.036158 0
M  V30 20 C -7.040426 -0.456799 -0.254614 0
M  V30 21 C -7.896858 0.084687 0.680708 0
M  V30 22 C -7.425046 0.775700 1.778742 0
M  V30 23 O -7.993804 1.429047 2.886543 0
M  V30 24 C -8.132499 0.664408 4.077829 0
M  V30 25 C -8.638718 1.110546 5.277935 0
M  V30 26 C -8.691804 0.211415 6.337529 0
M  V30 27 C -8.266493 -1.104669 6.253922 0
M  V30 28 Br -8.369301 -2.268237 7.736378 0
M  V30 29 C -7.758972 -1.584303 5.079668 0
M  V30 30 C -7.709890 -0.670995 4.020005 0
M  V30 31 C -6.036610 0.932648 1.950234 0
M  V30 32 C -5.124399 0.396811 1.022275 0
M  V30 33 S -3.232963 1.584424 -1.010917 0
M  V30 34 C -1.465109 1.128475 -1.054982 0
M  V30 35 S -0.331511 1.794320 -0.097994 0
M  V30 36 C 0.264917 0.417488 -3.948517 0
M  V30 37 C 1.521372 0.018462 -4.326385 0
M  V30 38 C 5.317246 -2.071885 0.855499 0
M  V30 39 C 5.456248 -0.655288 1.346547 0
M  V30 40 H 7.022776 1.077342 3.443640 0
M  V30 41 H 8.081257 1.079109 1.983347 0
M  V30 42 H 6.360653 1.584422 1.855648 0
M  V30 43 H 7.812388 -2.218169 1.822257 0
M  V30 44 H 8.712962 -0.704133 1.459683 0
M  V30 45 H 8.233320 -1.811400 -0.636684 0
M  V30 46 H 7.031219 -0.420186 -0.573295 0
M  V30 47 H 6.689778 -2.938682 -2.087103 0
M  V30 48 H 5.233525 -3.711638 -1.374236 0
M  V30 49 H 5.752201 -0.814091 -2.161805 0
M  V30 50 H 4.264240 -1.301932 -1.251997 0
M  V30 51 H 3.863873 -3.052142 -3.078159 0
M  V30 52 H 5.281384 -2.461872 -3.950590 0
M  V30 53 H 2.287402 -2.031560 -1.850590 0
M  V30 54 H 0.174557 -1.429777 -1.031484 0
M  V30 55 H -4.879085 -1.910845 -1.376525 0
M  V30 56 H -7.552380 -0.960660 -1.047924 0
M  V30 57 H -8.980695 0.105795 0.777459 0
M  V30 58 H -8.951549 2.141344 5.265369 0
M  V30 59 H -9.103195 0.639351 7.249604 0
M  V30 60 H -7.413740 -2.595347 4.940127 0
M  V30 61 H -7.294633 -1.100055 3.101380 0
M  V30 62 H -5.480662 1.449574 2.752618 0
M  V30 63 H -4.050939 0.474908 1.100862 0
M  V30 64 H -0.428710 1.073715 -4.414774 0
M  V30 65 H 1.875741 0.437940 -5.247655 0
M  V30 66 H 5.434778 -2.729199 1.769080 0
M  V30 67 H 4.278198 -2.285836 0.507698 0
M  V30 68 H 5.446605 0.111292 0.544349 0
M  V30 69 H 4.606576 -0.455001 2.076646 0
M  V30 END ATOM
M  V30 BEGIN BOND
M  V30 1 1 1 2
M  V30 2 1 2 3
M  V30 3 1 3 4
M  V30 4 1 4 5
M  V30 5 1 5 6
M  V30 6 1 6 7
M  V30 7 1 7 8
M  V30 8 1 8 9
M  V30 9 1 9 10
M  V30 10 2 10 11
M  V30 11 1 11 12
M  V30 12 2 12 13
M  V30 13 1 13 14
M  V30 14 1 14 15
M  V30 15 2 15 16
M  V30 16 1 15 17
M  V30 17 2 17 18
M  V30 18 1 18 19
M  V30 19 2 19 20
M  V30 20 1 20 21
M  V30 21 2 21 22
M  V30 22 1 22 23
M  V30 23 1 23 24
M  V30 24 2 24 25
M  V30 25 1 25 26
M  V30 26 2 26 27
M  V30 27 1 27 28
M  V30 28 1 27 29
M  V30 29 2 29 30
M  V30 30 1 22 31
M  V30 31 2 31 32
M  V30 32 1 17 33
M  V30 33 1 33 34
M  V30 34 2 34 35
M  V30 35 1 13 36
M  V30 36 2 36 37
M  V30 37 1 5 38
M  V30 38 1 38 39
M  V30 39 1 39 2
M  V30 40 1 37 10
M  V30 41 1 34 14
M  V30 42 1 32 19
M  V30 43 1 30 24
M  V30 44 1 1 40
M  V30 45 1 1 41
M  V30 46 1 1 42
M  V30 47 1 3 43
M  V30 48 1 3 44
M  V30 49 1 4 45
M  V30 50 1 4 46
M  V30 51 1 6 47
M  V30 52 1 6 48
M  V30 53 1 7 49
M  V30 54 1 7 50
M  V30 55 1 8 51
M  V30 56 1 8 52
M  V30 57 1 11 53
M  V30 58 1 12 54
M  V30 59 1 18 55
M  V30 60 1 20 56
M  V30 61 1 21 57
M  V30 62 1 25 58
M  V30 63 1 26 59
M  V30 64 1 29 60
M  V30 65 1 30 61
M  V30 66 1 31 62
M  V30 67 1 32 63
M  V30 68 1 36 64
M  V30 69 1 37 65
M  V30 70 1 38 66
M  V30 71 1 38 67
M  V30 72 1 39 68
M  V30 73 1 39 69
M  V30 END BOND
M  V30 END CTAB
M  END
>  <Dataset>  (47) 
ChEMBL_Kinases

>  <Ligand_Instance>  (47) 
nan

>  <PDB_ID>  (47) 
nan

>  <Standardized_SMILES>  (47) 
CN1CCN(CCCOc2ccc(N3C(=O)/C(=C/c4ccc(Oc5ccc(Br)cc5)cc4)SC3=S)cc2)CC1

>  <Name>  (47) 
nan

>  <Pocket>  (47) 
nan

>  <ATP_Site>  (47) 
nan

>  <Peripheral>  (47) 
nan

>  <Num_H_Atoms_ProtBoundConf>  (47) 
nan

>  <Num_Resolved_Atoms>  (47) 
nan

>  <Num_Not_Resolved_Atoms>  (47) 
nan

$$$$
CHEMBL3765155
     RDKit          3D

  0  0  0  0  0  0  0  0  0  0999 V3000
M  V30 BEGIN CTAB
M  V30 COUNTS 71 75 0 0 0
M  V30 BEGIN ATOM
M  V30 1 C 2.096405 -5.487339 -1.561708 0
M  V30 2 N 2.621344 -5.623565 -2.867325 0
M  V30 3 C 3.444081 -6.713671 -3.167405 0
M  V30 4 C 4.295904 -6.587071 -4.384955 0
M  V30 5 N 4.700862 -5.172913 -4.598239 0
M  V30 6 C 5.545175 -4.839698 -3.539464 0
M  V30 7 C 6.263252 -3.556549 -3.438938 0
M  V30 8 C 5.478964 -2.294085 -3.301153 0
M  V30 9 O 4.706654 -2.360081 -2.131741 0
M  V30 10 C 3.839832 -1.405689 -1.646257 0
M  V30 11 C 3.444931 -0.153443 -2.074337 0
M  V30 12 C 2.533368 0.602446 -1.374070 0
M  V30 13 C 1.975611 0.127777 -0.204539 0
M  V30 14 N 1.022528 0.909131 0.515186 0
M  V30 15 C -0.354206 0.770219 0.196674 0
M  V30 16 O -0.896107 0.033132 -0.666269 0
M  V30 17 C -1.221447 1.616618 1.005056 0
M  V30 18 C -2.499020 1.586485 1.186621 0
M  V30 19 C -3.304555 2.469885 2.015482 0
M  V30 20 C -4.347950 1.940302 2.749534 0
M  V30 21 C -5.183071 2.672548 3.556738 0
M  V30 22 C -4.883947 4.018430 3.573212 0
M  V30 23 O -5.689306 4.850532 4.375865 0
M  V30 24 C -6.725981 4.320640 5.132624 0
M  V30 25 C -7.948855 4.269449 4.449161 0
M  V30 26 C -9.010081 3.739745 5.187124 0
M  V30 27 C -8.836633 3.310657 6.480355 0
M  V30 28 N -9.998633 2.780252 7.145586 0 CHG=1 VAL=4
M  V30 29 O -9.893758 2.369781 8.338005 0
M  V30 30 O -11.240721 2.682346 6.573875 0 CHG=-1 VAL=1
M  V30 31 C -7.634667 3.364452 7.143466 0
M  V30 32 C -6.560766 3.888339 6.429898 0
M  V30 33 C -3.880695 4.667583 2.894246 0
M  V30 34 C -3.076347 3.848854 2.095163 0
M  V30 35 S -0.151460 2.818852 1.788799 0
M  V30 36 C 1.354129 1.828523 1.548301 0
M  V30 37 S 2.813029 1.881505 2.283248 0
M  V30 38 C 2.338213 -1.119216 0.266518 0
M  V30 39 C 3.255137 -1.862180 -0.451341 0
M  V30 40 C 3.494408 -4.503303 -4.882190 0
M  V30 41 C 2.544683 -4.518031 -3.733176 0
M  V30 42 H 1.112729 -4.938377 -1.663374 0
M  V30 43 H 1.822818 -6.506876 -1.189718 0
M  V30 44 H 2.713228 -4.924147 -0.856500 0
M  V30 45 H 4.160228 -6.855491 -2.303318 0
M  V30 46 H 2.850769 -7.648830 -3.203804 0
M  V30 47 H 5.238847 -7.155661 -4.345428 0
M  V30 48 H 3.741661 -6.881675 -5.289251 0
M  V30 49 H 6.277184 -5.712006 -3.352053 0
M  V30 50 H 4.923947 -4.912420 -2.584551 0
M  V30 51 H 6.870936 -3.624339 -2.469610 0
M  V30 52 H 7.059642 -3.444037 -4.241780 0
M  V30 53 H 4.829947 -2.123256 -4.162302 0
M  V30 54 H 6.159334 -1.396169 -3.267853 0
M  V30 55 H 3.961536 0.091538 -3.001565 0
M  V30 56 H 2.296723 1.562281 -1.795454 0
M  V30 57 H -3.065667 0.814599 0.666113 0
M  V30 58 H -4.517771 0.853731 2.680089 0
M  V30 59 H -6.004153 2.281175 4.139562 0
M  V30 60 H -8.078677 4.604874 3.442873 0
M  V30 61 H -9.973383 3.680736 4.700251 0
M  V30 62 H -7.493709 3.033371 8.148384 0
M  V30 63 H -5.598571 3.951406 6.905918 0
M  V30 64 H -3.725996 5.733158 2.971854 0
M  V30 65 H -2.266957 4.283694 1.530123 0
M  V30 66 H 1.869924 -1.438522 1.186087 0
M  V30 67 H 3.444785 -2.828677 0.044144 0
M  V30 68 H 2.969717 -5.190796 -5.666147 0
M  V30 69 H 3.595522 -3.528425 -5.348613 0
M  V30 70 H 1.493836 -4.523185 -4.169573 0
M  V30 71 H 2.538538 -3.558752 -3.142531 0
M  V30 END ATOM
M  V30 BEGIN BOND
M  V30 1 1 1 2
M  V30 2 1 2 3
M  V30 3 1 3 4
M  V30 4 1 4 5
M  V30 5 1 5 6
M  V30 6 1 6 7
M  V30 7 1 7 8
M  V30 8 1 8 9
M  V30 9 1 9 10
M  V30 10 2 10 11
M  V30 11 1 11 12
M  V30 12 2 12 13
M  V30 13 1 13 14
M  V30 14 1 14 15
M  V30 15 2 15 16
M  V30 16 1 15 17
M  V30 17 2 17 18
M  V30 18 1 18 19
M  V30 19 2 19 20
M  V30 20 1 20 21
M  V30 21 2 21 22
M  V30 22 1 22 23
M  V30 23 1 23 24
M  V30 24 2 24 25
M  V30 25 1 25 26
M  V30 26 2 26 27
M  V30 27 1 27 28
M  V30 28 2 28 29
M  V30 29 1 28 30
M  V30 30 1 27 31
M  V30 31 2 31 32
M  V30 32 1 22 33
M  V30 33 2 33 34
M  V30 34 1 17 35
M  V30 35 1 35 36
M  V30 36 2 36 37
M  V30 37 1 13 38
M  V30 38 2 38 39
M  V30 39 1 5 40
M  V30 40 1 40 41
M  V30 41 1 41 2
M  V30 42 1 39 10
M  V30 43 1 36 14
M  V30 44 1 34 19
M  V30 45 1 32 24
M  V30 46 1 1 42
M  V30 47 1 1 43
M  V30 48 1 1 44
M  V30 49 1 3 45
M  V30 50 1 3 46
M  V30 51 1 4 47
M  V30 52 1 4 48
M  V30 53 1 6 49
M  V30 54 1 6 50
M  V30 55 1 7 51
M  V30 56 1 7 52
M  V30 57 1 8 53
M  V30 58 1 8 54
M  V30 59 1 11 55
M  V30 60 1 12 56
M  V30 61 1 18 57
M  V30 62 1 20 58
M  V30 63 1 21 59
M  V30 64 1 25 60
M  V30 65 1 26 61
M  V30 66 1 31 62
M  V30 67 1 32 63
M  V30 68 1 33 64
M  V30 69 1 34 65
M  V30 70 1 38 66
M  V30 71 1 39 67
M  V30 72 1 40 68
M  V30 73 1 40 69
M  V30 74 1 41 70
M  V30 75 1 41 71
M  V30 END BOND
M  V30 END CTAB
M  END
>  <Dataset>  (48) 
ChEMBL_Kinases

>  <Ligand_Instance>  (48) 
nan

>  <PDB_ID>  (48) 
nan

>  <Standardized_SMILES>  (48) 
CN1CCN(CCCOc2ccc(N3C(=O)/C(=C/c4ccc(Oc5ccc([N+](=O)[O-])cc5)cc4)SC3=S)cc2)CC1

>  <Name>  (48) 
nan

>  <Pocket>  (48) 
nan

>  <ATP_Site>  (48) 
nan

>  <Peripheral>  (48) 
nan

>  <Num_H_Atoms_ProtBoundConf>  (48) 
nan

>  <Num_Resolved_Atoms>  (48) 
nan

>  <Num_Not_Resolved_Atoms>  (48) 
nan

$$$$
CHEMBL4161221
     RDKit          3D

  0  0  0  0  0  0  0  0  0  0999 V3000
M  V30 BEGIN CTAB
M  V30 COUNTS 68 71 0 0 0
M  V30 BEGIN ATOM
M  V30 1 C 6.466436 -3.340310 2.985672 0
M  V30 2 N 5.043009 -3.556060 2.868311 0
M  V30 3 C 4.042733 -2.666117 3.061761 0
M  V30 4 C 2.839642 -3.271560 2.850628 0
M  V30 5 C 1.458810 -2.799159 2.916784 0
M  V30 6 C 1.261513 -1.571198 2.499502 0
M  V30 7 C 2.120748 -0.490548 1.952832 0
M  V30 8 C 1.170417 0.252228 1.023874 0
M  V30 9 C 1.230228 -0.385835 -0.369678 0
M  V30 10 O 0.953314 -1.753448 -0.268884 0
M  V30 11 C 1.475666 1.716664 0.961072 0
M  V30 12 O 0.573070 2.379745 0.134157 0
M  V30 13 C -0.758452 2.520286 0.395489 0
M  V30 14 O -1.450049 2.130853 1.362774 0
M  V30 15 C -1.476352 3.274742 -0.682758 0
M  V30 16 C -1.381286 2.646731 -2.030355 0
M  V30 17 C -2.586765 1.903107 -2.475667 0
M  V30 18 C -3.419125 1.426142 -1.320848 0
M  V30 19 C -4.567584 0.567044 -1.753475 0
M  V30 20 C -5.543717 1.222569 -2.676566 0
M  V30 21 C -4.074327 -0.729747 -2.395872 0
M  V30 22 C -5.311410 0.132449 -0.489874 0
M  V30 23 C -3.914875 2.624559 -0.581492 0
M  V30 24 C -2.862592 3.628111 -0.250165 0
M  V30 25 O -0.107808 0.076296 1.557561 0
M  V30 26 C -0.068788 -0.942586 2.498246 0
M  V30 27 O -1.100989 -1.204758 3.202167 0
M  V30 28 C 3.099238 -4.595696 2.510899 0
M  V30 29 C 2.297272 -5.693364 2.186221 0
M  V30 30 C 2.835088 -6.932471 1.880531 0
M  V30 31 C 4.226896 -7.053593 1.907158 0
M  V30 32 C 5.029982 -5.982202 2.224931 0
M  V30 33 C 4.486986 -4.755301 2.527173 0
M  V30 34 H 6.679168 -2.334603 2.565527 0
M  V30 35 H 7.009750 -4.062404 2.313628 0
M  V30 36 H 6.859669 -3.503499 3.999200 0
M  V30 37 H 4.136038 -1.632783 3.339101 0
M  V30 38 H 0.650210 -3.416245 3.284067 0
M  V30 39 H 2.930959 -0.936406 1.347056 0
M  V30 40 H 2.495330 0.185651 2.722686 0
M  V30 41 H 0.459606 0.084730 -1.004435 0
M  V30 42 H 2.210103 -0.216145 -0.829653 0
M  V30 43 H 1.705668 -2.269062 -0.686716 0
M  V30 44 H 1.382988 2.074681 2.038564 0
M  V30 45 H 2.527504 1.911250 0.636777 0
M  V30 46 H -0.931609 4.249757 -0.737531 0
M  V30 47 H -1.162585 3.424186 -2.825747 0
M  V30 48 H -0.498851 1.975333 -2.096515 0
M  V30 49 H -2.272434 1.084107 -3.156514 0
M  V30 50 H -3.223605 2.575645 -3.087568 0
M  V30 51 H -2.832737 0.811958 -0.608999 0
M  V30 52 H -6.111300 0.379104 -3.170364 0
M  V30 53 H -5.035076 1.734070 -3.492234 0
M  V30 54 H -6.313664 1.812043 -2.152437 0
M  V30 55 H -4.028460 -0.541999 -3.479290 0
M  V30 56 H -4.703240 -1.599359 -2.107054 0
M  V30 57 H -3.075886 -0.934405 -1.956020 0
M  V30 58 H -5.747246 -0.881485 -0.641729 0
M  V30 59 H -6.128317 0.835944 -0.249897 0
M  V30 60 H -4.593114 0.013621 0.361886 0
M  V30 61 H -4.436389 2.252076 0.336637 0
M  V30 62 H -4.737585 3.072868 -1.203414 0
M  V30 63 H -3.169963 4.605140 -0.684631 0
M  V30 64 H -2.839778 3.777059 0.850273 0
M  V30 65 H 1.209770 -5.568159 2.174041 0
M  V30 66 H 2.138154 -7.727976 1.640156 0
M  V30 67 H 4.561211 -8.051521 1.656942 0
M  V30 68 H 6.081553 -6.141605 2.226866 0
M  V30 END ATOM
M  V30 BEGIN BOND
M  V30 1 1 1 2
M  V30 2 1 2 3
M  V30 3 2 3 4
M  V30 4 1 4 5
M  V30 5 2 5 6
M  V30 6 1 6 7
M  V30 7 1 7 8
M  V30 8 1 8 9
M  V30 9 1 9 10
M  V30 10 1 8 11
M  V30 11 1 11 12
M  V30 12 1 12 13
M  V30 13 2 13 14
M  V30 14 1 13 15
M  V30 15 1 15 16
M  V30 16 1 16 17
M  V30 17 1 17 18
M  V30 18 1 18 19
M  V30 19 1 19 20
M  V30 20 1 19 21
M  V30 21 1 19 22
M  V30 22 1 18 23
M  V30 23 1 23 24
M  V30 24 1 8 25
M  V30 25 1 25 26
M  V30 26 2 26 27
M  V30 27 1 4 28
M  V30 28 2 28 29
M  V30 29 1 29 30
M  V30 30 2 30 31
M  V30 31 1 31 32
M  V30 32 2 32 33
M  V30 33 1 33 2
M  V30 34 1 26 6
M  V30 35 1 33 28
M  V30 36 1 24 15
M  V30 37 1 1 34
M  V30 38 1 1 35
M  V30 39 1 1 36
M  V30 40 1 3 37
M  V30 41 1 5 38
M  V30 42 1 7 39
M  V30 43 1 7 40
M  V30 44 1 9 41
M  V30 45 1 9 42
M  V30 46 1 10 43
M  V30 47 1 11 44
M  V30 48 1 11 45
M  V30 49 1 15 46
M  V30 50 1 16 47
M  V30 51 1 16 48
M  V30 52 1 17 49
M  V30 53 1 17 50
M  V30 54 1 18 51
M  V30 55 1 20 52
M  V30 56 1 20 53
M  V30 57 1 20 54
M  V30 58 1 21 55
M  V30 59 1 21 56
M  V30 60 1 21 57
M  V30 61 1 22 58
M  V30 62 1 22 59
M  V30 63 1 22 60
M  V30 64 1 23 61
M  V30 65 1 23 62
M  V30 66 1 24 63
M  V30 67 1 24 64
M  V30 68 1 29 65
M  V30 69 1 30 66
M  V30 70 1 31 67
M  V30 71 1 32 68
M  V30 END BOND
M  V30 END CTAB
M  END
>  <Dataset>  (49) 
ChEMBL_Kinases

>  <Ligand_Instance>  (49) 
nan

>  <PDB_ID>  (49) 
nan

>  <Standardized_SMILES>  (49) 
Cn1cc(/C=C2\CC(CO)(COC(=O)C3CCC(C(C)(C)C)CC3)OC2=O)c2ccccc21

>  <Name>  (49) 
nan

>  <Pocket>  (49) 
nan

>  <ATP_Site>  (49) 
nan

>  <Peripheral>  (49) 
nan

>  <Num_H_Atoms_ProtBoundConf>  (49) 
nan

>  <Num_Resolved_Atoms>  (49) 
nan

>  <Num_Not_Resolved_Atoms>  (49) 
nan

$$$$
CHEMBL3765189
     RDKit          3D

  0  0  0  0  0  0  0  0  0  0999 V3000
M  V30 BEGIN CTAB
M  V30 COUNTS 73 77 0 0 0
M  V30 BEGIN ATOM
M  V30 1 C 8.012686 4.063766 6.995051 0
M  V30 2 O 8.497787 3.375835 5.858887 0
M  V30 3 C 8.085340 3.691456 4.567866 0
M  V30 4 C 7.173082 4.698388 4.306273 0
M  V30 5 C 6.820253 4.941499 2.973277 0
M  V30 6 C 7.345215 4.219287 1.918318 0
M  V30 7 O 6.956680 4.507519 0.620364 0
M  V30 8 C 5.892560 3.907787 -0.016155 0
M  V30 9 C 5.594364 4.278510 -1.309822 0
M  V30 10 C 4.533321 3.711640 -2.009749 0
M  V30 11 C 3.719761 2.745158 -1.445266 0
M  V30 12 C 2.598027 2.096624 -2.110180 0
M  V30 13 C 1.496556 1.821376 -1.441595 0
M  V30 14 S 1.022849 2.091067 0.260024 0
M  V30 15 C -0.609793 1.360097 0.101482 0
M  V30 16 S -1.554174 1.322495 1.429345 0
M  V30 17 N -0.743874 0.933051 -1.250507 0
M  V30 18 C -2.001016 0.321348 -1.524820 0
M  V30 19 C -1.963776 -1.057021 -1.271476 0
M  V30 20 C -3.118991 -1.771605 -1.490533 0
M  V30 21 C -4.297952 -1.232138 -1.937317 0
M  V30 22 O -5.525047 -1.761345 -2.211023 0
M  V30 23 C -6.002432 -3.046392 -2.137727 0
M  V30 24 C -5.346749 -4.071785 -3.036721 0
M  V30 25 C -6.043075 -5.374965 -2.732926 0
M  V30 26 N -5.896759 -5.707709 -1.362526 0
M  V30 27 C -6.694311 -6.894902 -1.003047 0
M  V30 28 C -6.199575 -7.357015 0.348784 0
M  V30 29 N -5.862243 -6.234579 1.209953 0
M  V30 30 C -5.465409 -6.714690 2.515862 0
M  V30 31 C -4.718104 -5.502081 0.674785 0
M  V30 32 C -4.586166 -5.812016 -0.830970 0
M  V30 33 C -4.300612 0.144717 -2.180763 0
M  V30 34 C -3.147316 0.912459 -1.971401 0
M  V30 35 C 0.377815 1.176459 -2.080448 0
M  V30 36 O 0.287554 0.803596 -3.301581 0
M  V30 37 C 4.047148 2.398941 -0.150042 0
M  V30 38 C 5.091127 2.946129 0.559432 0
M  V30 39 C 8.258295 3.212488 2.187918 0
M  V30 40 C 8.593011 2.987040 3.498919 0
M  V30 41 H 8.102643 3.431788 7.908527 0
M  V30 42 H 6.946042 4.315894 6.876674 0
M  V30 43 H 8.653001 4.978246 7.119961 0
M  V30 44 H 6.746619 5.279257 5.097140 0
M  V30 45 H 6.092017 5.748588 2.792560 0
M  V30 46 H 6.206825 5.036297 -1.799428 0
M  V30 47 H 4.300805 4.008098 -3.035912 0
M  V30 48 H 2.729115 1.865202 -3.158709 0
M  V30 49 H -1.100203 -1.632416 -0.912930 0
M  V30 50 H -3.166748 -2.830823 -1.308126 0
M  V30 51 H -6.084223 -3.449772 -1.097370 0
M  V30 52 H -7.082827 -3.026071 -2.486235 0
M  V30 53 H -5.530458 -3.786936 -4.124920 0
M  V30 54 H -4.278574 -4.168020 -2.857402 0
M  V30 55 H -7.101805 -5.365786 -3.077146 0
M  V30 56 H -5.530866 -6.147847 -3.365952 0
M  V30 57 H -7.744034 -6.583666 -0.989239 0
M  V30 58 H -6.519464 -7.673307 -1.756994 0
M  V30 59 H -7.050666 -7.874058 0.879496 0
M  V30 60 H -5.381722 -8.083288 0.283667 0
M  V30 61 H -5.254973 -7.801992 2.546087 0
M  V30 62 H -4.552144 -6.162069 2.887689 0
M  V30 63 H -6.290086 -6.466396 3.246018 0
M  V30 64 H -4.941682 -4.435142 0.747869 0
M  V30 65 H -3.788849 -5.735810 1.222476 0
M  V30 66 H -3.890680 -5.128080 -1.299988 0
M  V30 67 H -4.199649 -6.864152 -0.930184 0
M  V30 68 H -5.126940 0.748278 -2.534368 0
M  V30 69 H -3.082758 1.977553 -2.139996 0
M  V30 70 H 3.513430 1.659385 0.431180 0
M  V30 71 H 5.355910 2.681516 1.575008 0
M  V30 72 H 8.647630 2.669279 1.341261 0
M  V30 73 H 9.319989 2.180139 3.662468 0
M  V30 END ATOM
M  V30 BEGIN BOND
M  V30 1 1 1 2
M  V30 2 1 2 3
M  V30 3 2 3 4
M  V30 4 1 4 5
M  V30 5 2 5 6
M  V30 6 1 6 7
M  V30 7 1 7 8
M  V30 8 2 8 9
M  V30 9 1 9 10
M  V30 10 2 10 11
M  V30 11 1 11 12
M  V30 12 2 12 13
M  V30 13 1 13 14
M  V30 14 1 14 15
M  V30 15 2 15 16
M  V30 16 1 15 17
M  V30 17 1 17 18
M  V30 18 2 18 19
M  V30 19 1 19 20
M  V30 20 2 20 21
M  V30 21 1 21 22
M  V30 22 1 22 23
M  V30 23 1 23 24
M  V30 24 1 24 25
M  V30 25 1 25 26
M  V30 26 1 26 27
M  V30 27 1 27 28
M  V30 28 1 28 29
M  V30 29 1 29 30
M  V30 30 1 29 31
M  V30 31 1 31 32
M  V30 32 1 21 33
M  V30 33 2 33 34
M  V30 34 1 17 35
M  V30 35 2 35 36
M  V30 36 1 11 37
M  V30 37 2 37 38
M  V30 38 1 6 39
M  V30 39 2 39 40
M  V30 40 1 40 3
M  V30 41 1 38 8
M  V30 42 1 35 13
M  V30 43 1 34 18
M  V30 44 1 32 26
M  V30 45 1 1 41
M  V30 46 1 1 42
M  V30 47 1 1 43
M  V30 48 1 4 44
M  V30 49 1 5 45
M  V30 50 1 9 46
M  V30 51 1 10 47
M  V30 52 1 12 48
M  V30 53 1 19 49
M  V30 54 1 20 50
M  V30 55 1 23 51
M  V30 56 1 23 52
M  V30 57 1 24 53
M  V30 58 1 24 54
M  V30 59 1 25 55
M  V30 60 1 25 56
M  V30 61 1 27 57
M  V30 62 1 27 58
M  V30 63 1 28 59
M  V30 64 1 28 60
M  V30 65 1 30 61
M  V30 66 1 30 62
M  V30 67 1 30 63
M  V30 68 1 31 64
M  V30 69 1 31 65
M  V30 70 1 32 66
M  V30 71 1 32 67
M  V30 72 1 33 68
M  V30 73 1 34 69
M  V30 74 1 37 70
M  V30 75 1 38 71
M  V30 76 1 39 72
M  V30 77 1 40 73
M  V30 END BOND
M  V30 END CTAB
M  END
>  <Dataset>  (50) 
ChEMBL_Kinases

>  <Ligand_Instance>  (50) 
nan

>  <PDB_ID>  (50) 
nan

>  <Standardized_SMILES>  (50) 
COc1ccc(Oc2ccc(/C=C3\SC(=S)N(c4ccc(OCCCN5CCN(C)CC5)cc4)C3=O)cc2)cc1

>  <Name>  (50) 
nan

>  <Pocket>  (50) 
nan

>  <ATP_Site>  (50) 
nan

>  <Peripheral>  (50) 
nan

>  <Num_H_Atoms_ProtBoundConf>  (50) 
nan

>  <Num_Resolved_Atoms>  (50) 
nan

>  <Num_Not_Resolved_Atoms>  (50) 
nan

$$$$
CHEMBL4161062
     RDKit          3D

  0  0  0  0  0  0  0  0  0  0999 V3000
M  V30 BEGIN CTAB
M  V30 COUNTS 52 54 0 0 0
M  V30 BEGIN ATOM
M  V30 1 C 0.022535 -6.347432 1.207134 0
M  V30 2 N 0.343702 -5.348244 0.179055 0
M  V30 3 C 0.803867 -4.093034 0.335122 0
M  V30 4 C 0.980489 -3.470503 -0.890798 0
M  V30 5 C 1.438242 -2.109103 -1.123797 0
M  V30 6 C 1.049286 -0.932192 -0.643650 0
M  V30 7 C 1.472723 0.481164 -0.833339 0
M  V30 8 C 0.877206 1.105648 0.420930 0
M  V30 9 C 1.760225 0.734855 1.595928 0
M  V30 10 O 2.958992 1.438496 1.465877 0
M  V30 11 C 0.765391 2.572795 0.350805 0
M  V30 12 O 0.073879 3.086672 1.449267 0
M  V30 13 C -1.216338 2.915526 1.801957 0
M  V30 14 O -2.007653 2.220893 1.115945 0
M  V30 15 C -1.681629 3.583960 3.045784 0
M  V30 16 C -0.981707 3.132903 4.285022 0
M  V30 17 C -1.496452 5.083513 2.899557 0
M  V30 18 C -3.160958 3.296141 3.187044 0
M  V30 19 O -0.361009 0.450683 0.462502 0
M  V30 20 C -0.102378 -0.896328 0.249183 0
M  V30 21 O -0.771691 -1.846769 0.757413 0
M  V30 22 C 0.605840 -4.401613 -1.858429 0
M  V30 23 C 0.553195 -4.387223 -3.240570 0
M  V30 24 C 0.112378 -5.522747 -3.929783 0
M  V30 25 Cl 0.019209 -5.577233 -5.658236 0
M  V30 26 C -0.276419 -6.672193 -3.252711 0
M  V30 27 C -0.216537 -6.666867 -1.858207 0
M  V30 28 C 0.221703 -5.539470 -1.160405 0
M  V30 29 H 0.517301 -5.997996 2.151012 0
M  V30 30 H -1.079540 -6.250884 1.427820 0
M  V30 31 H 0.333407 -7.354137 0.932571 0
M  V30 32 H 0.980387 -3.752018 1.325928 0
M  V30 33 H 2.274260 -2.031681 -1.841732 0
M  V30 34 H 2.559345 0.618374 -0.912657 0
M  V30 35 H 0.976410 0.907063 -1.716864 0
M  V30 36 H 1.279135 1.038960 2.534414 0
M  V30 37 H 1.912218 -0.350487 1.607119 0
M  V30 38 H 3.681608 0.820686 1.194154 0
M  V30 39 H 1.764315 3.049536 0.226907 0
M  V30 40 H 0.180451 2.902929 -0.567476 0
M  V30 41 H -0.729270 2.051409 4.312263 0
M  V30 42 H -1.714647 3.263148 5.127259 0
M  V30 43 H -0.119444 3.787087 4.572170 0
M  V30 44 H -1.648976 5.295969 1.820192 0
M  V30 45 H -0.452601 5.328176 3.169995 0
M  V30 46 H -2.238573 5.575413 3.552631 0
M  V30 47 H -3.332083 2.242538 2.867607 0
M  V30 48 H -3.557608 3.407354 4.194545 0
M  V30 49 H -3.709091 3.920046 2.435262 0
M  V30 50 H 0.848422 -3.511898 -3.764064 0
M  V30 51 H -0.627668 -7.585859 -3.718712 0
M  V30 52 H -0.519506 -7.562572 -1.305253 0
M  V30 END ATOM
M  V30 BEGIN BOND
M  V30 1 1 1 2
M  V30 2 1 2 3
M  V30 3 2 3 4
M  V30 4 1 4 5
M  V30 5 2 5 6
M  V30 6 1 6 7
M  V30 7 1 7 8
M  V30 8 1 8 9
M  V30 9 1 9 10
M  V30 10 1 8 11
M  V30 11 1 11 12
M  V30 12 1 12 13
M  V30 13 2 13 14
M  V30 14 1 13 15
M  V30 15 1 15 16
M  V30 16 1 15 17
M  V30 17 1 15 18
M  V30 18 1 8 19
M  V30 19 1 19 20
M  V30 20 2 20 21
M  V30 21 1 4 22
M  V30 22 2 22 23
M  V30 23 1 23 24
M  V30 24 1 24 25
M  V30 25 2 24 26
M  V30 26 1 26 27
M  V30 27 2 27 28
M  V30 28 1 28 2
M  V30 29 1 20 6
M  V30 30 1 28 22
M  V30 31 1 1 29
M  V30 32 1 1 30
M  V30 33 1 1 31
M  V30 34 1 3 32
M  V30 35 1 5 33
M  V30 36 1 7 34
M  V30 37 1 7 35
M  V30 38 1 9 36
M  V30 39 1 9 37
M  V30 40 1 10 38
M  V30 41 1 11 39
M  V30 42 1 11 40
M  V30 43 1 16 41
M  V30 44 1 16 42
M  V30 45 1 16 43
M  V30 46 1 17 44
M  V30 47 1 17 45
M  V30 48 1 17 46
M  V30 49 1 18 47
M  V30 50 1 18 48
M  V30 51 1 18 49
M  V30 52 1 23 50
M  V30 53 1 26 51
M  V30 54 1 27 52
M  V30 END BOND
M  V30 END CTAB
M  END
>  <Dataset>  (51) 
ChEMBL_Kinases

>  <Ligand_Instance>  (51) 
nan

>  <PDB_ID>  (51) 
nan

>  <Standardized_SMILES>  (51) 
Cn1cc(/C=C2/CC(CO)(COC(=O)C(C)(C)C)OC2=O)c2cc(Cl)ccc21

>  <Name>  (51) 
nan

>  <Pocket>  (51) 
nan

>  <ATP_Site>  (51) 
nan

>  <Peripheral>  (51) 
nan

>  <Num_H_Atoms_ProtBoundConf>  (51) 
nan

>  <Num_Resolved_Atoms>  (51) 
nan

>  <Num_Not_Resolved_Atoms>  (51) 
nan

$$$$
CHEMBL4161027
     RDKit          3D

  0  0  0  0  0  0  0  0  0  0999 V3000
M  V30 BEGIN CTAB
M  V30 COUNTS 63 67 0 0 0
M  V30 BEGIN ATOM
M  V30 1 C 3.726201 -2.301978 5.935822 0
M  V30 2 C 4.782208 -1.213159 5.984532 0
M  V30 3 C 5.352275 -1.083766 4.602250 0
M  V30 4 N 4.331894 -0.730610 3.648541 0
M  V30 5 C 3.541586 0.450150 3.701306 0
M  V30 6 O 3.813113 1.205326 4.694996 0
M  V30 7 C 2.513414 0.784723 2.722662 0
M  V30 8 C 2.146778 0.035496 1.617278 0
M  V30 9 C 1.151726 0.491787 0.786011 0
M  V30 10 C 0.474474 1.662885 0.969819 0
M  V30 11 C 0.833615 2.418177 2.071214 0
M  V30 12 C 0.021225 3.532695 2.038957 0
M  V30 13 C -0.819117 3.473454 0.949754 0
M  V30 14 N -0.513007 2.318443 0.321591 0
M  V30 15 C -1.086577 1.770652 -0.863555 0
M  V30 16 N -1.206842 2.480192 -2.000922 0
M  V30 17 C -1.751457 1.960847 -3.126832 0
M  V30 18 C -2.199332 0.649414 -3.099192 0
M  V30 19 C -2.065734 -0.066631 -1.913438 0
M  V30 20 N -1.517441 0.492599 -0.819190 0
M  V30 21 N -2.517467 -1.412705 -1.859941 0
M  V30 22 C -2.969160 -1.991429 -0.643773 0
M  V30 23 C -3.089635 -1.453395 0.619294 0
M  V30 24 C -3.575778 -2.389012 1.508856 0
M  V30 25 N -3.749031 -3.512746 0.755514 0
M  V30 26 C -4.255735 -4.758325 1.316377 0
M  V30 27 N -3.394295 -3.261575 -0.478033 0
M  V30 28 C -2.517048 -2.203152 -3.067788 0
M  V30 29 C -1.073589 -2.329849 -3.524486 0
M  V30 30 C -0.194578 -2.994706 -2.511652 0
M  V30 31 C -3.221700 -1.365835 -4.096068 0
M  V30 32 O -4.156022 -1.751755 -4.851659 0
M  V30 33 N -2.793571 -0.012207 -4.227885 0
M  V30 34 C -2.931974 0.737522 -5.464512 0
M  V30 35 C 1.830547 1.976024 2.917117 0
M  V30 36 H 3.198505 -2.235148 4.952127 0
M  V30 37 H 2.981367 -2.226673 6.749423 0
M  V30 38 H 4.259143 -3.270419 5.918478 0
M  V30 39 H 5.593686 -1.607454 6.647015 0
M  V30 40 H 4.384650 -0.284936 6.396326 0
M  V30 41 H 6.157651 -0.324581 4.538831 0
M  V30 42 H 5.770241 -2.053817 4.328375 0
M  V30 43 H 4.113869 -1.363857 2.826448 0
M  V30 44 H 2.673367 -0.874879 1.474542 0
M  V30 45 H 0.879854 -0.117108 -0.080101 0
M  V30 46 H 0.023237 4.349228 2.752738 0
M  V30 47 H -1.586567 4.143171 0.585630 0
M  V30 48 H -1.856275 2.515845 -4.049700 0
M  V30 49 H -2.846416 -0.448847 0.898074 0
M  V30 50 H -3.759001 -2.205819 2.569892 0
M  V30 51 H -3.405893 -5.328913 1.745597 0
M  V30 52 H -4.723170 -5.357272 0.504306 0
M  V30 53 H -5.054344 -4.593743 2.066963 0
M  V30 54 H -3.013265 -3.166325 -2.962265 0
M  V30 55 H -1.045038 -2.891382 -4.484460 0
M  V30 56 H -0.663081 -1.320341 -3.730925 0
M  V30 57 H 0.846730 -2.664865 -2.712546 0
M  V30 58 H -0.223949 -4.095753 -2.541491 0
M  V30 59 H -0.435254 -2.631073 -1.498377 0
M  V30 60 H -3.438892 0.116762 -6.216388 0
M  V30 61 H -3.534470 1.660674 -5.226046 0
M  V30 62 H -1.945579 1.128149 -5.813840 0
M  V30 63 H 2.073465 2.609253 3.768702 0
M  V30 END ATOM
M  V30 BEGIN BOND
M  V30 1 1 1 2
M  V30 2 1 2 3
M  V30 3 1 3 4
M  V30 4 1 4 5
M  V30 5 2 5 6
M  V30 6 1 5 7
M  V30 7 2 7 8
M  V30 8 1 8 9
M  V30 9 2 9 10
M  V30 10 1 10 11
M  V30 11 1 11 12
M  V30 12 2 12 13
M  V30 13 1 13 14
M  V30 14 1 14 15
M  V30 15 2 15 16
M  V30 16 1 16 17
M  V30 17 2 17 18
M  V30 18 1 18 19
M  V30 19 2 19 20
M  V30 20 1 19 21
M  V30 21 1 21 22
M  V30 22 1 22 23
M  V30 23 2 23 24
M  V30 24 1 24 25
M  V30 25 1 25 26
M  V30 26 1 25 27
M  V30 27 1 21 28
M  V30 28 1 28 29
M  V30 29 1 29 30
M  V30 30 1 28 31
M  V30 31 2 31 32
M  V30 32 1 31 33
M  V30 33 1 33 34
M  V30 34 2 11 35
M  V30 35 1 35 7
M  V30 36 1 14 10
M  V30 37 1 20 15
M  V30 38 2 27 22
M  V30 39 1 33 18
M  V30 40 1 1 36
M  V30 41 1 1 37
M  V30 42 1 1 38
M  V30 43 1 2 39
M  V30 44 1 2 40
M  V30 45 1 3 41
M  V30 46 1 3 42
M  V30 47 1 4 43
M  V30 48 1 8 44
M  V30 49 1 9 45
M  V30 50 1 12 46
M  V30 51 1 13 47
M  V30 52 1 17 48
M  V30 53 1 23 49
M  V30 54 1 24 50
M  V30 55 1 26 51
M  V30 56 1 26 52
M  V30 57 1 26 53
M  V30 58 1 28 54
M  V30 59 1 29 55
M  V30 60 1 29 56
M  V30 61 1 30 57
M  V30 62 1 30 58
M  V30 63 1 30 59
M  V30 64 1 34 60
M  V30 65 1 34 61
M  V30 66 1 34 62
M  V30 67 1 35 63
M  V30 END BOND
M  V30 END CTAB
M  END
>  <Dataset>  (52) 
ChEMBL_Kinases

>  <Ligand_Instance>  (52) 
nan

>  <PDB_ID>  (52) 
nan

>  <Standardized_SMILES>  (52) 
CCCNC(=O)c1ccc2c(ccn2-c2ncc3c(n2)N(c2ccn(C)n2)C(CC)C(=O)N3C)c1

>  <Name>  (52) 
nan

>  <Pocket>  (52) 
nan

>  <ATP_Site>  (52) 
nan

>  <Peripheral>  (52) 
nan

>  <Num_H_Atoms_ProtBoundConf>  (52) 
nan

>  <Num_Resolved_Atoms>  (52) 
nan

>  <Num_Not_Resolved_Atoms>  (52) 
nan

$$$$
CHEMBL3763698
     RDKit          3D

  0  0  0  0  0  0  0  0  0  0999 V3000
M  V30 BEGIN CTAB
M  V30 COUNTS 72 76 0 0 0
M  V30 BEGIN ATOM
M  V30 1 C 9.330439 0.632435 6.332381 0
M  V30 2 C 8.528853 1.624211 5.577845 0
M  V30 3 C 7.231938 1.813034 5.979388 0
M  V30 4 C 6.395368 2.716220 5.338207 0
M  V30 5 C 6.870009 3.451699 4.264273 0
M  V30 6 O 5.945404 4.320487 3.703938 0
M  V30 7 C 5.061086 3.951671 2.698011 0
M  V30 8 C 4.114626 4.777441 2.116974 0
M  V30 9 C 3.293317 4.281900 1.121804 0
M  V30 10 C 3.424313 2.977845 0.720094 0
M  V30 11 C 2.602600 2.313610 -0.310556 0
M  V30 12 C 1.301416 2.560572 -0.389132 0
M  V30 13 S 0.232900 3.642849 0.595151 0
M  V30 14 C -1.204223 2.539336 0.410844 0
M  V30 15 S -2.444011 2.269037 1.435355 0
M  V30 16 N -0.972209 1.950069 -0.888038 0
M  V30 17 C -2.101626 1.409750 -1.593671 0
M  V30 18 C -2.211882 0.061065 -1.228775 0
M  V30 19 C -3.217444 -0.732147 -1.750213 0
M  V30 20 C -4.140175 -0.230374 -2.640571 0
M  V30 21 O -5.216431 -0.714384 -3.326778 0
M  V30 22 C -5.683398 -2.018934 -3.298960 0
M  V30 23 C -4.693152 -2.982450 -3.852682 0
M  V30 24 C -5.136566 -4.427863 -3.830894 0
M  V30 25 N -5.405303 -4.929364 -2.497473 0
M  V30 26 C -5.827763 -6.304993 -2.677701 0
M  V30 27 C -5.796551 -7.143996 -1.453442 0
M  V30 28 N -5.471718 -6.472446 -0.247796 0
M  V30 29 C -6.546925 -6.333584 0.695385 0
M  V30 30 C -4.564534 -5.383416 -0.321355 0
M  V30 31 C -4.155152 -5.028158 -1.727602 0
M  V30 32 C -4.007507 1.124559 -2.989661 0
M  V30 33 C -3.005275 1.946124 -2.480012 0
M  V30 34 C 0.380057 1.957476 -1.330763 0
M  V30 35 O 0.686229 1.460074 -2.468796 0
M  V30 36 C 4.348863 2.096568 1.256683 0
M  V30 37 C 5.171329 2.621470 2.265022 0
M  V30 38 C 8.168178 3.281417 3.841510 0
M  V30 39 C 8.976374 2.367354 4.508946 0
M  V30 40 H 9.087927 0.759828 7.411182 0
M  V30 41 H 9.016935 -0.421287 6.082892 0
M  V30 42 H 10.414594 0.769458 6.186578 0
M  V30 43 H 6.793124 1.263671 6.821638 0
M  V30 44 H 5.371394 2.828744 5.696787 0
M  V30 45 H 4.048401 5.780875 2.459051 0
M  V30 46 H 2.541421 4.883882 0.638777 0
M  V30 47 H 3.024150 1.606249 -1.037496 0
M  V30 48 H -1.598495 -0.527733 -0.551761 0
M  V30 49 H -3.402638 -1.757395 -1.534881 0
M  V30 50 H -5.974775 -2.354069 -2.266189 0
M  V30 51 H -6.612639 -2.119617 -3.902128 0
M  V30 52 H -4.637576 -2.742245 -4.968827 0
M  V30 53 H -3.668715 -2.922511 -3.511437 0
M  V30 54 H -6.075137 -4.513821 -4.413272 0
M  V30 55 H -4.320776 -5.022061 -4.275140 0
M  V30 56 H -6.788460 -6.367605 -3.231837 0
M  V30 57 H -5.074985 -6.734676 -3.403402 0
M  V30 58 H -5.098877 -8.014212 -1.550201 0
M  V30 59 H -6.812213 -7.586785 -1.322019 0
M  V30 60 H -7.392264 -6.975066 0.408670 0
M  V30 61 H -6.182108 -6.598795 1.717254 0
M  V30 62 H -6.855035 -5.251738 0.736003 0
M  V30 63 H -5.022205 -4.513047 0.195451 0
M  V30 64 H -3.642614 -5.631468 0.264630 0
M  V30 65 H -3.536967 -4.131435 -1.788826 0
M  V30 66 H -3.512520 -5.870096 -2.104527 0
M  V30 67 H -4.616103 1.742758 -3.672002 0
M  V30 68 H -2.786174 2.975835 -2.652996 0
M  V30 69 H 4.481290 1.052681 0.962317 0
M  V30 70 H 5.921324 1.953706 2.718942 0
M  V30 71 H 8.516095 3.860142 3.009824 0
M  V30 72 H 10.015440 2.213541 4.190641 0
M  V30 END ATOM
M  V30 BEGIN BOND
M  V30 1 1 1 2
M  V30 2 2 2 3
M  V30 3 1 3 4
M  V30 4 2 4 5
M  V30 5 1 5 6
M  V30 6 1 6 7
M  V30 7 2 7 8
M  V30 8 1 8 9
M  V30 9 2 9 10
M  V30 10 1 10 11
M  V30 11 2 11 12
M  V30 12 1 12 13
M  V30 13 1 13 14
M  V30 14 2 14 15
M  V30 15 1 14 16
M  V30 16 1 16 17
M  V30 17 2 17 18
M  V30 18 1 18 19
M  V30 19 2 19 20
M  V30 20 1 20 21
M  V30 21 1 21 22
M  V30 22 1 22 23
M  V30 23 1 23 24
M  V30 24 1 24 25
M  V30 25 1 25 26
M  V30 26 1 26 27
M  V30 27 1 27 28
M  V30 28 1 28 29
M  V30 29 1 28 30
M  V30 30 1 30 31
M  V30 31 1 20 32
M  V30 32 2 32 33
M  V30 33 1 16 34
M  V30 34 2 34 35
M  V30 35 1 10 36
M  V30 36 2 36 37
M  V30 37 1 5 38
M  V30 38 2 38 39
M  V30 39 1 39 2
M  V30 40 1 37 7
M  V30 41 1 34 12
M  V30 42 1 33 17
M  V30 43 1 31 25
M  V30 44 1 1 40
M  V30 45 1 1 41
M  V30 46 1 1 42
M  V30 47 1 3 43
M  V30 48 1 4 44
M  V30 49 1 8 45
M  V30 50 1 9 46
M  V30 51 1 11 47
M  V30 52 1 18 48
M  V30 53 1 19 49
M  V30 54 1 22 50
M  V30 55 1 22 51
M  V30 56 1 23 52
M  V30 57 1 23 53
M  V30 58 1 24 54
M  V30 59 1 24 55
M  V30 60 1 26 56
M  V30 61 1 26 57
M  V30 62 1 27 58
M  V30 63 1 27 59
M  V30 64 1 29 60
M  V30 65 1 29 61
M  V30 66 1 29 62
M  V30 67 1 30 63
M  V30 68 1 30 64
M  V30 69 1 31 65
M  V30 70 1 31 66
M  V30 71 1 32 67
M  V30 72 1 33 68
M  V30 73 1 36 69
M  V30 74 1 37 70
M  V30 75 1 38 71
M  V30 76 1 39 72
M  V30 END BOND
M  V30 END CTAB
M  END
>  <Dataset>  (53) 
ChEMBL_Kinases

>  <Ligand_Instance>  (53) 
nan

>  <PDB_ID>  (53) 
nan

>  <Standardized_SMILES>  (53) 
Cc1ccc(Oc2ccc(/C=C3\SC(=S)N(c4ccc(OCCCN5CCN(C)CC5)cc4)C3=O)cc2)cc1

>  <Name>  (53) 
nan

>  <Pocket>  (53) 
nan

>  <ATP_Site>  (53) 
nan

>  <Peripheral>  (53) 
nan

>  <Num_H_Atoms_ProtBoundConf>  (53) 
nan

>  <Num_Resolved_Atoms>  (53) 
nan

>  <Num_Not_Resolved_Atoms>  (53) 
nan

$$$$
CHEMBL4755524
     RDKit          3D

  0  0  0  0  0  0  0  0  0  0999 V3000
M  V30 BEGIN CTAB
M  V30 COUNTS 40 43 0 0 0
M  V30 BEGIN ATOM
M  V30 1 N -0.068824 -5.355509 5.320274 0
M  V30 2 C 0.808560 -4.558089 4.545721 0
M  V30 3 N 2.082280 -4.892457 4.359535 0
M  V30 4 N 2.712254 -3.989080 3.595415 0
M  V30 5 C 1.793504 -3.053608 3.293252 0
M  V30 6 C 1.829654 -1.876839 2.541884 0
M  V30 7 C 0.704347 -1.069895 2.384270 0
M  V30 8 C 0.846485 0.141422 1.577923 0
M  V30 9 C 2.106955 0.736836 1.628385 0
M  V30 10 C 2.335132 1.900590 0.885750 0
M  V30 11 C 1.273833 2.384490 0.141876 0
M  V30 12 O 1.508278 3.431641 -0.515515 0
M  V30 13 N 0.056699 1.814689 0.089460 0
M  V30 14 C -0.997381 2.397247 -0.723684 0
M  V30 15 C -0.986981 1.848315 -2.103184 0
M  V30 16 C -0.287717 2.372125 -3.170134 0
M  V30 17 C -0.282266 1.862197 -4.436015 0
M  V30 18 C -1.043657 0.722627 -4.666192 0
M  V30 19 C -1.762360 0.159139 -3.630930 0
M  V30 20 C -1.743502 0.702708 -2.364437 0
M  V30 21 C -0.149505 0.696451 0.807964 0
M  V30 22 C -0.495496 -1.439360 2.990044 0
M  V30 23 C -0.565969 -2.612934 3.750186 0
M  V30 24 C 0.583808 -3.374968 3.871692 0
M  V30 25 H 0.081697 -5.454519 6.347284 0
M  V30 26 H -0.891156 -5.892981 5.013874 0
M  V30 27 H 3.707430 -3.954644 3.263910 0
M  V30 28 H 2.792418 -1.650702 2.100691 0
M  V30 29 H 2.964953 0.384527 2.202101 0
M  V30 30 H 3.299919 2.409182 0.886827 0
M  V30 31 H -0.877468 3.498863 -0.741594 0
M  V30 32 H -1.955818 2.106115 -0.240592 0
M  V30 33 H 0.302016 3.258855 -2.981705 0
M  V30 34 H 0.274882 2.296573 -5.244547 0
M  V30 35 H -1.116487 0.230428 -5.625929 0
M  V30 36 H -2.367717 -0.735506 -3.786224 0
M  V30 37 H -2.316451 0.246370 -1.556532 0
M  V30 38 H -1.113308 0.201891 0.797036 0
M  V30 39 H -1.357920 -0.819241 2.868398 0
M  V30 40 H -1.481642 -2.921392 4.229288 0
M  V30 END ATOM
M  V30 BEGIN BOND
M  V30 1 1 1 2
M  V30 2 2 2 3
M  V30 3 1 3 4
M  V30 4 1 4 5
M  V30 5 2 5 6
M  V30 6 1 6 7
M  V30 7 1 7 8
M  V30 8 1 8 9
M  V30 9 2 9 10
M  V30 10 1 10 11
M  V30 11 2 11 12
M  V30 12 1 11 13
M  V30 13 1 13 14
M  V30 14 1 14 15
M  V30 15 2 15 16
M  V30 16 1 16 17
M  V30 17 2 17 18
M  V30 18 1 18 19
M  V30 19 2 19 20
M  V30 20 1 13 21
M  V30 21 2 7 22
M  V30 22 1 22 23
M  V30 23 2 23 24
M  V30 24 1 24 2
M  V30 25 1 24 5
M  V30 26 2 21 8
M  V30 27 1 20 15
M  V30 28 1 1 25
M  V30 29 1 1 26
M  V30 30 1 4 27
M  V30 31 1 6 28
M  V30 32 1 9 29
M  V30 33 1 10 30
M  V30 34 1 14 31
M  V30 35 1 14 32
M  V30 36 1 16 33
M  V30 37 1 17 34
M  V30 38 1 18 35
M  V30 39 1 19 36
M  V30 40 1 20 37
M  V30 41 1 21 38
M  V30 42 1 22 39
M  V30 43 1 23 40
M  V30 END BOND
M  V30 END CTAB
M  END
>  <Dataset>  (54) 
ChEMBL_Kinases

>  <Ligand_Instance>  (54) 
nan

>  <PDB_ID>  (54) 
nan

>  <Standardized_SMILES>  (54) 
Nc1n[nH]c2cc(-c3ccc(=O)n(Cc4ccccc4)c3)ccc12

>  <Name>  (54) 
nan

>  <Pocket>  (54) 
nan

>  <ATP_Site>  (54) 
nan

>  <Peripheral>  (54) 
nan

>  <Num_H_Atoms_ProtBoundConf>  (54) 
nan

>  <Num_Resolved_Atoms>  (54) 
nan

>  <Num_Not_Resolved_Atoms>  (54) 
nan

$$$$
CHEMBL4755788
     RDKit          3D

  0  0  0  0  0  0  0  0  0  0999 V3000
M  V30 BEGIN CTAB
M  V30 COUNTS 28 30 0 0 0
M  V30 BEGIN ATOM
M  V30 1 F -0.925277 -6.514362 0.427871 0
M  V30 2 C -1.161698 -5.555688 -0.527520 0
M  V30 3 F -2.500728 -5.481385 -0.866344 0
M  V30 4 F -0.434950 -5.828649 -1.648255 0
M  V30 5 C -0.804669 -4.214186 0.032397 0
M  V30 6 C -1.015414 -3.963765 1.371483 0
M  V30 7 C -0.668573 -2.710909 1.818886 0
M  V30 8 C -0.137898 -1.764625 0.958329 0
M  V30 9 N 0.289956 -0.475493 1.100153 0
M  V30 10 C 0.726290 0.010086 -0.074226 0
M  V30 11 N 1.244455 1.306283 -0.320063 0
M  V30 12 C 1.402189 2.351928 0.633179 0
M  V30 13 N 1.905789 3.548684 0.302189 0
M  V30 14 C 2.023768 4.553922 1.175011 0
M  V30 15 C 1.607553 4.341512 2.471262 0
M  V30 16 C 1.084747 3.125935 2.854746 0
M  V30 17 N 1.001396 2.160144 1.900702 0
M  V30 18 N 0.578405 -0.975305 -0.981635 0
M  V30 19 C 0.058080 -2.053017 -0.374213 0
M  V30 20 C -0.280337 -3.313818 -0.872558 0
M  V30 21 H -1.427478 -4.685092 2.062247 0
M  V30 22 H -0.804921 -2.439106 2.860012 0
M  V30 23 H 0.233715 -0.042406 2.038547 0
M  V30 24 H 1.548702 1.534519 -1.311740 0
M  V30 25 H 2.429439 5.516962 0.903382 0
M  V30 26 H 1.650836 5.073549 3.264641 0
M  V30 27 H 0.715326 2.792452 3.816386 0
M  V30 28 H -0.133099 -3.551156 -1.912260 0
M  V30 END ATOM
M  V30 BEGIN BOND
M  V30 1 1 1 2
M  V30 2 1 2 3
M  V30 3 1 2 4
M  V30 4 1 2 5
M  V30 5 2 5 6
M  V30 6 1 6 7
M  V30 7 2 7 8
M  V30 8 1 8 9
M  V30 9 1 9 10
M  V30 10 1 10 11
M  V30 11 1 11 12
M  V30 12 2 12 13
M  V30 13 1 13 14
M  V30 14 2 14 15
M  V30 15 1 15 16
M  V30 16 2 16 17
M  V30 17 2 10 18
M  V30 18 1 18 19
M  V30 19 2 19 20
M  V30 20 1 20 5
M  V30 21 1 19 8
M  V30 22 1 17 12
M  V30 23 1 6 21
M  V30 24 1 7 22
M  V30 25 1 9 23
M  V30 26 1 11 24
M  V30 27 1 14 25
M  V30 28 1 15 26
M  V30 29 1 16 27
M  V30 30 1 20 28
M  V30 END BOND
M  V30 END CTAB
M  END
>  <Dataset>  (55) 
ChEMBL_Kinases

>  <Ligand_Instance>  (55) 
nan

>  <PDB_ID>  (55) 
nan

>  <Standardized_SMILES>  (55) 
FC(F)(F)c1ccc2[nH]c(Nc3ncccn3)nc2c1

>  <Name>  (55) 
nan

>  <Pocket>  (55) 
nan

>  <ATP_Site>  (55) 
nan

>  <Peripheral>  (55) 
nan

>  <Num_H_Atoms_ProtBoundConf>  (55) 
nan

>  <Num_Resolved_Atoms>  (55) 
nan

>  <Num_Not_Resolved_Atoms>  (55) 
nan

$$$$
CHEMBL1922211
     RDKit          3D

  0  0  0  0  0  0  0  0  0  0999 V3000
M  V30 BEGIN CTAB
M  V30 COUNTS 63 65 0 0 0
M  V30 BEGIN ATOM
M  V30 1 C -1.714952 -2.128685 3.205716 0
M  V30 2 C -0.472213 -2.920461 3.441586 0
M  V30 3 C 0.468115 -3.053973 2.289569 0 CFG=2
M  V30 4 N 0.931560 -1.816262 1.829772 0
M  V30 5 C 0.404974 -0.726626 1.064155 0
M  V30 6 N 0.904330 0.487343 0.736267 0
M  V30 7 C 0.302975 1.456292 -0.079834 0
M  V30 8 N 1.429223 2.207607 0.170720 0
M  V30 9 C 1.143587 3.434084 -0.580200 0
M  V30 10 C 2.117497 4.474182 -0.140987 0
M  V30 11 C 3.378786 4.816968 -0.598804 0
M  V30 12 C 3.995225 5.877465 0.093756 0
M  V30 13 C 3.427524 6.549100 1.146755 0
M  V30 14 N 2.175702 6.194038 1.586028 0
M  V30 15 C 1.566529 5.160586 0.916991 0
M  V30 16 C -0.800658 0.719649 -0.325155 0
M  V30 17 N -1.398068 1.701512 -1.125583 0
M  V30 18 C -2.579786 1.212335 -1.523230 0
M  V30 19 N -2.597410 0.015576 -0.948243 0
M  V30 20 C -3.638329 -1.031726 -0.976632 0
M  V30 21 C -4.399614 -1.076553 0.327545 0
M  V30 22 C -4.663543 -0.659703 -2.044740 0
M  V30 23 C -1.598150 -0.410754 -0.203551 0
M  V30 24 N -0.768366 -1.079403 0.590575 0
M  V30 25 C -0.156731 -3.954731 1.258703 0
M  V30 26 O -0.539111 -5.108654 1.993356 0
M  V30 27 C 0.765483 -4.439816 0.194487 0
M  V30 28 C 0.017163 -5.337852 -0.788264 0
M  V30 29 C 1.910072 -5.274846 0.715484 0
M  V30 30 C 1.382854 -3.330932 -0.637079 0
M  V30 31 H -1.531750 -1.017728 3.238147 0
M  V30 32 H -2.343612 -2.465241 2.384473 0
M  V30 33 H -2.364210 -2.278771 4.131360 0
M  V30 34 H -0.772260 -3.914373 3.861209 0
M  V30 35 H 0.066167 -2.409105 4.297353 0
M  V30 36 H 1.345296 -3.655101 2.693060 0
M  V30 37 H 1.929372 -1.507594 2.056155 0
M  V30 38 H 2.326934 2.326410 0.604447 0
M  V30 39 H 1.364344 3.182287 -1.668002 0
M  V30 40 H 0.119628 3.784206 -0.545258 0
M  V30 41 H 3.671854 4.195194 -1.423423 0
M  V30 42 H 4.983601 6.059846 -0.355044 0
M  V30 43 H 4.116974 7.311117 1.485867 0
M  V30 44 H 0.595935 5.034854 1.413185 0
M  V30 45 H -3.396091 1.575899 -2.140967 0
M  V30 46 H -3.241082 -2.012692 -1.285699 0
M  V30 47 H -3.753448 -0.957128 1.198246 0
M  V30 48 H -4.915940 -2.066079 0.364161 0
M  V30 49 H -5.227673 -0.303395 0.315563 0
M  V30 50 H -5.334397 0.157040 -1.729496 0
M  V30 51 H -4.162691 -0.388100 -3.010759 0
M  V30 52 H -5.218573 -1.596038 -2.258760 0
M  V30 53 H -1.078137 -3.559338 0.820541 0
M  V30 54 H -0.856495 -5.814588 1.370771 0
M  V30 55 H 0.642985 -5.368012 -1.698716 0
M  V30 56 H 0.019832 -6.378643 -0.378757 0
M  V30 57 H -1.002747 -4.960830 -0.996447 0
M  V30 58 H 2.514858 -5.585303 -0.176178 0
M  V30 59 H 1.529872 -6.232079 1.145862 0
M  V30 60 H 2.588233 -4.727676 1.381329 0
M  V30 61 H 0.624330 -2.741004 -1.161003 0
M  V30 62 H 2.110299 -2.772959 -0.040644 0
M  V30 63 H 1.998464 -3.803408 -1.461441 0
M  V30 END ATOM
M  V30 BEGIN BOND
M  V30 1 1 1 2
M  V30 2 1 2 3
M  V30 3 1 3 4
M  V30 4 1 4 5
M  V30 5 2 5 6
M  V30 6 1 6 7
M  V30 7 1 7 8
M  V30 8 1 8 9
M  V30 9 1 9 10
M  V30 10 2 10 11
M  V30 11 1 11 12
M  V30 12 2 12 13
M  V30 13 1 13 14
M  V30 14 2 14 15
M  V30 15 2 7 16
M  V30 16 1 16 17
M  V30 17 2 17 18
M  V30 18 1 18 19
M  V30 19 1 19 20
M  V30 20 1 20 21
M  V30 21 1 20 22
M  V30 22 1 19 23
M  V30 23 2 23 24
M  V30 24 1 3 25
M  V30 25 1 25 26
M  V30 26 1 25 27
M  V30 27 1 27 28
M  V30 28 1 27 29
M  V30 29 1 27 30
M  V30 30 1 24 5
M  V30 31 1 15 10
M  V30 32 1 23 16
M  V30 33 1 1 31
M  V30 34 1 1 32
M  V30 35 1 1 33
M  V30 36 1 2 34
M  V30 37 1 2 35
M  V30 38 1 3 36 CFG=1
M  V30 39 1 4 37
M  V30 40 1 8 38
M  V30 41 1 9 39
M  V30 42 1 9 40
M  V30 43 1 11 41
M  V30 44 1 12 42
M  V30 45 1 13 43
M  V30 46 1 15 44
M  V30 47 1 18 45
M  V30 48 1 20 46
M  V30 49 1 21 47
M  V30 50 1 21 48
M  V30 51 1 21 49
M  V30 52 1 22 50
M  V30 53 1 22 51
M  V30 54 1 22 52
M  V30 55 1 25 53
M  V30 56 1 26 54
M  V30 57 1 28 55
M  V30 58 1 28 56
M  V30 59 1 28 57
M  V30 60 1 29 58
M  V30 61 1 29 59
M  V30 62 1 29 60
M  V30 63 1 30 61
M  V30 64 1 30 62
M  V30 65 1 30 63
M  V30 END BOND
M  V30 END CTAB
M  END
>  <Dataset>  (56) 
ChEMBL_Kinases

>  <Ligand_Instance>  (56) 
nan

>  <PDB_ID>  (56) 
nan

>  <Standardized_SMILES>  (56) 
CC[C@H](Nc1nc(NCc2cccnc2)c2ncn(C(C)C)c2n1)C(O)C(C)(C)C

>  <Name>  (56) 
nan

>  <Pocket>  (56) 
nan

>  <ATP_Site>  (56) 
nan

>  <Peripheral>  (56) 
nan

>  <Num_H_Atoms_ProtBoundConf>  (56) 
nan

>  <Num_Resolved_Atoms>  (56) 
nan

>  <Num_Not_Resolved_Atoms>  (56) 
nan

$$$$
CHEMBL1922210
     RDKit          3D

  0  0  0  0  0  0  0  0  0  0999 V3000
M  V30 BEGIN CTAB
M  V30 COUNTS 60 62 0 0 0
M  V30 BEGIN ATOM
M  V30 1 C 0.475095 0.182486 -1.169911 0
M  V30 2 C 1.023973 -1.125829 -1.605884 0
M  V30 3 C 0.509067 -2.375577 -0.880977 0 CFG=2
M  V30 4 N 0.831052 -2.510119 0.495027 0
M  V30 5 C 0.399421 -1.466175 1.412048 0
M  V30 6 N 0.983408 -0.372176 2.006205 0
M  V30 7 C 0.319239 0.669612 2.707863 0
M  V30 8 N 1.553104 1.256243 2.908880 0
M  V30 9 C 0.988266 2.519848 2.600071 0
M  V30 10 C 1.998843 3.400707 1.874527 0
M  V30 11 C 2.564483 2.653772 0.844479 0
M  V30 12 C 3.396164 3.431311 -0.003554 0
M  V30 13 C 3.543680 4.745653 0.262128 0
M  V30 14 N 2.977385 5.431429 1.286581 0
M  V30 15 C 2.157337 4.748056 2.151109 0
M  V30 16 C -0.826385 0.107445 2.521417 0
M  V30 17 N -1.634289 1.035515 3.201269 0
M  V30 18 C -2.889434 0.729576 3.186636 0
M  V30 19 N -2.927975 -0.395540 2.508537 0
M  V30 20 C -4.037625 -1.209447 2.123439 0
M  V30 21 C -5.101006 -0.389746 1.359095 0
M  V30 22 C -3.672183 -2.332910 1.153342 0
M  V30 23 C -1.716903 -0.765884 2.114971 0
M  V30 24 N -0.958741 -1.701497 1.452918 0
M  V30 25 C 0.387315 -3.494413 -1.812271 0
M  V30 26 O -0.739921 -4.311823 -1.401325 0
M  V30 27 C 1.525365 -4.452800 -1.956879 0
M  V30 28 C 1.129602 -5.391016 -3.152324 0
M  V30 29 C 1.347013 -5.496176 -0.796786 0
M  V30 30 H -0.313638 0.533629 -1.960582 0
M  V30 31 H 1.278151 0.954003 -1.248585 0
M  V30 32 H -0.090640 0.268320 -0.233310 0
M  V30 33 H 0.697547 -1.283104 -2.651672 0
M  V30 34 H 2.162441 -1.072354 -1.556596 0
M  V30 35 H -0.661293 -2.035001 -0.795632 0
M  V30 36 H 1.307381 -3.085527 1.291289 0
M  V30 37 H 2.523432 1.112417 3.152779 0
M  V30 38 H 0.806682 3.109586 3.551417 0
M  V30 39 H 0.104076 2.590193 1.954023 0
M  V30 40 H 2.429727 1.576004 0.697214 0
M  V30 41 H 3.914006 2.900476 -0.830017 0
M  V30 42 H 4.169890 5.311132 -0.429543 0
M  V30 43 H 1.567374 5.072874 3.022138 0
M  V30 44 H -3.814199 1.150043 3.520819 0
M  V30 45 H -4.525355 -1.644505 3.002403 0
M  V30 46 H -5.353311 0.516044 1.883890 0
M  V30 47 H -5.974197 -1.104240 1.255204 0
M  V30 48 H -4.748816 -0.233281 0.291912 0
M  V30 49 H -4.593621 -2.791999 0.793804 0
M  V30 50 H -3.194306 -1.841305 0.276447 0
M  V30 51 H -3.043200 -3.114703 1.625068 0
M  V30 52 H 0.121755 -3.150988 -2.827667 0
M  V30 53 H -1.535844 -4.110337 -2.001929 0
M  V30 54 H 2.497050 -4.072107 -2.056435 0
M  V30 55 H 1.363171 -4.867668 -4.079036 0
M  V30 56 H 0.046387 -5.506233 -3.023518 0
M  V30 57 H 1.595273 -6.388025 -3.030858 0
M  V30 58 H 1.299173 -5.010206 0.177913 0
M  V30 59 H 0.300850 -5.904712 -0.980406 0
M  V30 60 H 2.015378 -6.343917 -0.916296 0
M  V30 END ATOM
M  V30 BEGIN BOND
M  V30 1 1 1 2
M  V30 2 1 2 3
M  V30 3 1 3 4
M  V30 4 1 4 5
M  V30 5 2 5 6
M  V30 6 1 6 7
M  V30 7 1 7 8
M  V30 8 1 8 9
M  V30 9 1 9 10
M  V30 10 2 10 11
M  V30 11 1 11 12
M  V30 12 2 12 13
M  V30 13 1 13 14
M  V30 14 2 14 15
M  V30 15 2 7 16
M  V30 16 1 16 17
M  V30 17 2 17 18
M  V30 18 1 18 19
M  V30 19 1 19 20
M  V30 20 1 20 21
M  V30 21 1 20 22
M  V30 22 1 19 23
M  V30 23 2 23 24
M  V30 24 1 3 25
M  V30 25 1 25 26
M  V30 26 1 25 27
M  V30 27 1 27 28
M  V30 28 1 27 29
M  V30 29 1 24 5
M  V30 30 1 15 10
M  V30 31 1 23 16
M  V30 32 1 1 30
M  V30 33 1 1 31
M  V30 34 1 1 32
M  V30 35 1 2 33
M  V30 36 1 2 34
M  V30 37 1 3 35 CFG=1
M  V30 38 1 4 36
M  V30 39 1 8 37
M  V30 40 1 9 38
M  V30 41 1 9 39
M  V30 42 1 11 40
M  V30 43 1 12 41
M  V30 44 1 13 42
M  V30 45 1 15 43
M  V30 46 1 18 44
M  V30 47 1 20 45
M  V30 48 1 21 46
M  V30 49 1 21 47
M  V30 50 1 21 48
M  V30 51 1 22 49
M  V30 52 1 22 50
M  V30 53 1 22 51
M  V30 54 1 25 52
M  V30 55 1 26 53
M  V30 56 1 27 54
M  V30 57 1 28 55
M  V30 58 1 28 56
M  V30 59 1 28 57
M  V30 60 1 29 58
M  V30 61 1 29 59
M  V30 62 1 29 60
M  V30 END BOND
M  V30 END CTAB
M  END
>  <Dataset>  (57) 
ChEMBL_Kinases

>  <Ligand_Instance>  (57) 
nan

>  <PDB_ID>  (57) 
nan

>  <Standardized_SMILES>  (57) 
CC[C@H](Nc1nc(NCc2cccnc2)c2ncn(C(C)C)c2n1)C(O)C(C)C

>  <Name>  (57) 
nan

>  <Pocket>  (57) 
nan

>  <ATP_Site>  (57) 
nan

>  <Peripheral>  (57) 
nan

>  <Num_H_Atoms_ProtBoundConf>  (57) 
nan

>  <Num_Resolved_Atoms>  (57) 
nan

>  <Num_Not_Resolved_Atoms>  (57) 
nan

$$$$
CHEMBL1922209
     RDKit          3D

  0  0  0  0  0  0  0  0  0  0999 V3000
M  V30 BEGIN CTAB
M  V30 COUNTS 57 59 0 0 0
M  V30 BEGIN ATOM
M  V30 1 C 0.781512 -0.316193 3.975754 0
M  V30 2 C 1.489919 -1.607486 4.147490 0
M  V30 3 C 1.598651 -2.499913 2.964744 0
M  V30 4 O 0.352168 -2.865912 2.478552 0
M  V30 5 C 2.490280 -2.071748 1.875558 0 CFG=2
M  V30 6 C 3.956538 -1.951914 2.319504 0
M  V30 7 C 4.544599 -3.212226 2.823877 0
M  V30 8 N 2.100653 -0.966855 1.072789 0
M  V30 9 C 0.949009 -0.958160 0.244728 0
M  V30 10 N 0.719495 0.162510 -0.441279 0
M  V30 11 C -0.293116 0.365155 -1.270451 0
M  V30 12 N -0.666133 1.430681 -2.061290 0
M  V30 13 C -1.054834 2.541175 -2.885461 0
M  V30 14 C -1.360962 3.802154 -2.184370 0
M  V30 15 C -2.669042 4.085977 -1.769030 0
M  V30 16 C -2.928035 5.268149 -1.107635 0
M  V30 17 C -1.852355 6.095785 -0.903742 0
M  V30 18 N -0.592488 5.848098 -1.291658 0
M  V30 19 C -0.326869 4.684676 -1.944330 0
M  V30 20 C -1.224732 -0.683986 -1.459063 0
M  V30 21 N -2.348950 -0.928914 -2.160573 0
M  V30 22 C -2.764092 -2.174835 -1.884527 0
M  V30 23 N -1.957702 -2.795167 -1.012481 0
M  V30 24 C -2.063845 -4.132843 -0.469005 0
M  V30 25 C -3.481375 -4.382551 0.063876 0
M  V30 26 C -1.741508 -5.186748 -1.490060 0
M  V30 27 C -1.014445 -1.878468 -0.752884 0
M  V30 28 N 0.049063 -1.899688 0.028010 0
M  V30 29 H 1.392103 0.513016 3.551474 0
M  V30 30 H 0.569368 0.049966 5.025566 0
M  V30 31 H -0.236151 -0.382170 3.528225 0
M  V30 32 H 2.523501 -1.341686 4.522275 0
M  V30 33 H 1.034749 -2.156601 4.993648 0
M  V30 34 H 2.027136 -3.471335 3.360863 0
M  V30 35 H 0.417714 -3.761944 2.080506 0
M  V30 36 H 2.542297 -2.949531 1.157482 0
M  V30 37 H 4.487584 -1.642117 1.382397 0
M  V30 38 H 4.071453 -1.157013 3.083958 0
M  V30 39 H 5.003948 -3.051055 3.845480 0
M  V30 40 H 3.890503 -4.078550 2.914526 0
M  V30 41 H 5.443597 -3.471971 2.195350 0
M  V30 42 H 2.727854 -0.135041 1.128940 0
M  V30 43 H 0.137898 2.079475 -1.758486 0
M  V30 44 H -1.982819 2.182476 -3.450860 0
M  V30 45 H -0.327459 2.679217 -3.709373 0
M  V30 46 H -3.473818 3.396491 -1.957184 0
M  V30 47 H -3.928880 5.475530 -0.795256 0
M  V30 48 H -2.103455 7.020744 -0.373341 0
M  V30 49 H 0.706031 4.545107 -2.229653 0
M  V30 50 H -3.662250 -2.625111 -2.328450 0
M  V30 51 H -1.403014 -4.271691 0.398330 0
M  V30 52 H -3.715236 -3.720282 0.910143 0
M  V30 53 H -4.215590 -4.104645 -0.738350 0
M  V30 54 H -3.643938 -5.428997 0.321630 0
M  V30 55 H -2.650883 -5.698186 -1.886124 0
M  V30 56 H -1.147429 -4.796199 -2.358003 0
M  V30 57 H -1.114197 -5.982401 -1.031666 0
M  V30 END ATOM
M  V30 BEGIN BOND
M  V30 1 1 1 2
M  V30 2 1 2 3
M  V30 3 1 3 4
M  V30 4 1 3 5
M  V30 5 1 5 6
M  V30 6 1 6 7
M  V30 7 1 5 8
M  V30 8 1 8 9
M  V30 9 2 9 10
M  V30 10 1 10 11
M  V30 11 1 11 12
M  V30 12 1 12 13
M  V30 13 1 13 14
M  V30 14 2 14 15
M  V30 15 1 15 16
M  V30 16 2 16 17
M  V30 17 1 17 18
M  V30 18 2 18 19
M  V30 19 2 11 20
M  V30 20 1 20 21
M  V30 21 2 21 22
M  V30 22 1 22 23
M  V30 23 1 23 24
M  V30 24 1 24 25
M  V30 25 1 24 26
M  V30 26 1 23 27
M  V30 27 2 27 28
M  V30 28 1 28 9
M  V30 29 1 19 14
M  V30 30 1 27 20
M  V30 31 1 1 29
M  V30 32 1 1 30
M  V30 33 1 1 31
M  V30 34 1 2 32
M  V30 35 1 2 33
M  V30 36 1 3 34
M  V30 37 1 4 35
M  V30 38 1 5 36 CFG=3
M  V30 39 1 6 37
M  V30 40 1 6 38
M  V30 41 1 7 39
M  V30 42 1 7 40
M  V30 43 1 7 41
M  V30 44 1 8 42
M  V30 45 1 12 43
M  V30 46 1 13 44
M  V30 47 1 13 45
M  V30 48 1 15 46
M  V30 49 1 16 47
M  V30 50 1 17 48
M  V30 51 1 19 49
M  V30 52 1 22 50
M  V30 53 1 24 51
M  V30 54 1 25 52
M  V30 55 1 25 53
M  V30 56 1 25 54
M  V30 57 1 26 55
M  V30 58 1 26 56
M  V30 59 1 26 57
M  V30 END BOND
M  V30 END CTAB
M  END
>  <Dataset>  (58) 
ChEMBL_Kinases

>  <Ligand_Instance>  (58) 
nan

>  <PDB_ID>  (58) 
nan

>  <Standardized_SMILES>  (58) 
CCC(O)[C@H](CC)Nc1nc(NCc2cccnc2)c2ncn(C(C)C)c2n1

>  <Name>  (58) 
nan

>  <Pocket>  (58) 
nan

>  <ATP_Site>  (58) 
nan

>  <Peripheral>  (58) 
nan

>  <Num_H_Atoms_ProtBoundConf>  (58) 
nan

>  <Num_Resolved_Atoms>  (58) 
nan

>  <Num_Not_Resolved_Atoms>  (58) 
nan

$$$$
CHEMBL1922122
     RDKit          3D

  0  0  0  0  0  0  0  0  0  0999 V3000
M  V30 BEGIN CTAB
M  V30 COUNTS 63 65 0 0 0
M  V30 BEGIN ATOM
M  V30 1 C -0.609998 -2.828283 4.545401 0
M  V30 2 C -0.131924 -3.785398 3.503711 0
M  V30 3 C -0.561750 -3.217381 2.112334 0 CFG=1
M  V30 4 N 0.074043 -1.953579 2.024696 0
M  V30 5 C -0.074967 -0.791682 1.189756 0
M  V30 6 N 0.661500 0.319994 1.142870 0
M  V30 7 C 0.392245 1.341049 0.326637 0
M  V30 8 N 1.277785 2.425045 0.416905 0
M  V30 9 C 2.429105 2.505237 1.311075 0
M  V30 10 C 3.107444 3.805472 1.100524 0
M  V30 11 C 2.793923 4.953888 1.802137 0
M  V30 12 C 3.529010 6.074752 1.473192 0
M  V30 13 C 4.518512 6.061375 0.505128 0
M  V30 14 N 4.777255 4.899954 -0.147608 0
M  V30 15 C 4.093274 3.771044 0.128827 0
M  V30 16 C -0.684708 1.287408 -0.522597 0
M  V30 17 N -1.161834 2.159752 -1.422230 0
M  V30 18 C -2.264140 1.592579 -1.992621 0
M  V30 19 N -2.414451 0.385805 -1.410930 0
M  V30 20 C -3.470460 -0.555974 -1.725175 0
M  V30 21 C -4.224097 -0.982457 -0.501524 0
M  V30 22 C -4.415687 0.004663 -2.762671 0
M  V30 23 C -1.459165 0.150692 -0.492199 0
M  V30 24 N -1.107338 -0.820011 0.362171 0
M  V30 25 C -0.178466 -4.288254 1.179187 0
M  V30 26 O -0.973752 -5.419318 1.501592 0
M  V30 27 C -0.101291 -4.059946 -0.274113 0
M  V30 28 C 0.321259 -5.441884 -0.854096 0
M  V30 29 C 1.020234 -3.120012 -0.649506 0
M  V30 30 C -1.401252 -3.760244 -0.960883 0
M  V30 31 H -0.482943 -1.775940 4.215194 0
M  V30 32 H -1.695457 -2.993943 4.773156 0
M  V30 33 H -0.046069 -2.958814 5.501853 0
M  V30 34 H -0.594641 -4.787256 3.616236 0
M  V30 35 H 0.974197 -3.861630 3.552226 0
M  V30 36 H -1.658191 -3.089673 2.220952 0
M  V30 37 H 0.870236 -1.702445 2.691759 0
M  V30 38 H 1.064822 3.234410 -0.229845 0
M  V30 39 H 2.098749 2.503552 2.380558 0
M  V30 40 H 3.127225 1.658156 1.182627 0
M  V30 41 H 2.013498 4.909706 2.547018 0
M  V30 42 H 3.309237 6.991985 2.004030 0
M  V30 43 H 5.051771 6.985644 0.305263 0
M  V30 44 H 4.365969 2.890738 -0.440707 0
M  V30 45 H -2.897964 2.024795 -2.763331 0
M  V30 46 H -3.009948 -1.453552 -2.185475 0
M  V30 47 H -3.681386 -0.568375 0.380854 0
M  V30 48 H -4.277278 -2.087726 -0.400006 0
M  V30 49 H -5.267057 -0.610467 -0.537297 0
M  V30 50 H -5.035922 0.833591 -2.345956 0
M  V30 51 H -3.839768 0.318785 -3.658084 0
M  V30 52 H -5.089212 -0.818377 -3.081375 0
M  V30 53 H 0.860949 -4.632014 1.495961 0
M  V30 54 H -1.647928 -5.594885 0.804859 0
M  V30 55 H 0.892452 -5.252496 -1.784391 0
M  V30 56 H 0.989756 -5.960936 -0.149159 0
M  V30 57 H -0.567289 -6.025229 -1.156651 0
M  V30 58 H 1.693463 -3.654205 -1.358705 0
M  V30 59 H 1.640981 -2.893942 0.244459 0
M  V30 60 H 0.691860 -2.219570 -1.202962 0
M  V30 61 H -2.208279 -3.417658 -0.261102 0
M  V30 62 H -1.217572 -3.002023 -1.778304 0
M  V30 63 H -1.844035 -4.637057 -1.473349 0
M  V30 END ATOM
M  V30 BEGIN BOND
M  V30 1 1 1 2
M  V30 2 1 2 3
M  V30 3 1 3 4
M  V30 4 1 4 5
M  V30 5 2 5 6
M  V30 6 1 6 7
M  V30 7 1 7 8
M  V30 8 1 8 9
M  V30 9 1 9 10
M  V30 10 2 10 11
M  V30 11 1 11 12
M  V30 12 2 12 13
M  V30 13 1 13 14
M  V30 14 2 14 15
M  V30 15 2 7 16
M  V30 16 1 16 17
M  V30 17 2 17 18
M  V30 18 1 18 19
M  V30 19 1 19 20
M  V30 20 1 20 21
M  V30 21 1 20 22
M  V30 22 1 19 23
M  V30 23 2 23 24
M  V30 24 1 3 25
M  V30 25 1 25 26
M  V30 26 1 25 27
M  V30 27 1 27 28
M  V30 28 1 27 29
M  V30 29 1 27 30
M  V30 30 1 24 5
M  V30 31 1 15 10
M  V30 32 1 23 16
M  V30 33 1 1 31
M  V30 34 1 1 32
M  V30 35 1 1 33
M  V30 36 1 2 34
M  V30 37 1 2 35
M  V30 38 1 3 36 CFG=1
M  V30 39 1 4 37
M  V30 40 1 8 38
M  V30 41 1 9 39
M  V30 42 1 9 40
M  V30 43 1 11 41
M  V30 44 1 12 42
M  V30 45 1 13 43
M  V30 46 1 15 44
M  V30 47 1 18 45
M  V30 48 1 20 46
M  V30 49 1 21 47
M  V30 50 1 21 48
M  V30 51 1 21 49
M  V30 52 1 22 50
M  V30 53 1 22 51
M  V30 54 1 22 52
M  V30 55 1 25 53
M  V30 56 1 26 54
M  V30 57 1 28 55
M  V30 58 1 28 56
M  V30 59 1 28 57
M  V30 60 1 29 58
M  V30 61 1 29 59
M  V30 62 1 29 60
M  V30 63 1 30 61
M  V30 64 1 30 62
M  V30 65 1 30 63
M  V30 END BOND
M  V30 END CTAB
M  END
>  <Dataset>  (59) 
ChEMBL_Kinases

>  <Ligand_Instance>  (59) 
nan

>  <PDB_ID>  (59) 
nan

>  <Standardized_SMILES>  (59) 
CC[C@@H](Nc1nc(NCc2cccnc2)c2ncn(C(C)C)c2n1)C(O)C(C)(C)C

>  <Name>  (59) 
nan

>  <Pocket>  (59) 
nan

>  <ATP_Site>  (59) 
nan

>  <Peripheral>  (59) 
nan

>  <Num_H_Atoms_ProtBoundConf>  (59) 
nan

>  <Num_Resolved_Atoms>  (59) 
nan

>  <Num_Not_Resolved_Atoms>  (59) 
nan

$$$$
CHEMBL5093111
     RDKit          3D

  0  0  0  0  0  0  0  0  0  0999 V3000
M  V30 BEGIN CTAB
M  V30 COUNTS 65 69 0 0 0
M  V30 BEGIN ATOM
M  V30 1 N 3.860316 -4.192272 2.774898 0
M  V30 2 S 2.416383 -3.653032 1.984719 0
M  V30 3 O 1.374030 -3.531350 3.063495 0
M  V30 4 O 2.000670 -4.712420 1.014354 0
M  V30 5 C 2.676568 -2.102353 1.222560 0
M  V30 6 C 3.124045 -1.922537 -0.072403 0
M  V30 7 C 3.304225 -0.648672 -0.584011 0
M  V30 8 C 3.052853 0.496641 0.153895 0
M  V30 9 C 3.294956 1.791127 -0.484328 0
M  V30 10 N 2.165559 2.299836 -1.224334 0
M  V30 11 C 0.879997 2.606245 -0.775538 0
M  V30 12 N 0.507077 2.443369 0.504287 0
M  V30 13 C -0.727730 2.735158 0.948767 0
M  V30 14 N -0.946791 2.488418 2.333841 0
M  V30 15 C -1.546878 1.239899 2.703923 0
M  V30 16 C -1.764272 0.824109 4.016918 0
M  V30 17 C -2.362716 -0.397975 4.250631 0
M  V30 18 C -2.761215 -1.239320 3.232972 0
M  V30 19 C -2.572524 -0.882906 1.913413 0
M  V30 20 C -2.969849 -1.712177 0.767050 0
M  V30 21 N -1.982265 -2.628345 0.295745 0
M  V30 22 C -1.541284 -3.601518 1.246812 0
M  V30 23 C -2.557701 -4.651941 1.594419 0
M  V30 24 O -3.477863 -4.873656 0.577561 0
M  V30 25 C -2.921919 -4.678509 -0.671107 0
M  V30 26 C -2.468046 -3.257149 -0.912581 0
M  V30 27 C -1.974642 0.339316 1.723892 0
M  V30 28 N -1.665004 3.216978 0.099200 0
M  V30 29 C -1.374197 3.413217 -1.216209 0
M  V30 30 C -0.102114 3.105107 -1.640827 0
M  V30 31 C 0.277318 3.297090 -3.060716 0
M  V30 32 C 0.061262 2.117850 -4.033923 0
M  V30 33 C -0.748059 3.332931 -4.126188 0
M  V30 34 C 2.608738 0.263579 1.437819 0
M  V30 35 C 2.417603 -0.983911 1.981141 0
M  V30 36 H 3.750521 -5.211400 3.014215 0
M  V30 37 H 3.930672 -3.703771 3.707708 0
M  V30 38 H 3.306433 -2.842889 -0.609569 0
M  V30 39 H 3.656276 -0.637521 -1.603599 0
M  V30 40 H 3.532637 2.554013 0.312715 0
M  V30 41 H 4.211856 1.725176 -1.103246 0
M  V30 42 H 2.349610 2.456555 -2.240497 0
M  V30 43 H -0.726568 3.105309 3.155791 0
M  V30 44 H -1.437087 1.513749 4.781413 0
M  V30 45 H -2.519121 -0.695198 5.298250 0
M  V30 46 H -3.223198 -2.180903 3.464272 0
M  V30 47 H -3.269303 -1.088554 -0.121686 0
M  V30 48 H -3.922022 -2.229013 1.083463 0
M  V30 49 H -0.679427 -4.140385 0.797394 0
M  V30 50 H -1.163088 -3.056967 2.128252 0
M  V30 51 H -3.032843 -4.384341 2.541695 0
M  V30 52 H -2.076543 -5.655046 1.769991 0
M  V30 53 H -3.670086 -4.927075 -1.445387 0
M  V30 54 H -2.079134 -5.391665 -0.810311 0
M  V30 55 H -1.694646 -3.300640 -1.708217 0
M  V30 56 H -3.311432 -2.669587 -1.322355 0
M  V30 57 H -1.814727 0.642672 0.681738 0
M  V30 58 H -2.105512 3.792278 -1.891224 0
M  V30 59 H 1.187441 3.870374 -3.245262 0
M  V30 60 H 0.881372 1.862314 -4.727558 0
M  V30 61 H -0.421739 1.234598 -3.544573 0
M  V30 62 H -0.560391 4.008510 -5.011816 0
M  V30 63 H -1.803533 3.307367 -3.846927 0
M  V30 64 H 2.405239 1.131757 2.047236 0
M  V30 65 H 2.060753 -1.038351 3.012736 0
M  V30 END ATOM
M  V30 BEGIN BOND
M  V30 1 1 1 2
M  V30 2 2 2 3
M  V30 3 2 2 4
M  V30 4 1 2 5
M  V30 5 2 5 6
M  V30 6 1 6 7
M  V30 7 2 7 8
M  V30 8 1 8 9
M  V30 9 1 9 10
M  V30 10 1 10 11
M  V30 11 2 11 12
M  V30 12 1 12 13
M  V30 13 1 13 14
M  V30 14 1 14 15
M  V30 15 2 15 16
M  V30 16 1 16 17
M  V30 17 2 17 18
M  V30 18 1 18 19
M  V30 19 1 19 20
M  V30 20 1 20 21
M  V30 21 1 21 22
M  V30 22 1 22 23
M  V30 23 1 23 24
M  V30 24 1 24 25
M  V30 25 1 25 26
M  V30 26 2 19 27
M  V30 27 2 13 28
M  V30 28 1 28 29
M  V30 29 2 29 30
M  V30 30 1 30 31
M  V30 31 1 31 32
M  V30 32 1 32 33
M  V30 33 1 8 34
M  V30 34 2 34 35
M  V30 35 1 35 5
M  V30 36 1 30 11
M  V30 37 1 33 31
M  V30 38 1 27 15
M  V30 39 1 26 21
M  V30 40 1 1 36
M  V30 41 1 1 37
M  V30 42 1 6 38
M  V30 43 1 7 39
M  V30 44 1 9 40
M  V30 45 1 9 41
M  V30 46 1 10 42
M  V30 47 1 14 43
M  V30 48 1 16 44
M  V30 49 1 17 45
M  V30 50 1 18 46
M  V30 51 1 20 47
M  V30 52 1 20 48
M  V30 53 1 22 49
M  V30 54 1 22 50
M  V30 55 1 23 51
M  V30 56 1 23 52
M  V30 57 1 25 53
M  V30 58 1 25 54
M  V30 59 1 26 55
M  V30 60 1 26 56
M  V30 61 1 27 57
M  V30 62 1 29 58
M  V30 63 1 31 59
M  V30 64 1 32 60
M  V30 65 1 32 61
M  V30 66 1 33 62
M  V30 67 1 33 63
M  V30 68 1 34 64
M  V30 69 1 35 65
M  V30 END BOND
M  V30 END CTAB
M  END
>  <Dataset>  (60) 
ChEMBL_Kinases

>  <Ligand_Instance>  (60) 
nan

>  <PDB_ID>  (60) 
nan

>  <Standardized_SMILES>  (60) 
NS(=O)(=O)c1ccc(CNc2nc(Nc3cccc(CN4CCOCC4)c3)ncc2C2CC2)cc1

>  <Name>  (60) 
nan

>  <Pocket>  (60) 
nan

>  <ATP_Site>  (60) 
nan

>  <Peripheral>  (60) 
nan

>  <Num_H_Atoms_ProtBoundConf>  (60) 
nan

>  <Num_Resolved_Atoms>  (60) 
nan

>  <Num_Not_Resolved_Atoms>  (60) 
nan

$$$$
CHEMBL1922121
     RDKit          3D

  0  0  0  0  0  0  0  0  0  0999 V3000
M  V30 BEGIN CTAB
M  V30 COUNTS 60 62 0 0 0
M  V30 BEGIN ATOM
M  V30 1 C 0.210510 -2.657699 5.505202 0
M  V30 2 C -0.725665 -2.680491 4.323837 0
M  V30 3 C -0.140072 -2.073147 3.100272 0 CFG=1
M  V30 4 N -1.000905 -2.109910 1.969465 0
M  V30 5 C -0.839039 -1.716449 0.619246 0
M  V30 6 N 0.255038 -1.194906 0.056950 0
M  V30 7 C 0.378559 -0.832569 -1.226248 0
M  V30 8 N 1.610135 -0.292631 -1.671120 0
M  V30 9 C 2.760123 -0.098718 -0.833616 0
M  V30 10 C 3.915343 0.482339 -1.563538 0
M  V30 11 C 4.911904 -0.206147 -2.214270 0
M  V30 12 C 5.940096 0.441403 -2.862709 0
M  V30 13 C 5.984525 1.816601 -2.868020 0
M  V30 14 N 5.003120 2.513377 -2.226878 0
M  V30 15 C 3.999208 1.879434 -1.593734 0
M  V30 16 C -0.713001 -1.013733 -2.028515 0
M  V30 17 N -0.919698 -0.764358 -3.320584 0
M  V30 18 C -2.176541 -1.133920 -3.596790 0
M  V30 19 N -2.790875 -1.620174 -2.503650 0
M  V30 20 C -4.151224 -2.126675 -2.374408 0
M  V30 21 C -4.893913 -1.456122 -1.242435 0
M  V30 22 C -4.898464 -1.840939 -3.655157 0
M  V30 23 C -1.859011 -1.538174 -1.527196 0
M  V30 24 N -1.866152 -1.862800 -0.232460 0
M  V30 25 C 0.651296 -0.869610 3.368319 0
M  V30 26 O 1.572735 -0.753853 2.259272 0
M  V30 27 C 0.002164 0.444948 3.544453 0
M  V30 28 C -0.830733 0.966084 2.410808 0
M  V30 29 C -0.685288 0.711137 4.840115 0
M  V30 30 H 0.387404 -1.678996 5.917148 0
M  V30 31 H 1.131048 -3.254354 5.321674 0
M  V30 32 H -0.320198 -3.246823 6.316014 0
M  V30 33 H -0.888701 -3.801933 4.136497 0
M  V30 34 H -1.691812 -2.244497 4.665656 0
M  V30 35 H 0.672708 -2.863750 2.808910 0
M  V30 36 H -1.955279 -2.521876 2.218432 0
M  V30 37 H 1.710158 -0.009337 -2.674157 0
M  V30 38 H 2.472367 0.594835 -0.005568 0
M  V30 39 H 3.081362 -1.085665 -0.444927 0
M  V30 40 H 4.814718 -1.273868 -2.169971 0
M  V30 41 H 6.689422 -0.189097 -3.353716 0
M  V30 42 H 6.775170 2.317825 -3.366763 0
M  V30 43 H 3.241876 2.506182 -1.097618 0
M  V30 44 H -2.674682 -1.070262 -4.550775 0
M  V30 45 H -4.152111 -3.239118 -2.239862 0
M  V30 46 H -4.189478 -0.755766 -0.749720 0
M  V30 47 H -5.200855 -2.218139 -0.511181 0
M  V30 48 H -5.816973 -0.947592 -1.584080 0
M  V30 49 H -4.673246 -2.555662 -4.456486 0
M  V30 50 H -4.724342 -0.822108 -4.013887 0
M  V30 51 H -5.988697 -1.926352 -3.444493 0
M  V30 52 H 1.325667 -1.061594 4.216534 0
M  V30 53 H 2.059451 -1.623229 2.241427 0
M  V30 54 H 0.894334 1.183444 3.559942 0
M  V30 55 H -1.116279 2.017293 2.722897 0
M  V30 56 H -1.789824 0.474710 2.253964 0
M  V30 57 H -0.225266 1.148698 1.498973 0
M  V30 58 H -1.158158 1.728708 4.863488 0
M  V30 59 H 0.071107 0.644207 5.654541 0
M  V30 60 H -1.508387 0.016855 5.075367 0
M  V30 END ATOM
M  V30 BEGIN BOND
M  V30 1 1 1 2
M  V30 2 1 2 3
M  V30 3 1 3 4
M  V30 4 1 4 5
M  V30 5 2 5 6
M  V30 6 1 6 7
M  V30 7 1 7 8
M  V30 8 1 8 9
M  V30 9 1 9 10
M  V30 10 2 10 11
M  V30 11 1 11 12
M  V30 12 2 12 13
M  V30 13 1 13 14
M  V30 14 2 14 15
M  V30 15 2 7 16
M  V30 16 1 16 17
M  V30 17 2 17 18
M  V30 18 1 18 19
M  V30 19 1 19 20
M  V30 20 1 20 21
M  V30 21 1 20 22
M  V30 22 1 19 23
M  V30 23 2 23 24
M  V30 24 1 3 25
M  V30 25 1 25 26
M  V30 26 1 25 27
M  V30 27 1 27 28
M  V30 28 1 27 29
M  V30 29 1 24 5
M  V30 30 1 15 10
M  V30 31 1 23 16
M  V30 32 1 1 30
M  V30 33 1 1 31
M  V30 34 1 1 32
M  V30 35 1 2 33
M  V30 36 1 2 34
M  V30 37 1 3 35 CFG=3
M  V30 38 1 4 36
M  V30 39 1 8 37
M  V30 40 1 9 38
M  V30 41 1 9 39
M  V30 42 1 11 40
M  V30 43 1 12 41
M  V30 44 1 13 42
M  V30 45 1 15 43
M  V30 46 1 18 44
M  V30 47 1 20 45
M  V30 48 1 21 46
M  V30 49 1 21 47
M  V30 50 1 21 48
M  V30 51 1 22 49
M  V30 52 1 22 50
M  V30 53 1 22 51
M  V30 54 1 25 52
M  V30 55 1 26 53
M  V30 56 1 27 54
M  V30 57 1 28 55
M  V30 58 1 28 56
M  V30 59 1 28 57
M  V30 60 1 29 58
M  V30 61 1 29 59
M  V30 62 1 29 60
M  V30 END BOND
M  V30 END CTAB
M  END
>  <Dataset>  (61) 
ChEMBL_Kinases

>  <Ligand_Instance>  (61) 
nan

>  <PDB_ID>  (61) 
nan

>  <Standardized_SMILES>  (61) 
CC[C@@H](Nc1nc(NCc2cccnc2)c2ncn(C(C)C)c2n1)C(O)C(C)C

>  <Name>  (61) 
nan

>  <Pocket>  (61) 
nan

>  <ATP_Site>  (61) 
nan

>  <Peripheral>  (61) 
nan

>  <Num_H_Atoms_ProtBoundConf>  (61) 
nan

>  <Num_Resolved_Atoms>  (61) 
nan

>  <Num_Not_Resolved_Atoms>  (61) 
nan

$$$$
CHEMBL1922120
     RDKit          3D

  0  0  0  0  0  0  0  0  0  0999 V3000
M  V30 BEGIN CTAB
M  V30 COUNTS 57 59 0 0 0
M  V30 BEGIN ATOM
M  V30 1 C 1.213393 -2.787118 3.616403 0
M  V30 2 C 2.507115 -2.110579 3.477037 0
M  V30 3 C 2.703966 -1.154652 2.336398 0
M  V30 4 O 4.050149 -0.704551 2.523141 0
M  V30 5 C 1.819544 0.040844 2.337740 0 CFG=1
M  V30 6 C 2.339311 1.166848 1.477009 0
M  V30 7 C 2.504721 0.797473 0.031235 0
M  V30 8 N 0.443999 -0.304815 2.084403 0
M  V30 9 C 0.001195 -0.766584 0.789484 0
M  V30 10 N -0.487198 0.274008 0.095729 0
M  V30 11 C -0.985925 0.218670 -1.145525 0
M  V30 12 N -1.501429 1.325275 -1.869218 0
M  V30 13 C -1.592377 2.702852 -1.428436 0
M  V30 14 C -2.432635 2.866923 -0.220745 0
M  V30 15 C -2.105381 2.866373 1.105322 0
M  V30 16 C -3.032232 3.027482 2.092465 0
M  V30 17 C -4.364762 3.199994 1.748707 0
M  V30 18 N -4.682713 3.200727 0.458579 0
M  V30 19 C -3.781961 3.043373 -0.523258 0
M  V30 20 C -0.971158 -1.054803 -1.717321 0
M  V30 21 N -1.385231 -1.468912 -2.922905 0
M  V30 22 C -1.151025 -2.802788 -2.988324 0
M  V30 23 N -0.588838 -3.200715 -1.809135 0
M  V30 24 C -0.193023 -4.560210 -1.495429 0
M  V30 25 C -1.209635 -5.249022 -0.610788 0
M  V30 26 C -0.114789 -5.353794 -2.792854 0
M  V30 27 C -0.472193 -2.126458 -1.013017 0
M  V30 28 N 0.010215 -1.987916 0.228856 0
M  V30 29 H 1.285760 -3.901289 3.713642 0
M  V30 30 H 0.786068 -2.481712 4.623445 0
M  V30 31 H 0.422934 -2.595432 2.906143 0
M  V30 32 H 3.283839 -2.919098 3.314080 0
M  V30 33 H 2.855020 -1.637950 4.440373 0
M  V30 34 H 2.671911 -1.712165 1.392181 0
M  V30 35 H 4.581320 -0.915477 1.739861 0
M  V30 36 H 1.873717 0.459543 3.390727 0
M  V30 37 H 1.712876 2.048243 1.649352 0
M  V30 38 H 3.354178 1.405268 1.882271 0
M  V30 39 H 2.242108 -0.235171 -0.208428 0
M  V30 40 H 1.923900 1.514062 -0.583500 0
M  V30 41 H 3.572304 0.943710 -0.312244 0
M  V30 42 H -0.339387 -0.254239 2.795313 0
M  V30 43 H -1.863466 1.127447 -2.845254 0
M  V30 44 H -1.871966 3.369160 -2.243914 0
M  V30 45 H -0.547613 2.975699 -1.088163 0
M  V30 46 H -1.038879 2.728365 1.276553 0
M  V30 47 H -2.690280 3.014693 3.116241 0
M  V30 48 H -5.056071 3.322792 2.564087 0
M  V30 49 H -4.223573 3.071445 -1.507663 0
M  V30 50 H -1.390631 -3.406972 -3.859562 0
M  V30 51 H 0.779097 -4.574324 -0.969285 0
M  V30 52 H -1.181963 -6.347122 -0.737117 0
M  V30 53 H -1.077124 -4.997313 0.471650 0
M  V30 54 H -2.217675 -4.860834 -0.877225 0
M  V30 55 H -1.116127 -5.378541 -3.265041 0
M  V30 56 H 0.669117 -4.965322 -3.450244 0
M  V30 57 H 0.121514 -6.409140 -2.502741 0
M  V30 END ATOM
M  V30 BEGIN BOND
M  V30 1 1 1 2
M  V30 2 1 2 3
M  V30 3 1 3 4
M  V30 4 1 3 5
M  V30 5 1 5 6
M  V30 6 1 6 7
M  V30 7 1 5 8
M  V30 8 1 8 9
M  V30 9 2 9 10
M  V30 10 1 10 11
M  V30 11 1 11 12
M  V30 12 1 12 13
M  V30 13 1 13 14
M  V30 14 2 14 15
M  V30 15 1 15 16
M  V30 16 2 16 17
M  V30 17 1 17 18
M  V30 18 2 18 19
M  V30 19 2 11 20
M  V30 20 1 20 21
M  V30 21 2 21 22
M  V30 22 1 22 23
M  V30 23 1 23 24
M  V30 24 1 24 25
M  V30 25 1 24 26
M  V30 26 1 23 27
M  V30 27 2 27 28
M  V30 28 1 28 9
M  V30 29 1 19 14
M  V30 30 1 27 20
M  V30 31 1 1 29
M  V30 32 1 1 30
M  V30 33 1 1 31
M  V30 34 1 2 32
M  V30 35 1 2 33
M  V30 36 1 3 34
M  V30 37 1 4 35
M  V30 38 1 5 36 CFG=1
M  V30 39 1 6 37
M  V30 40 1 6 38
M  V30 41 1 7 39
M  V30 42 1 7 40
M  V30 43 1 7 41
M  V30 44 1 8 42
M  V30 45 1 12 43
M  V30 46 1 13 44
M  V30 47 1 13 45
M  V30 48 1 15 46
M  V30 49 1 16 47
M  V30 50 1 17 48
M  V30 51 1 19 49
M  V30 52 1 22 50
M  V30 53 1 24 51
M  V30 54 1 25 52
M  V30 55 1 25 53
M  V30 56 1 25 54
M  V30 57 1 26 55
M  V30 58 1 26 56
M  V30 59 1 26 57
M  V30 END BOND
M  V30 END CTAB
M  END
>  <Dataset>  (62) 
ChEMBL_Kinases

>  <Ligand_Instance>  (62) 
nan

>  <PDB_ID>  (62) 
nan

>  <Standardized_SMILES>  (62) 
CCC(O)[C@@H](CC)Nc1nc(NCc2cccnc2)c2ncn(C(C)C)c2n1

>  <Name>  (62) 
nan

>  <Pocket>  (62) 
nan

>  <ATP_Site>  (62) 
nan

>  <Peripheral>  (62) 
nan

>  <Num_H_Atoms_ProtBoundConf>  (62) 
nan

>  <Num_Resolved_Atoms>  (62) 
nan

>  <Num_Not_Resolved_Atoms>  (62) 
nan

$$$$
CHEMBL4644916
     RDKit          3D

  0  0  0  0  0  0  0  0  0  0999 V3000
M  V30 BEGIN CTAB
M  V30 COUNTS 72 75 0 0 0
M  V30 BEGIN ATOM
M  V30 1 C -2.083939 -6.588371 5.305840 0
M  V30 2 C -1.511394 -5.622356 4.270157 0
M  V30 3 C -2.646515 -5.244260 3.372674 0
M  V30 4 C -2.258285 -4.277086 2.272227 0
M  V30 5 N -1.746689 -3.042946 2.880046 0
M  V30 6 C -1.320726 -1.984108 1.994907 0
M  V30 7 O -1.610898 -2.678074 1.000835 0
M  V30 8 C -0.806477 -0.737282 2.523013 0
M  V30 9 C -0.918962 -0.601302 3.888790 0
M  V30 10 N -0.502777 0.543353 4.432299 0
M  V30 11 C 0.010178 1.547540 3.721003 0
M  V30 12 C 0.424126 2.704611 4.332197 0
M  V30 13 C 0.959096 3.760228 3.632664 0
M  V30 14 C 1.055521 3.585399 2.272812 0
M  V30 15 C 1.615608 4.653342 1.451475 0
M  V30 16 C 1.692639 4.423318 0.095460 0
M  V30 17 C 2.212893 5.390024 -0.739067 0
M  V30 18 Cl 2.314246 5.099996 -2.481443 0
M  V30 19 C 2.678006 6.612507 -0.301165 0
M  V30 20 O 3.205728 7.607790 -1.098587 0
M  V30 21 C 2.575117 6.788100 1.074530 0
M  V30 22 Cl 3.135538 8.304100 1.750380 0
M  V30 23 C 2.058003 5.848216 1.972431 0
M  V30 24 N 0.651706 2.461671 1.692527 0
M  V30 25 C 0.127218 1.423212 2.363968 0
M  V30 26 C -0.292523 0.243022 1.734040 0
M  V30 27 N -0.118369 0.137698 0.334810 0
M  V30 28 C -0.229698 -0.671211 -0.831486 0 CFG=1
M  V30 29 C 0.179292 0.147692 -2.068119 0
M  V30 30 C 0.094644 -0.654344 -3.308290 0
M  V30 31 C 0.256707 -2.120035 -3.204327 0 CFG=2
M  V30 32 C -1.015380 -2.879911 -3.617912 0
M  V30 33 N -1.310985 -2.544891 -4.978207 0
M  V30 34 C -0.293502 -3.099203 -5.848871 0
M  V30 35 C -2.623638 -3.014936 -5.365274 0
M  V30 36 C 0.815316 -2.661618 -1.934612 0
M  V30 37 C 0.861359 -1.738298 -0.782013 0
M  V30 38 H -2.942815 -7.163797 4.905018 0
M  V30 39 H -1.321633 -7.321492 5.640995 0
M  V30 40 H -2.426838 -6.017155 6.196880 0
M  V30 41 H -0.734206 -6.206718 3.726787 0
M  V30 42 H -1.037488 -4.754031 4.771917 0
M  V30 43 H -3.429239 -4.756136 4.015700 0
M  V30 44 H -3.097776 -6.165230 2.974689 0
M  V30 45 H -1.501984 -4.767011 1.639515 0
M  V30 46 H -3.184045 -4.042638 1.715270 0
M  V30 47 H -1.717478 -3.003616 3.955009 0
M  V30 48 H -1.293512 -1.254466 4.659105 0
M  V30 49 H 0.305843 2.745211 5.407243 0
M  V30 50 H 1.257395 4.630037 4.194237 0
M  V30 51 H 1.362797 3.510221 -0.367603 0
M  V30 52 H 4.089754 8.073445 -0.939081 0
M  V30 53 H 2.013678 6.062865 3.023533 0
M  V30 54 H 0.250948 1.017811 -0.058077 0
M  V30 55 H -1.234277 -1.095657 -1.007646 0
M  V30 56 H 1.238650 0.427090 -1.882391 0
M  V30 57 H -0.397695 1.093337 -2.108439 0
M  V30 58 H -0.936341 -0.470844 -3.735537 0
M  V30 59 H 0.760757 -0.203557 -4.102236 0
M  V30 60 H 0.981293 -2.430978 -4.019445 0
M  V30 61 H -1.836419 -2.737016 -2.916983 0
M  V30 62 H -0.796963 -3.976628 -3.603574 0
M  V30 63 H 0.171214 -4.023050 -5.421485 0
M  V30 64 H 0.523025 -2.393321 -6.023669 0
M  V30 65 H -0.778016 -3.450647 -6.793264 0
M  V30 66 H -3.253317 -2.089444 -5.510036 0
M  V30 67 H -2.518088 -3.571588 -6.310394 0
M  V30 68 H -3.083811 -3.619715 -4.551344 0
M  V30 69 H 1.854868 -3.087434 -2.063107 0
M  V30 70 H 0.210967 -3.573930 -1.659778 0
M  V30 71 H 0.926212 -2.279660 0.154420 0
M  V30 72 H 1.824630 -1.143971 -0.845306 0
M  V30 END ATOM
M  V30 BEGIN BOND
M  V30 1 1 1 2
M  V30 2 1 2 3
M  V30 3 1 3 4
M  V30 4 1 4 5
M  V30 5 1 5 6
M  V30 6 2 6 7
M  V30 7 1 6 8
M  V30 8 2 8 9
M  V30 9 1 9 10
M  V30 10 2 10 11
M  V30 11 1 11 12
M  V30 12 2 12 13
M  V30 13 1 13 14
M  V30 14 1 14 15
M  V30 15 2 15 16
M  V30 16 1 16 17
M  V30 17 1 17 18
M  V30 18 2 17 19
M  V30 19 1 19 20
M  V30 20 1 19 21
M  V30 21 1 21 22
M  V30 22 2 21 23
M  V30 23 2 14 24
M  V30 24 1 24 25
M  V30 25 2 25 26
M  V30 26 1 26 27
M  V30 27 1 27 28
M  V30 28 1 28 29
M  V30 29 1 29 30
M  V30 30 1 30 31
M  V30 31 1 31 32
M  V30 32 1 32 33
M  V30 33 1 33 34
M  V30 34 1 33 35
M  V30 35 1 31 36
M  V30 36 1 36 37
M  V30 37 1 26 8
M  V30 38 1 37 28
M  V30 39 1 25 11
M  V30 40 1 23 15
M  V30 41 1 1 38
M  V30 42 1 1 39
M  V30 43 1 1 40
M  V30 44 1 2 41
M  V30 45 1 2 42
M  V30 46 1 3 43
M  V30 47 1 3 44
M  V30 48 1 4 45
M  V30 49 1 4 46
M  V30 50 1 5 47
M  V30 51 1 9 48
M  V30 52 1 12 49
M  V30 53 1 13 50
M  V30 54 1 16 51
M  V30 55 1 20 52
M  V30 56 1 23 53
M  V30 57 1 27 54
M  V30 58 1 28 55 CFG=3
M  V30 59 1 29 56
M  V30 60 1 29 57
M  V30 61 1 30 58
M  V30 62 1 30 59
M  V30 63 1 31 60 CFG=3
M  V30 64 1 32 61
M  V30 65 1 32 62
M  V30 66 1 34 63
M  V30 67 1 34 64
M  V30 68 1 34 65
M  V30 69 1 35 66
M  V30 70 1 35 67
M  V30 71 1 35 68
M  V30 72 1 36 69
M  V30 73 1 36 70
M  V30 74 1 37 71
M  V30 75 1 37 72
M  V30 END BOND
M  V30 END CTAB
M  END
>  <Dataset>  (63) 
ChEMBL_Kinases

>  <Ligand_Instance>  (63) 
nan

>  <PDB_ID>  (63) 
nan

>  <Standardized_SMILES>  (63) 
CCCCNC(=O)c1cnc2ccc(-c3cc(Cl)c(O)c(Cl)c3)nc2c1N[C@H]1CC[C@H](CN(C)C)CC1

>  <Name>  (63) 
nan

>  <Pocket>  (63) 
nan

>  <ATP_Site>  (63) 
nan

>  <Peripheral>  (63) 
nan

>  <Num_H_Atoms_ProtBoundConf>  (63) 
nan

>  <Num_Resolved_Atoms>  (63) 
nan

>  <Num_Not_Resolved_Atoms>  (63) 
nan

$$$$
CHEMBL5092833
     RDKit          3D

  0  0  0  0  0  0  0  0  0  0999 V3000
M  V30 BEGIN CTAB
M  V30 COUNTS 49 52 0 0 0
M  V30 BEGIN ATOM
M  V30 1 C 0.712898 -4.757602 1.943796 0
M  V30 2 C 1.355967 -3.414117 1.869095 0
M  V30 3 N 2.464835 -2.997313 2.548202 0
M  V30 4 C 2.718185 -1.714354 2.198238 0
M  V30 5 C 3.658733 -0.755225 2.516674 0
M  V30 6 C 3.566658 0.485276 1.917956 0
M  V30 7 C 2.591393 0.847661 1.010640 0
M  V30 8 C 2.530389 2.172789 0.399841 0
M  V30 9 C 3.410104 3.189169 0.646936 0
M  V30 10 C 3.332961 4.426237 0.061088 0
M  V30 11 N 4.262370 5.446582 0.344892 0
M  V30 12 N 2.321399 4.643653 -0.812715 0
M  V30 13 C 1.451510 3.664109 -1.067889 0
M  V30 14 N 0.417317 3.972855 -1.998031 0
M  V30 15 C 1.506163 2.413452 -0.493631 0
M  V30 16 N 1.694234 -0.119595 0.729179 0
M  V30 17 C 1.744978 -1.344624 1.289399 0
M  V30 18 N 0.908274 -2.401542 1.092717 0
M  V30 19 C -0.231158 -2.443548 0.230708 0
M  V30 20 C -1.512935 -2.020487 0.903735 0 CFG=1
M  V30 21 C -1.445215 -0.605280 1.427101 0
M  V30 22 O -2.563023 -2.072650 -0.023213 0
M  V30 23 C -3.678023 -2.847183 0.182295 0
M  V30 24 C -4.117105 -3.700468 1.170115 0
M  V30 25 C -5.310878 -4.351924 1.096067 0
M  V30 26 C -6.128619 -4.168011 0.003013 0
M  V30 27 C -5.696340 -3.322688 -0.978201 0
M  V30 28 N -4.509070 -2.683977 -0.889346 0
M  V30 29 H 1.350906 -5.465299 2.491769 0
M  V30 30 H -0.220680 -4.637639 2.538701 0
M  V30 31 H 0.452174 -5.087835 0.923504 0
M  V30 32 H 4.434978 -1.011074 3.224980 0
M  V30 33 H 4.330269 1.192675 2.206803 0
M  V30 34 H 4.207014 3.027427 1.331249 0
M  V30 35 H 4.700896 5.774527 1.229983 0
M  V30 36 H 4.618573 6.025073 -0.463686 0
M  V30 37 H -0.381446 4.429401 -1.476721 0
M  V30 38 H 0.082890 3.948285 -3.006022 0
M  V30 39 H 0.748510 1.663420 -0.759753 0
M  V30 40 H -0.117370 -1.867222 -0.711025 0
M  V30 41 H -0.391002 -3.494519 -0.104524 0
M  V30 42 H -1.755713 -2.677232 1.756236 0
M  V30 43 H -0.900108 -0.578987 2.379386 0
M  V30 44 H -2.507286 -0.323572 1.650149 0
M  V30 45 H -1.097448 0.115524 0.665918 0
M  V30 46 H -3.405563 -3.768631 1.969261 0
M  V30 47 H -5.539730 -4.982999 1.919151 0
M  V30 48 H -7.085434 -4.707741 -0.027258 0
M  V30 49 H -6.387528 -3.222228 -1.811163 0
M  V30 END ATOM
M  V30 BEGIN BOND
M  V30 1 1 1 2
M  V30 2 2 2 3
M  V30 3 1 3 4
M  V30 4 2 4 5
M  V30 5 1 5 6
M  V30 6 2 6 7
M  V30 7 1 7 8
M  V30 8 2 8 9
M  V30 9 1 9 10
M  V30 10 1 10 11
M  V30 11 2 10 12
M  V30 12 1 12 13
M  V30 13 1 13 14
M  V30 14 2 13 15
M  V30 15 1 7 16
M  V30 16 2 16 17
M  V30 17 1 17 18
M  V30 18 1 18 19
M  V30 19 1 19 20
M  V30 20 1 20 21
M  V30 21 1 20 22
M  V30 22 1 22 23
M  V30 23 2 23 24
M  V30 24 1 24 25
M  V30 25 2 25 26
M  V30 26 1 26 27
M  V30 27 2 27 28
M  V30 28 1 18 2
M  V30 29 1 28 23
M  V30 30 1 17 4
M  V30 31 1 15 8
M  V30 32 1 1 29
M  V30 33 1 1 30
M  V30 34 1 1 31
M  V30 35 1 5 32
M  V30 36 1 6 33
M  V30 37 1 9 34
M  V30 38 1 11 35
M  V30 39 1 11 36
M  V30 40 1 14 37
M  V30 41 1 14 38
M  V30 42 1 15 39
M  V30 43 1 19 40
M  V30 44 1 19 41
M  V30 45 1 20 42 CFG=1
M  V30 46 1 21 43
M  V30 47 1 21 44
M  V30 48 1 21 45
M  V30 49 1 24 46
M  V30 50 1 25 47
M  V30 51 1 26 48
M  V30 52 1 27 49
M  V30 END BOND
M  V30 END CTAB
M  END
>  <Dataset>  (64) 
ChEMBL_Kinases

>  <Ligand_Instance>  (64) 
nan

>  <PDB_ID>  (64) 
nan

>  <Standardized_SMILES>  (64) 
Cc1nc2ccc(-c3cc(N)nc(N)c3)nc2n1C[C@@H](C)Oc1ccccn1

>  <Name>  (64) 
nan

>  <Pocket>  (64) 
nan

>  <ATP_Site>  (64) 
nan

>  <Peripheral>  (64) 
nan

>  <Num_H_Atoms_ProtBoundConf>  (64) 
nan

>  <Num_Resolved_Atoms>  (64) 
nan

>  <Num_Not_Resolved_Atoms>  (64) 
nan

$$$$
CHEMBL4756156
     RDKit          3D

  0  0  0  0  0  0  0  0  0  0999 V3000
M  V30 BEGIN CTAB
M  V30 COUNTS 40 42 0 0 0
M  V30 BEGIN ATOM
M  V30 1 C -2.004998 -3.802490 0.760509 0
M  V30 2 O -1.965609 -2.841279 1.795812 0
M  V30 3 C -0.854420 -2.078916 2.080378 0
M  V30 4 C 0.307633 -2.220829 1.346124 0
M  V30 5 C 1.387858 -1.427910 1.679152 0
M  V30 6 N 2.639472 -1.477223 1.003569 0
M  V30 7 C 2.593876 -0.562231 -0.055606 0
M  V30 8 O 1.758469 0.266339 -0.550102 0
M  V30 9 C 3.444223 -0.053179 -1.158191 0
M  V30 10 C 2.643517 0.974070 -1.917244 0
M  V30 11 C 2.131193 0.541751 -3.146019 0
M  V30 12 C 1.395879 1.473601 -3.847338 0
M  V30 13 C 1.129569 2.759657 -3.452356 0
M  V30 14 C 1.663715 3.134578 -2.223609 0
M  V30 15 C 2.408753 2.254975 -1.468404 0
M  V30 16 Cl 3.073186 2.721092 0.060706 0
M  V30 17 C 1.366131 -0.503668 2.704752 0
M  V30 18 C 0.207306 -0.351265 3.449014 0
M  V30 19 C -0.861442 -1.152157 3.101449 0
M  V30 20 C -2.090732 -0.997254 3.882242 0
M  V30 21 C -2.354026 -0.901321 5.235245 0
M  V30 22 N -3.687714 -0.770235 5.368672 0
M  V30 23 N -4.276395 -0.777567 4.191658 0
M  V30 24 C -3.329307 -0.915801 3.243890 0
M  V30 25 H -1.363308 -4.646430 1.117719 0
M  V30 26 H -3.025557 -4.207223 0.647791 0
M  V30 27 H -1.551755 -3.414050 -0.162252 0
M  V30 28 H 0.403952 -2.927340 0.522266 0
M  V30 29 H 3.596902 -1.885150 0.927877 0
M  V30 30 H 3.837623 -0.809062 -1.832968 0
M  V30 31 H 4.279444 0.504820 -0.703058 0
M  V30 32 H 2.311710 -0.459070 -3.502808 0
M  V30 33 H 0.966050 1.195863 -4.819382 0
M  V30 34 H 0.549822 3.455366 -4.032321 0
M  V30 35 H 1.478280 4.147290 -1.867684 0
M  V30 36 H 2.200669 0.128290 2.984041 0
M  V30 37 H 0.166537 0.362883 4.253037 0
M  V30 38 H -1.532118 -0.940577 5.941311 0
M  V30 39 H -5.304480 -0.693262 3.982144 0
M  V30 40 H -3.536430 -0.953529 2.165811 0
M  V30 END ATOM
M  V30 BEGIN BOND
M  V30 1 1 1 2
M  V30 2 1 2 3
M  V30 3 2 3 4
M  V30 4 1 4 5
M  V30 5 1 5 6
M  V30 6 1 6 7
M  V30 7 2 7 8
M  V30 8 1 7 9
M  V30 9 1 9 10
M  V30 10 2 10 11
M  V30 11 1 11 12
M  V30 12 2 12 13
M  V30 13 1 13 14
M  V30 14 2 14 15
M  V30 15 1 15 16
M  V30 16 2 5 17
M  V30 17 1 17 18
M  V30 18 2 18 19
M  V30 19 1 19 20
M  V30 20 1 20 21
M  V30 21 2 21 22
M  V30 22 1 22 23
M  V30 23 1 23 24
M  V30 24 1 19 3
M  V30 25 2 24 20
M  V30 26 1 15 10
M  V30 27 1 1 25
M  V30 28 1 1 26
M  V30 29 1 1 27
M  V30 30 1 4 28
M  V30 31 1 6 29
M  V30 32 1 9 30
M  V30 33 1 9 31
M  V30 34 1 11 32
M  V30 35 1 12 33
M  V30 36 1 13 34
M  V30 37 1 14 35
M  V30 38 1 17 36
M  V30 39 1 18 37
M  V30 40 1 21 38
M  V30 41 1 23 39
M  V30 42 1 24 40
M  V30 END BOND
M  V30 END CTAB
M  END
>  <Dataset>  (65) 
ChEMBL_Kinases

>  <Ligand_Instance>  (65) 
nan

>  <PDB_ID>  (65) 
nan

>  <Standardized_SMILES>  (65) 
COc1cc(NC(=O)Cc2ccccc2Cl)ccc1-c1cn[nH]c1

>  <Name>  (65) 
nan

>  <Pocket>  (65) 
nan

>  <ATP_Site>  (65) 
nan

>  <Peripheral>  (65) 
nan

>  <Num_H_Atoms_ProtBoundConf>  (65) 
nan

>  <Num_Resolved_Atoms>  (65) 
nan

>  <Num_Not_Resolved_Atoms>  (65) 
nan

$$$$
CHEMBL5092612
     RDKit          3D

  0  0  0  0  0  0  0  0  0  0999 V3000
M  V30 BEGIN CTAB
M  V30 COUNTS 44 47 0 0 0
M  V30 BEGIN ATOM
M  V30 1 C 0.197669 -4.442559 0.636865 0
M  V30 2 C 0.086777 -3.354285 1.678984 0
M  V30 3 N -0.443042 -3.916332 2.884445 0
M  V30 4 C -0.744661 -2.195144 1.143090 0
M  V30 5 C 0.026355 -1.467645 0.091077 0
M  V30 6 N 1.197034 -0.811676 0.697505 0
M  V30 7 C 2.078743 0.164466 0.172315 0
M  V30 8 N 3.304796 -0.412804 0.013437 0
M  V30 9 C 4.319233 0.333310 -0.515956 0
M  V30 10 N 4.135592 1.631245 -0.886131 0
M  V30 11 C 2.942913 2.235093 -0.744759 0
M  V30 12 N 2.366400 3.427420 -0.970459 0
M  V30 13 C 1.063543 3.426638 -0.600413 0
M  V30 14 C 0.750355 2.158339 -0.096983 0
M  V30 15 C -0.570144 1.844831 0.423195 0
M  V30 16 C -0.951242 1.328158 1.663353 0
M  V30 17 C -2.260789 1.098385 1.946991 0
M  V30 18 C -3.232462 1.367226 1.027728 0
M  V30 19 C -2.912364 1.878117 -0.211096 0
M  V30 20 Cl -4.215452 2.196907 -1.335629 0
M  V30 21 C -1.578758 2.117287 -0.513721 0
M  V30 22 C 1.931285 1.474013 -0.210524 0
M  V30 23 C 1.412076 -1.333107 2.058160 0
M  V30 24 C 1.492166 -2.844137 1.969578 0
M  V30 25 H -0.139233 -5.442893 1.006408 0
M  V30 26 H -0.366933 -4.129006 -0.259349 0
M  V30 27 H 1.258702 -4.552434 0.271936 0
M  V30 28 H -0.796775 -4.897833 2.770079 0
M  V30 29 H 0.162572 -3.890332 3.711919 0
M  V30 30 H -1.629078 -2.675625 0.656417 0
M  V30 31 H -1.103874 -1.553190 1.970069 0
M  V30 32 H 0.497407 -2.276927 -0.551344 0
M  V30 33 H -0.539368 -0.832011 -0.579684 0
M  V30 34 H 5.325391 -0.022041 -0.684836 0
M  V30 35 H 2.928938 4.223167 -1.390013 0
M  V30 36 H 0.375417 4.267248 -0.680235 0
M  V30 37 H -0.015624 1.201362 2.224879 0
M  V30 38 H -2.374737 0.696353 2.954206 0
M  V30 39 H -4.248498 1.140014 1.373838 0
M  V30 40 H -1.444589 2.517111 -1.510472 0
M  V30 41 H 0.678653 -0.988185 2.781523 0
M  V30 42 H 2.416582 -1.000874 2.384061 0
M  V30 43 H 2.180484 -3.143952 1.170571 0
M  V30 44 H 1.836423 -3.214518 2.936561 0
M  V30 END ATOM
M  V30 BEGIN BOND
M  V30 1 1 1 2
M  V30 2 1 2 3
M  V30 3 1 2 4
M  V30 4 1 4 5
M  V30 5 1 5 6
M  V30 6 1 6 7
M  V30 7 2 7 8
M  V30 8 1 8 9
M  V30 9 2 9 10
M  V30 10 1 10 11
M  V30 11 1 11 12
M  V30 12 1 12 13
M  V30 13 2 13 14
M  V30 14 1 14 15
M  V30 15 2 15 16
M  V30 16 1 16 17
M  V30 17 2 17 18
M  V30 18 1 18 19
M  V30 19 1 19 20
M  V30 20 2 19 21
M  V30 21 1 14 22
M  V30 22 1 6 23
M  V30 23 1 23 24
M  V30 24 1 24 2
M  V30 25 1 22 7
M  V30 26 2 22 11
M  V30 27 1 21 15
M  V30 28 1 1 25
M  V30 29 1 1 26
M  V30 30 1 1 27
M  V30 31 1 3 28
M  V30 32 1 3 29
M  V30 33 1 4 30
M  V30 34 1 4 31
M  V30 35 1 5 32
M  V30 36 1 5 33
M  V30 37 1 9 34
M  V30 38 1 12 35
M  V30 39 1 13 36
M  V30 40 1 16 37
M  V30 41 1 17 38
M  V30 42 1 18 39
M  V30 43 1 21 40
M  V30 44 1 23 41
M  V30 45 1 23 42
M  V30 46 1 24 43
M  V30 47 1 24 44
M  V30 END BOND
M  V30 END CTAB
M  END
>  <Dataset>  (66) 
ChEMBL_Kinases

>  <Ligand_Instance>  (66) 
nan

>  <PDB_ID>  (66) 
nan

>  <Standardized_SMILES>  (66) 
CC1(N)CCN(c2ncnc3[nH]cc(-c4cccc(Cl)c4)c23)CC1

>  <Name>  (66) 
nan

>  <Pocket>  (66) 
nan

>  <ATP_Site>  (66) 
nan

>  <Peripheral>  (66) 
nan

>  <Num_H_Atoms_ProtBoundConf>  (66) 
nan

>  <Num_Resolved_Atoms>  (66) 
nan

>  <Num_Not_Resolved_Atoms>  (66) 
nan

$$$$
CHEMBL4756404
     RDKit          3D

  0  0  0  0  0  0  0  0  0  0999 V3000
M  V30 BEGIN CTAB
M  V30 COUNTS 52 56 0 0 0
M  V30 BEGIN ATOM
M  V30 1 C 1.882771 -0.460302 5.017641 0
M  V30 2 C 2.031444 -1.206484 3.738238 0
M  V30 3 C 2.676394 -2.424041 3.823964 0
M  V30 4 C 2.820571 -3.126649 2.642788 0
M  V30 5 C 2.338462 -2.619933 1.452889 0
M  V30 6 C 1.695615 -1.399797 1.386501 0
M  V30 7 C 1.147299 -0.776668 0.187214 0
M  V30 8 N 1.684002 0.368816 -0.268823 0
M  V30 9 C 1.051775 0.787721 -1.373612 0
M  V30 10 C 1.080047 1.899738 -2.357271 0
M  V30 11 N 0.150380 2.935751 -1.978498 0
M  V30 12 C 0.123855 3.815164 -0.880166 0
M  V30 13 C 1.065092 3.883411 0.120801 0
M  V30 14 C 1.033096 4.738437 1.192480 0
M  V30 15 C -0.025800 5.593295 1.268093 0
M  V30 16 C -0.995121 5.580383 0.311239 0
M  V30 17 C -0.917847 4.702684 -0.745769 0
M  V30 18 N 0.079160 -0.140962 -1.612858 0
M  V30 19 C 0.122354 -1.100628 -0.673304 0
M  V30 20 C -0.698525 -2.291872 -0.502509 0
M  V30 21 C -2.007531 -2.090484 -0.120083 0
M  V30 22 C -2.940361 -3.106169 0.088893 0
M  V30 23 C -2.528822 -4.408111 -0.099360 0
M  V30 24 C -1.220657 -4.634673 -0.482927 0
M  V30 25 C -0.978902 -5.987078 -0.625953 0
M  V30 26 N -2.147657 -6.558451 -0.325969 0
M  V30 27 N -3.068098 -5.639076 -0.014233 0
M  V30 28 C -4.453751 -5.892671 0.365633 0
M  V30 29 C -0.310639 -3.600098 -0.684376 0
M  V30 30 N 1.580552 -0.757647 2.556476 0
M  V30 31 H 1.682246 0.614415 4.737743 0
M  V30 32 H 0.989043 -0.818682 5.569078 0
M  V30 33 H 2.805953 -0.524952 5.588869 0
M  V30 34 H 3.084750 -2.893222 4.722232 0
M  V30 35 H 3.306624 -4.092871 2.574361 0
M  V30 36 H 2.451764 -3.164366 0.530324 0
M  V30 37 H 2.459769 0.933693 0.076378 0
M  V30 38 H 2.104133 2.380583 -2.222652 0
M  V30 39 H 0.955100 1.563238 -3.396265 0
M  V30 40 H -0.649033 3.022675 -2.678189 0
M  V30 41 H 1.912374 3.217125 0.072141 0
M  V30 42 H 1.818970 4.728525 1.941435 0
M  V30 43 H -0.099596 6.287139 2.091130 0
M  V30 44 H -1.841642 6.268699 0.376907 0
M  V30 45 H -1.738848 4.750961 -1.480525 0
M  V30 46 H -2.424356 -1.105111 0.051318 0
M  V30 47 H -3.954454 -2.929458 0.386562 0
M  V30 48 H -0.048377 -6.480728 -0.916894 0
M  V30 49 H -4.518385 -6.986927 0.636833 0
M  V30 50 H -5.184315 -5.639422 -0.403177 0
M  V30 51 H -4.730007 -5.354884 1.305607 0
M  V30 52 H 0.713473 -3.756579 -0.986664 0
M  V30 END ATOM
M  V30 BEGIN BOND
M  V30 1 1 1 2
M  V30 2 2 2 3
M  V30 3 1 3 4
M  V30 4 2 4 5
M  V30 5 1 5 6
M  V30 6 1 6 7
M  V30 7 1 7 8
M  V30 8 1 8 9
M  V30 9 1 9 10
M  V30 10 1 10 11
M  V30 11 1 11 12
M  V30 12 2 12 13
M  V30 13 1 13 14
M  V30 14 2 14 15
M  V30 15 1 15 16
M  V30 16 2 16 17
M  V30 17 2 9 18
M  V30 18 1 18 19
M  V30 19 1 19 20
M  V30 20 2 20 21
M  V30 21 1 21 22
M  V30 22 2 22 23
M  V30 23 1 23 24
M  V30 24 1 24 25
M  V30 25 2 25 26
M  V30 26 1 26 27
M  V30 27 1 27 28
M  V30 28 2 24 29
M  V30 29 2 6 30
M  V30 30 1 30 2
M  V30 31 2 19 7
M  V30 32 1 29 20
M  V30 33 1 17 12
M  V30 34 1 27 23
M  V30 35 1 1 31
M  V30 36 1 1 32
M  V30 37 1 1 33
M  V30 38 1 3 34
M  V30 39 1 4 35
M  V30 40 1 5 36
M  V30 41 1 8 37
M  V30 42 1 10 38
M  V30 43 1 10 39
M  V30 44 1 11 40
M  V30 45 1 13 41
M  V30 46 1 14 42
M  V30 47 1 15 43
M  V30 48 1 16 44
M  V30 49 1 17 45
M  V30 50 1 21 46
M  V30 51 1 22 47
M  V30 52 1 25 48
M  V30 53 1 28 49
M  V30 54 1 28 50
M  V30 55 1 28 51
M  V30 56 1 29 52
M  V30 END BOND
M  V30 END CTAB
M  END
>  <Dataset>  (67) 
ChEMBL_Kinases

>  <Ligand_Instance>  (67) 
nan

>  <PDB_ID>  (67) 
nan

>  <Standardized_SMILES>  (67) 
Cc1cccc(-c2[nH]c(CNc3ccccc3)nc2-c2ccc3c(cnn3C)c2)n1

>  <Name>  (67) 
nan

>  <Pocket>  (67) 
nan

>  <ATP_Site>  (67) 
nan

>  <Peripheral>  (67) 
nan

>  <Num_H_Atoms_ProtBoundConf>  (67) 
nan

>  <Num_Resolved_Atoms>  (67) 
nan

>  <Num_Not_Resolved_Atoms>  (67) 
nan

$$$$
CHEMBL5092362
     RDKit          3D

  0  0  0  0  0  0  0  0  0  0999 V3000
M  V30 BEGIN CTAB
M  V30 COUNTS 28 30 0 0 0
M  V30 BEGIN ATOM
M  V30 1 N -2.676280 -3.642647 1.836488 0
M  V30 2 C -1.475860 -2.909009 2.037788 0
M  V30 3 C -1.117355 -1.873909 1.211170 0
M  V30 4 C 0.046902 -1.161486 1.406487 0
M  V30 5 C 0.527294 -0.043698 0.589626 0
M  V30 6 C 1.277997 0.971560 1.167370 0
M  V30 7 C 1.726444 2.028026 0.367315 0
M  V30 8 C 1.392456 2.000289 -0.969132 0
M  V30 9 O 1.728603 2.905572 -1.857416 0
M  V30 10 C 1.251517 2.579485 -3.036133 0
M  V30 11 C 0.565572 1.385072 -2.884505 0
M  V30 12 C 0.648763 0.996091 -1.545146 0
M  V30 13 C 0.209238 -0.042720 -0.753045 0
M  V30 14 C 0.878806 -1.508029 2.476406 0
M  V30 15 C 0.487662 -2.563740 3.298617 0
M  V30 16 N 1.237177 -3.019932 4.418810 0
M  V30 17 N -0.662174 -3.240616 3.076529 0
M  V30 18 H -2.515108 -4.343333 1.051285 0
M  V30 19 H -3.531909 -3.437116 2.434247 0
M  V30 20 H -1.727843 -1.570495 0.371781 0
M  V30 21 H 1.515941 0.953776 2.211537 0
M  V30 22 H 2.299795 2.780853 0.867386 0
M  V30 23 H 1.321729 3.076083 -4.003316 0
M  V30 24 H 0.037862 0.806529 -3.630462 0
M  V30 25 H -0.361697 -0.784108 -1.268730 0
M  V30 26 H 1.808228 -1.069629 2.775526 0
M  V30 27 H 2.097654 -3.482780 3.997412 0
M  V30 28 H 1.214191 -3.043073 5.454715 0
M  V30 END ATOM
M  V30 BEGIN BOND
M  V30 1 1 1 2
M  V30 2 2 2 3
M  V30 3 1 3 4
M  V30 4 1 4 5
M  V30 5 2 5 6
M  V30 6 1 6 7
M  V30 7 2 7 8
M  V30 8 1 8 9
M  V30 9 1 9 10
M  V30 10 2 10 11
M  V30 11 1 11 12
M  V30 12 2 12 13
M  V30 13 2 4 14
M  V30 14 1 14 15
M  V30 15 1 15 16
M  V30 16 2 15 17
M  V30 17 1 17 2
M  V30 18 1 13 5
M  V30 19 1 12 8
M  V30 20 1 1 18
M  V30 21 1 1 19
M  V30 22 1 3 20
M  V30 23 1 6 21
M  V30 24 1 7 22
M  V30 25 1 10 23
M  V30 26 1 11 24
M  V30 27 1 13 25
M  V30 28 1 14 26
M  V30 29 1 16 27
M  V30 30 1 16 28
M  V30 END BOND
M  V30 END CTAB
M  END
>  <Dataset>  (68) 
ChEMBL_Kinases

>  <Ligand_Instance>  (68) 
nan

>  <PDB_ID>  (68) 
nan

>  <Standardized_SMILES>  (68) 
Nc1cc(-c2ccc3occc3c2)cc(N)n1

>  <Name>  (68) 
nan

>  <Pocket>  (68) 
nan

>  <ATP_Site>  (68) 
nan

>  <Peripheral>  (68) 
nan

>  <Num_H_Atoms_ProtBoundConf>  (68) 
nan

>  <Num_Resolved_Atoms>  (68) 
nan

>  <Num_Not_Resolved_Atoms>  (68) 
nan

$$$$
CHEMBL4756455
     RDKit          3D

  0  0  0  0  0  0  0  0  0  0999 V3000
M  V30 BEGIN CTAB
M  V30 COUNTS 49 52 0 0 0
M  V30 BEGIN ATOM
M  V30 1 O 1.707512 1.043262 -0.431846 0
M  V30 2 C 2.892787 1.420765 -0.664603 0
M  V30 3 N 3.257977 1.259462 -2.016695 0
M  V30 4 C 2.148450 0.701336 -2.743118 0
M  V30 5 C 1.951515 -0.635966 -2.892632 0
M  V30 6 C 0.881895 -1.138763 -3.592315 0
M  V30 7 C 0.039955 -0.169702 -4.120373 0
M  V30 8 N 0.234128 1.146190 -3.973000 0
M  V30 9 C 1.281272 1.648690 -3.287850 0
M  V30 10 C 3.785973 1.967137 0.367872 0
M  V30 11 N 5.058793 2.402783 0.257509 0
M  V30 12 N 5.483310 2.815546 1.454225 0
M  V30 13 C 4.471603 2.637909 2.319683 0
M  V30 14 C 3.384833 2.106560 1.678862 0
M  V30 15 C 2.094466 1.759708 2.227935 0
M  V30 16 C 1.004358 1.447327 2.690698 0
M  V30 17 C -0.263028 1.072192 3.252917 0
M  V30 18 C -0.902952 1.823261 4.217207 0
M  V30 19 N -2.107161 1.406511 4.707753 0
M  V30 20 C -2.658809 0.252389 4.235605 0
M  V30 21 C -2.015327 -0.512646 3.258870 0
M  V30 22 O -2.789521 -1.626042 2.962566 0
M  V30 23 C -2.469101 -2.619339 2.033196 0
M  V30 24 C -2.438428 -4.005898 2.679981 0
M  V30 25 C -1.807715 -4.937865 1.681180 0
M  V30 26 N -2.017559 -4.515793 0.316979 0
M  V30 27 C -3.312790 -3.910222 0.110500 0
M  V30 28 C -3.581122 -2.721378 0.983258 0
M  V30 29 C -0.798341 -0.095127 2.760477 0
M  V30 30 H 4.235549 1.546795 -2.319432 0
M  V30 31 H 2.649760 -1.339435 -2.453034 0
M  V30 32 H 0.662235 -2.171254 -3.751452 0
M  V30 33 H -0.837252 -0.449308 -4.691986 0
M  V30 34 H 1.439493 2.706377 -3.168006 0
M  V30 35 H 6.446447 3.203950 1.641680 0
M  V30 36 H 4.497716 2.876493 3.376530 0
M  V30 37 H -0.414637 2.738290 4.558036 0
M  V30 38 H -3.599897 0.078185 4.728566 0
M  V30 39 H -1.498235 -2.426173 1.534427 0
M  V30 40 H -1.929568 -4.004632 3.653199 0
M  V30 41 H -3.505111 -4.299112 2.817931 0
M  V30 42 H -0.698486 -4.879753 1.863022 0
M  V30 43 H -2.075077 -6.006519 1.831393 0
M  V30 44 H -1.240764 -3.971679 -0.094467 0
M  V30 45 H -3.312239 -3.548790 -0.940123 0
M  V30 46 H -4.113468 -4.688874 0.143956 0
M  V30 47 H -3.705401 -1.769865 0.440995 0
M  V30 48 H -4.505732 -2.957219 1.574532 0
M  V30 49 H -0.419406 -0.767218 2.024995 0
M  V30 END ATOM
M  V30 BEGIN BOND
M  V30 1 2 1 2
M  V30 2 1 2 3
M  V30 3 1 3 4
M  V30 4 2 4 5
M  V30 5 1 5 6
M  V30 6 2 6 7
M  V30 7 1 7 8
M  V30 8 2 8 9
M  V30 9 1 2 10
M  V30 10 2 10 11
M  V30 11 1 11 12
M  V30 12 1 12 13
M  V30 13 2 13 14
M  V30 14 1 14 15
M  V30 15 3 15 16
M  V30 16 1 16 17
M  V30 17 2 17 18
M  V30 18 1 18 19
M  V30 19 2 19 20
M  V30 20 1 20 21
M  V30 21 1 21 22
M  V30 22 1 22 23
M  V30 23 1 23 24
M  V30 24 1 24 25
M  V30 25 1 25 26
M  V30 26 1 26 27
M  V30 27 1 27 28
M  V30 28 2 21 29
M  V30 29 1 9 4
M  V30 30 1 14 10
M  V30 31 1 29 17
M  V30 32 1 28 23
M  V30 33 1 3 30
M  V30 34 1 5 31
M  V30 35 1 6 32
M  V30 36 1 7 33
M  V30 37 1 9 34
M  V30 38 1 12 35
M  V30 39 1 13 36
M  V30 40 1 18 37
M  V30 41 1 20 38
M  V30 42 1 23 39
M  V30 43 1 24 40
M  V30 44 1 24 41
M  V30 45 1 25 42
M  V30 46 1 25 43
M  V30 47 1 26 44
M  V30 48 1 27 45
M  V30 49 1 27 46
M  V30 50 1 28 47
M  V30 51 1 28 48
M  V30 52 1 29 49
M  V30 END BOND
M  V30 END CTAB
M  END
>  <Dataset>  (69) 
ChEMBL_Kinases

>  <Ligand_Instance>  (69) 
nan

>  <PDB_ID>  (69) 
nan

>  <Standardized_SMILES>  (69) 
O=C(Nc1cccnc1)c1n[nH]cc1C#Cc1cncc(OC2CCNCC2)c1

>  <Name>  (69) 
nan

>  <Pocket>  (69) 
nan

>  <ATP_Site>  (69) 
nan

>  <Peripheral>  (69) 
nan

>  <Num_H_Atoms_ProtBoundConf>  (69) 
nan

>  <Num_Resolved_Atoms>  (69) 
nan

>  <Num_Not_Resolved_Atoms>  (69) 
nan

$$$$
CHEMBL1352577
     RDKit          3D

  0  0  0  0  0  0  0  0  0  0999 V3000
M  V30 BEGIN CTAB
M  V30 COUNTS 31 33 0 0 0
M  V30 BEGIN ATOM
M  V30 1 N -3.568051 -3.055408 4.437195 0
M  V30 2 C -2.915267 -3.145129 3.495378 0
M  V30 3 C -2.088054 -3.252406 2.327095 0
M  V30 4 C -0.845776 -2.629009 2.277750 0
M  V30 5 C -0.080179 -2.752392 1.145499 0
M  V30 6 C -0.493588 -3.481902 0.028009 0
M  V30 7 C 0.435579 -3.528679 -1.132209 0
M  V30 8 S 0.153996 -2.212673 -2.319041 0
M  V30 9 C 0.514880 -0.588722 -1.676525 0
M  V30 10 N 0.317657 0.452488 -2.535669 0
M  V30 11 N 0.646029 1.538420 -1.846984 0
M  V30 12 C 1.037574 1.199148 -0.596856 0
M  V30 13 C 1.466611 2.140081 0.428565 0
M  V30 14 C 1.500095 3.499808 0.164988 0
M  V30 15 C 1.907200 4.403786 1.136567 0
M  V30 16 N 2.275663 3.959155 2.352802 0
M  V30 17 C 2.259329 2.629537 2.659967 0
M  V30 18 C 1.850779 1.721731 1.685009 0
M  V30 19 O 0.942164 -0.106932 -0.535832 0
M  V30 20 C -1.740558 -4.099484 0.095603 0
M  V30 21 C -2.508780 -3.974859 1.233436 0
M  V30 22 H -0.498440 -2.049096 3.146711 0
M  V30 23 H 0.860155 -2.251712 1.172726 0
M  V30 24 H 0.274852 -4.514694 -1.611104 0
M  V30 25 H 1.468173 -3.541789 -0.730753 0
M  V30 26 H 1.199468 3.835184 -0.819643 0
M  V30 27 H 1.896623 5.440344 0.828729 0
M  V30 28 H 2.557810 2.280220 3.643108 0
M  V30 29 H 1.847391 0.674118 1.953341 0
M  V30 30 H -2.043315 -4.660071 -0.778569 0
M  V30 31 H -3.475386 -4.453375 1.286170 0
M  V30 END ATOM
M  V30 BEGIN BOND
M  V30 1 3 1 2
M  V30 2 1 2 3
M  V30 3 2 3 4
M  V30 4 1 4 5
M  V30 5 2 5 6
M  V30 6 1 6 7
M  V30 7 1 7 8
M  V30 8 1 8 9
M  V30 9 2 9 10
M  V30 10 1 10 11
M  V30 11 2 11 12
M  V30 12 1 12 13
M  V30 13 2 13 14
M  V30 14 1 14 15
M  V30 15 2 15 16
M  V30 16 1 16 17
M  V30 17 2 17 18
M  V30 18 1 12 19
M  V30 19 1 6 20
M  V30 20 2 20 21
M  V30 21 1 21 3
M  V30 22 1 19 9
M  V30 23 1 18 13
M  V30 24 1 4 22
M  V30 25 1 5 23
M  V30 26 1 7 24
M  V30 27 1 7 25
M  V30 28 1 14 26
M  V30 29 1 15 27
M  V30 30 1 17 28
M  V30 31 1 18 29
M  V30 32 1 20 30
M  V30 33 1 21 31
M  V30 END BOND
M  V30 END CTAB
M  END
>  <Dataset>  (70) 
ChEMBL_Kinases

>  <Ligand_Instance>  (70) 
nan

>  <PDB_ID>  (70) 
nan

>  <Standardized_SMILES>  (70) 
N#Cc1ccc(CSc2nnc(-c3ccncc3)o2)cc1

>  <Name>  (70) 
nan

>  <Pocket>  (70) 
nan

>  <ATP_Site>  (70) 
nan

>  <Peripheral>  (70) 
nan

>  <Num_H_Atoms_ProtBoundConf>  (70) 
nan

>  <Num_Resolved_Atoms>  (70) 
nan

>  <Num_Not_Resolved_Atoms>  (70) 
nan

$$$$
CHEMBL1915651
     RDKit          3D

  0  0  0  0  0  0  0  0  0  0999 V3000
M  V30 BEGIN CTAB
M  V30 COUNTS 38 41 0 0 0
M  V30 BEGIN ATOM
M  V30 1 N 1.279137 0.978704 3.101565 0
M  V30 2 C 0.615704 0.026679 3.917252 0
M  V30 3 O 0.743062 0.146379 5.155838 0
M  V30 4 C -0.203981 -1.080135 3.404997 0
M  V30 5 C -0.796821 -1.916749 4.322740 0
M  V30 6 C -1.584986 -2.985341 3.928600 0
M  V30 7 C -1.778153 -3.213951 2.577466 0
M  V30 8 C -1.195154 -2.390932 1.650747 0
M  V30 9 C -0.411834 -1.329052 2.067694 0
M  V30 10 N 0.173779 -0.505379 1.148154 0
M  V30 11 C -0.015865 -0.733510 -0.163902 0
M  V30 12 N 0.598231 0.125431 -1.108697 0
M  V30 13 C 1.410948 1.266763 -0.883957 0
M  V30 14 C 2.784410 1.197867 -0.688195 0
M  V30 15 F 3.364027 -0.017085 -0.708530 0
M  V30 16 C 3.566555 2.337221 -0.475517 0
M  V30 17 C 2.934884 3.585075 -0.461007 0
M  V30 18 C 1.568268 3.704034 -0.651283 0
M  V30 19 C 0.868837 2.532646 -0.854470 0
M  V30 20 F -0.471608 2.746835 -1.037078 0
M  V30 21 C -0.788803 -1.780196 -0.600863 0
M  V30 22 C -1.010194 -2.052631 -1.914890 0
M  V30 23 C -1.783383 -3.101617 -2.373054 0
M  V30 24 N -2.341876 -3.889075 -1.428963 0
M  V30 25 C -2.148201 -3.654054 -0.115462 0
M  V30 26 C -1.373602 -2.602967 0.324157 0
M  V30 27 H 1.842514 0.801527 2.231090 0
M  V30 28 H 1.860696 1.111328 2.259302 0
M  V30 29 H -0.655625 -1.752106 5.382238 0
M  V30 30 H -2.033040 -3.620511 4.701707 0
M  V30 31 H -2.398814 -4.058097 2.372539 0
M  V30 32 H 0.600722 0.125504 -2.141161 0
M  V30 33 H 4.649096 2.223336 -0.326001 0
M  V30 34 H 3.629796 4.397326 -0.289163 0
M  V30 35 H 1.175249 4.688838 -0.624605 0
M  V30 36 H -0.572318 -1.434659 -2.685735 0
M  V30 37 H -1.965386 -3.326807 -3.427024 0
M  V30 38 H -2.661554 -4.371773 0.495650 0
M  V30 END ATOM
M  V30 BEGIN BOND
M  V30 1 1 1 2
M  V30 2 2 2 3
M  V30 3 1 2 4
M  V30 4 2 4 5
M  V30 5 1 5 6
M  V30 6 2 6 7
M  V30 7 1 7 8
M  V30 8 2 8 9
M  V30 9 1 9 10
M  V30 10 2 10 11
M  V30 11 1 11 12
M  V30 12 1 12 13
M  V30 13 2 13 14
M  V30 14 1 14 15
M  V30 15 1 14 16
M  V30 16 2 16 17
M  V30 17 1 17 18
M  V30 18 2 18 19
M  V30 19 1 19 20
M  V30 20 1 11 21
M  V30 21 2 21 22
M  V30 22 1 22 23
M  V30 23 2 23 24
M  V30 24 1 24 25
M  V30 25 2 25 26
M  V30 26 1 9 4
M  V30 27 1 19 13
M  V30 28 1 26 21
M  V30 29 1 26 8
M  V30 30 1 1 27
M  V30 31 1 1 28
M  V30 32 1 5 29
M  V30 33 1 6 30
M  V30 34 1 7 31
M  V30 35 1 12 32
M  V30 36 1 16 33
M  V30 37 1 17 34
M  V30 38 1 18 35
M  V30 39 1 22 36
M  V30 40 1 23 37
M  V30 41 1 25 38
M  V30 END BOND
M  V30 END CTAB
M  END
>  <Dataset>  (71) 
ChEMBL_Kinases

>  <Ligand_Instance>  (71) 
nan

>  <PDB_ID>  (71) 
nan

>  <Standardized_SMILES>  (71) 
NC(=O)c1cccc2c1nc(Nc1c(F)cccc1F)c1ccncc12

>  <Name>  (71) 
nan

>  <Pocket>  (71) 
nan

>  <ATP_Site>  (71) 
nan

>  <Peripheral>  (71) 
nan

>  <Num_H_Atoms_ProtBoundConf>  (71) 
nan

>  <Num_Resolved_Atoms>  (71) 
nan

>  <Num_Not_Resolved_Atoms>  (71) 
nan

$$$$
CHEMBL1915650
     RDKit          3D

  0  0  0  0  0  0  0  0  0  0999 V3000
M  V30 BEGIN CTAB
M  V30 COUNTS 41 44 0 0 0
M  V30 BEGIN ATOM
M  V30 1 C 3.714589 -2.802354 1.626381 0
M  V30 2 N 2.595498 -2.652847 0.746528 0
M  V30 3 C 2.435240 -1.957270 -0.498613 0
M  V30 4 O 3.412762 -1.335125 -0.981079 0
M  V30 5 C 1.125849 -2.004760 -1.156609 0
M  V30 6 C 0.745717 -2.921818 -2.114476 0
M  V30 7 C -0.512206 -2.892414 -2.680446 0
M  V30 8 C -1.411796 -1.920838 -2.277226 0
M  V30 9 C -1.063003 -0.996192 -1.327812 0
M  V30 10 C 0.198300 -1.043560 -0.775931 0
M  V30 11 N 0.536950 -0.125661 0.164072 0
M  V30 12 C -0.312907 0.830096 0.578337 0
M  V30 13 N 0.207542 1.707037 1.566752 0
M  V30 14 C 0.696637 1.055488 2.735027 0
M  V30 15 C 2.056265 1.338442 2.916943 0
M  V30 16 C 2.768915 0.824008 3.981597 0
M  V30 17 C 2.101222 0.008054 4.880874 0
M  V30 18 C 0.762458 -0.273746 4.705316 0
M  V30 19 C 0.053793 0.241842 3.642109 0
M  V30 20 F -1.251575 0.058543 3.341129 0
M  V30 21 C -1.579701 0.898777 0.041549 0
M  V30 22 C -2.418829 1.907257 0.504437 0
M  V30 23 C -3.673998 1.887707 -0.101898 0
M  V30 24 N -4.032924 0.993714 -1.030125 0
M  V30 25 C -3.203934 0.022900 -1.466263 0
M  V30 26 C -1.944588 -0.024237 -0.914684 0
M  V30 27 H 3.973131 -3.879893 1.730752 0
M  V30 28 H 4.579019 -2.197461 1.267218 0
M  V30 29 H 3.383393 -2.451346 2.645030 0
M  V30 30 H 1.746327 -3.172273 1.124920 0
M  V30 31 H 1.474928 -3.664578 -2.400649 0
M  V30 32 H -0.759870 -3.643344 -3.435642 0
M  V30 33 H -2.352944 -1.973760 -2.763267 0
M  V30 34 H 0.264894 2.767386 1.516686 0
M  V30 35 H 2.684843 1.968375 2.271072 0
M  V30 36 H 3.816316 1.015010 4.161517 0
M  V30 37 H 2.634191 -0.405428 5.718933 0
M  V30 38 H 0.189980 -0.900291 5.370524 0
M  V30 39 H -2.094081 2.606319 1.249732 0
M  V30 40 H -4.387187 2.645791 0.206176 0
M  V30 41 H -3.606382 -0.633600 -2.213810 0
M  V30 END ATOM
M  V30 BEGIN BOND
M  V30 1 1 1 2
M  V30 2 1 2 3
M  V30 3 2 3 4
M  V30 4 1 3 5
M  V30 5 2 5 6
M  V30 6 1 6 7
M  V30 7 2 7 8
M  V30 8 1 8 9
M  V30 9 2 9 10
M  V30 10 1 10 11
M  V30 11 2 11 12
M  V30 12 1 12 13
M  V30 13 1 13 14
M  V30 14 2 14 15
M  V30 15 1 15 16
M  V30 16 2 16 17
M  V30 17 1 17 18
M  V30 18 2 18 19
M  V30 19 1 19 20
M  V30 20 1 12 21
M  V30 21 2 21 22
M  V30 22 1 22 23
M  V30 23 2 23 24
M  V30 24 1 24 25
M  V30 25 2 25 26
M  V30 26 1 10 5
M  V30 27 1 19 14
M  V30 28 1 26 21
M  V30 29 1 26 9
M  V30 30 1 1 27
M  V30 31 1 1 28
M  V30 32 1 1 29
M  V30 33 1 2 30
M  V30 34 1 6 31
M  V30 35 1 7 32
M  V30 36 1 8 33
M  V30 37 1 13 34
M  V30 38 1 15 35
M  V30 39 1 16 36
M  V30 40 1 17 37
M  V30 41 1 18 38
M  V30 42 1 22 39
M  V30 43 1 23 40
M  V30 44 1 25 41
M  V30 END BOND
M  V30 END CTAB
M  END
>  <Dataset>  (72) 
ChEMBL_Kinases

>  <Ligand_Instance>  (72) 
nan

>  <PDB_ID>  (72) 
nan

>  <Standardized_SMILES>  (72) 
CNC(=O)c1cccc2c1nc(Nc1ccccc1F)c1ccncc12

>  <Name>  (72) 
nan

>  <Pocket>  (72) 
nan

>  <ATP_Site>  (72) 
nan

>  <Peripheral>  (72) 
nan

>  <Num_H_Atoms_ProtBoundConf>  (72) 
nan

>  <Num_Resolved_Atoms>  (72) 
nan

>  <Num_Not_Resolved_Atoms>  (72) 
nan

$$$$
CHEMBL4755895
     RDKit          3D

  0  0  0  0  0  0  0  0  0  0999 V3000
M  V30 BEGIN CTAB
M  V30 COUNTS 50 53 0 0 0
M  V30 BEGIN ATOM
M  V30 1 O -3.042119 -2.762435 0.661182 0
M  V30 2 C -4.061851 -2.646479 1.389092 0
M  V30 3 N -4.435434 -1.348952 1.774533 0
M  V30 4 C -3.783822 -0.130039 1.431744 0
M  V30 5 C -4.133120 1.153616 1.798798 0
M  V30 6 N -3.252444 2.005160 1.260180 0
M  V30 7 N -2.339414 1.366732 0.557826 0
M  V30 8 C -1.245744 1.933276 -0.157532 0
M  V30 9 C -1.469362 2.385684 -1.505400 0
M  V30 10 S 0.228215 3.045308 -2.037880 0
M  V30 11 C 0.951457 2.646655 -0.477609 0
M  V30 12 C 2.389209 2.945618 -0.245674 0
M  V30 13 O 3.001901 3.472414 -1.196941 0
M  V30 14 N 3.072469 2.675951 0.947091 0
M  V30 15 C 4.400229 2.856838 1.374905 0
M  V30 16 C 5.506250 2.142365 0.738338 0 CFG=1
M  V30 17 C 5.422534 0.603923 0.833186 0
M  V30 18 C 6.558267 0.272070 -0.128432 0
M  V30 19 O 6.810896 1.399149 -0.904077 0
M  V30 20 C 5.682618 2.231440 -0.739339 0
M  V30 21 C 0.014549 2.103873 0.286215 0
M  V30 22 C -2.660250 0.062039 0.659947 0
M  V30 23 N -4.739214 -3.817916 1.754462 0
M  V30 24 C -4.106407 -4.991527 1.198510 0
M  V30 25 C -4.430706 -5.528986 -0.040344 0
M  V30 26 C -3.739732 -6.663677 -0.451041 0
M  V30 27 C -2.773637 -7.264874 0.292994 0
M  V30 28 C -2.454063 -6.728273 1.523130 0
M  V30 29 C -3.114764 -5.601888 1.971234 0
M  V30 30 Cl -2.681789 -4.942851 3.546959 0
M  V30 31 H -5.287473 -1.285335 2.379607 0
M  V30 32 H -5.005122 1.379957 2.433310 0
M  V30 33 H -2.481958 2.317961 -2.044256 0
M  V30 34 H 2.384821 2.238640 1.641904 0
M  V30 35 H 4.622817 3.971510 1.310230 0
M  V30 36 H 4.447001 2.688444 2.493718 0
M  V30 37 H 6.481819 2.367836 1.277053 0
M  V30 38 H 5.599450 0.247476 1.848857 0
M  V30 39 H 4.493980 0.226311 0.357822 0
M  V30 40 H 6.366944 -0.640442 -0.700400 0
M  V30 41 H 7.460514 0.117282 0.501416 0
M  V30 42 H 4.868358 1.641343 -1.225614 0
M  V30 43 H 5.870751 3.215958 -1.129231 0
M  V30 44 H 0.313131 1.805627 1.281806 0
M  V30 45 H -2.070215 -0.698032 0.173179 0
M  V30 46 H -5.588831 -3.704247 2.362541 0
M  V30 47 H -5.204918 -5.021153 -0.601758 0
M  V30 48 H -4.012087 -7.071355 -1.433010 0
M  V30 49 H -2.243109 -8.142932 -0.031500 0
M  V30 50 H -1.689075 -7.170503 2.157532 0
M  V30 END ATOM
M  V30 BEGIN BOND
M  V30 1 2 1 2
M  V30 2 1 2 3
M  V30 3 1 3 4
M  V30 4 1 4 5
M  V30 5 2 5 6
M  V30 6 1 6 7
M  V30 7 1 7 8
M  V30 8 2 8 9
M  V30 9 1 9 10
M  V30 10 1 10 11
M  V30 11 1 11 12
M  V30 12 2 12 13
M  V30 13 1 12 14
M  V30 14 1 14 15
M  V30 15 1 15 16
M  V30 16 1 16 17
M  V30 17 1 17 18
M  V30 18 1 18 19
M  V30 19 1 19 20
M  V30 20 2 11 21
M  V30 21 1 7 22
M  V30 22 1 2 23
M  V30 23 1 23 24
M  V30 24 2 24 25
M  V30 25 1 25 26
M  V30 26 2 26 27
M  V30 27 1 27 28
M  V30 28 2 28 29
M  V30 29 1 29 30
M  V30 30 2 22 4
M  V30 31 1 29 24
M  V30 32 1 21 8
M  V30 33 1 20 16
M  V30 34 1 3 31
M  V30 35 1 5 32
M  V30 36 1 9 33
M  V30 37 1 14 34
M  V30 38 1 15 35
M  V30 39 1 15 36
M  V30 40 1 16 37 CFG=1
M  V30 41 1 17 38
M  V30 42 1 17 39
M  V30 43 1 18 40
M  V30 44 1 18 41
M  V30 45 1 20 42
M  V30 46 1 20 43
M  V30 47 1 21 44
M  V30 48 1 22 45
M  V30 49 1 23 46
M  V30 50 1 25 47
M  V30 51 1 26 48
M  V30 52 1 27 49
M  V30 53 1 28 50
M  V30 END BOND
M  V30 END CTAB
M  END
>  <Dataset>  (73) 
ChEMBL_Kinases

>  <Ligand_Instance>  (73) 
nan

>  <PDB_ID>  (73) 
nan

>  <Standardized_SMILES>  (73) 
O=C(Nc1cnn(-c2csc(C(=O)NC[C@H]3CCOC3)c2)c1)Nc1ccccc1Cl

>  <Name>  (73) 
nan

>  <Pocket>  (73) 
nan

>  <ATP_Site>  (73) 
nan

>  <Peripheral>  (73) 
nan

>  <Num_H_Atoms_ProtBoundConf>  (73) 
nan

>  <Num_Resolved_Atoms>  (73) 
nan

>  <Num_Not_Resolved_Atoms>  (73) 
nan

$$$$
CHEMBL1928692
     RDKit          3D

  0  0  0  0  0  0  0  0  0  0999 V3000
M  V30 BEGIN CTAB
M  V30 COUNTS 48 50 0 0 0
M  V30 BEGIN ATOM
M  V30 1 C 1.596157 -5.430059 -0.227415 0
M  V30 2 O 1.301795 -4.089181 0.053613 0
M  V30 3 C 2.235077 -3.201512 0.548874 0
M  V30 4 O 3.101207 -4.099206 0.543905 0
M  V30 5 C 2.268332 -1.826595 0.929062 0
M  V30 6 C 3.487276 -1.392058 1.380268 0
M  V30 7 N 3.664377 -0.123359 1.771134 0
M  V30 8 C 2.683903 0.793490 1.749935 0
M  V30 9 N 2.953447 2.117893 2.181240 0
M  V30 10 C 2.087354 3.243580 2.247851 0
M  V30 11 C 2.575012 4.465202 2.711364 0
M  V30 12 N 1.785774 5.545901 2.786930 0
M  V30 13 C 0.494077 5.501606 2.421020 0
M  V30 14 C -0.395179 6.626182 2.481033 0
M  V30 15 N -1.124963 7.522631 2.534512 0
M  V30 16 C 0.012572 4.296335 1.963606 0
M  V30 17 N 0.801141 3.218582 1.888655 0
M  V30 18 C 1.467059 0.342929 1.294999 0
M  V30 19 C 1.216157 -0.940660 0.879868 0
M  V30 20 N -0.050938 -1.380990 0.415184 0
M  V30 21 C -1.096681 -0.433964 0.382733 0
M  V30 22 C -2.431332 -0.865169 -0.116969 0
M  V30 23 C -2.527656 -1.366236 -1.506267 0
M  V30 24 C -2.287173 -2.815209 -1.738769 0
M  V30 25 N -3.061879 -3.586366 -0.821401 0
M  V30 26 C -2.934897 -3.228342 0.554867 0
M  V30 27 C -3.166436 -1.766870 0.819733 0
M  V30 28 H 2.044909 -5.968957 0.633837 0
M  V30 29 H 0.635044 -5.941949 -0.475219 0
M  V30 30 H 2.247780 -5.487825 -1.122540 0
M  V30 31 H 4.387611 -2.009160 1.460419 0
M  V30 32 H 3.952691 2.299525 2.503991 0
M  V30 33 H 3.596193 4.583551 3.023135 0
M  V30 34 H -1.014578 4.236781 1.666056 0
M  V30 35 H 0.637489 1.000867 1.246071 0
M  V30 36 H -0.198355 -2.351489 0.119143 0
M  V30 37 H -0.710211 0.466854 -0.177600 0
M  V30 38 H -1.246411 -0.050378 1.413836 0
M  V30 39 H -3.044857 0.097260 -0.112644 0
M  V30 40 H -3.609683 -1.208465 -1.819584 0
M  V30 41 H -1.991419 -0.713266 -2.250048 0
M  V30 42 H -1.232124 -3.123052 -1.854492 0
M  V30 43 H -2.732033 -3.035533 -2.763786 0
M  V30 44 H -2.820112 -4.590934 -0.916372 0
M  V30 45 H -2.018135 -3.629311 1.017319 0
M  V30 46 H -3.772564 -3.760199 1.093673 0
M  V30 47 H -2.776197 -1.564543 1.838164 0
M  V30 48 H -4.244599 -1.545544 0.841802 0
M  V30 END ATOM
M  V30 BEGIN BOND
M  V30 1 1 1 2
M  V30 2 1 2 3
M  V30 3 2 3 4
M  V30 4 1 3 5
M  V30 5 2 5 6
M  V30 6 1 6 7
M  V30 7 2 7 8
M  V30 8 1 8 9
M  V30 9 1 9 10
M  V30 10 2 10 11
M  V30 11 1 11 12
M  V30 12 2 12 13
M  V30 13 1 13 14
M  V30 14 3 14 15
M  V30 15 1 13 16
M  V30 16 2 16 17
M  V30 17 1 8 18
M  V30 18 2 18 19
M  V30 19 1 19 20
M  V30 20 1 20 21
M  V30 21 1 21 22
M  V30 22 1 22 23
M  V30 23 1 23 24
M  V30 24 1 24 25
M  V30 25 1 25 26
M  V30 26 1 26 27
M  V30 27 1 19 5
M  V30 28 1 27 22
M  V30 29 1 17 10
M  V30 30 1 1 28
M  V30 31 1 1 29
M  V30 32 1 1 30
M  V30 33 1 6 31
M  V30 34 1 9 32
M  V30 35 1 11 33
M  V30 36 1 16 34
M  V30 37 1 18 35
M  V30 38 1 20 36
M  V30 39 1 21 37
M  V30 40 1 21 38
M  V30 41 1 22 39
M  V30 42 1 23 40
M  V30 43 1 23 41
M  V30 44 1 24 42
M  V30 45 1 24 43
M  V30 46 1 25 44
M  V30 47 1 26 45
M  V30 48 1 26 46
M  V30 49 1 27 47
M  V30 50 1 27 48
M  V30 END BOND
M  V30 END CTAB
M  END
>  <Dataset>  (74) 
ChEMBL_Kinases

>  <Ligand_Instance>  (74) 
nan

>  <PDB_ID>  (74) 
nan

>  <Standardized_SMILES>  (74) 
COC(=O)c1cnc(Nc2cnc(C#N)cn2)cc1NCC1CCNCC1

>  <Name>  (74) 
nan

>  <Pocket>  (74) 
nan

>  <ATP_Site>  (74) 
nan

>  <Peripheral>  (74) 
nan

>  <Num_H_Atoms_ProtBoundConf>  (74) 
nan

>  <Num_Resolved_Atoms>  (74) 
nan

>  <Num_Not_Resolved_Atoms>  (74) 
nan

$$$$
CHEMBL4754824
     RDKit          3D

  0  0  0  0  0  0  0  0  0  0999 V3000
M  V30 BEGIN CTAB
M  V30 COUNTS 57 61 0 0 0
M  V30 BEGIN ATOM
M  V30 1 C -3.878603 -1.113030 1.974824 0
M  V30 2 C -2.677699 -1.703283 1.333050 0
M  V30 3 C -1.457457 -1.131386 1.615720 0
M  V30 4 C -0.374330 -1.717156 1.000619 0
M  V30 5 N 0.900655 -1.147298 1.280813 0
M  V30 6 C 1.175160 -0.030556 2.107952 0
M  V30 7 C 1.357292 1.183081 1.437383 0
M  V30 8 C 1.623876 2.350227 2.111267 0
M  V30 9 N 1.837194 3.615920 1.505824 0
M  V30 10 C 1.977472 3.857769 0.084570 0
M  V30 11 C 3.374660 4.426376 -0.100185 0
M  V30 12 N 3.473346 5.696188 0.592672 0
M  V30 13 C 2.325238 5.971312 1.403827 0
M  V30 14 C 1.928788 4.819239 2.308054 0
M  V30 15 N 1.698223 2.256186 3.447732 0
M  V30 16 C 1.526421 1.099365 4.110153 0
M  V30 17 N 1.267788 -0.040684 3.469026 0
M  V30 18 C -0.460324 -2.799035 0.154080 0
M  V30 19 O 0.627033 -3.210380 -0.324324 0
M  V30 20 N -1.668604 -3.358993 -0.121600 0
M  V30 21 C -2.723056 -2.785764 0.481265 0
M  V30 22 C -3.949321 -3.495114 0.117718 0
M  V30 23 O -5.163160 -3.421306 0.356785 0
M  V30 24 N -3.482437 -4.523782 -0.747558 0
M  V30 25 C -2.024320 -4.474509 -0.979720 0
M  V30 26 C -1.422216 -5.772967 -0.606223 0
M  V30 27 C -0.698242 -6.491720 -1.717786 0
M  V30 28 C 0.146920 -5.560029 -2.558064 0
M  V30 29 C -0.604555 -4.389175 -3.082164 0
M  V30 30 C -1.897935 -4.080113 -2.421627 0
M  V30 31 H -4.719553 -1.827061 2.009493 0
M  V30 32 H -4.173738 -0.260790 1.317318 0
M  V30 33 H -3.625940 -0.699294 2.970876 0
M  V30 34 H -1.369111 -0.286504 2.272051 0
M  V30 35 H 1.820055 -1.467636 0.918045 0
M  V30 36 H 1.292365 1.236047 0.365651 0
M  V30 37 H 1.228501 4.590591 -0.306142 0
M  V30 38 H 1.868869 2.964464 -0.544552 0
M  V30 39 H 4.073489 3.731380 0.424907 0
M  V30 40 H 3.687765 4.534016 -1.136149 0
M  V30 41 H 4.329240 5.761916 1.186987 0
M  V30 42 H 2.629195 6.812244 2.089292 0
M  V30 43 H 1.441019 6.284591 0.846772 0
M  V30 44 H 0.944155 5.067166 2.757376 0
M  V30 45 H 2.676587 4.743401 3.122392 0
M  V30 46 H 1.580028 0.985505 5.179281 0
M  V30 47 H -3.980794 -5.305959 -1.247761 0
M  V30 48 H -2.216310 -6.465248 -0.262296 0
M  V30 49 H -0.750028 -5.604215 0.260758 0
M  V30 50 H -0.001002 -7.253740 -1.316836 0
M  V30 51 H -1.384329 -7.019131 -2.410653 0
M  V30 52 H 1.104815 -5.295925 -2.022774 0
M  V30 53 H 0.502755 -6.173800 -3.414869 0
M  V30 54 H -0.814103 -4.568121 -4.175515 0
M  V30 55 H 0.054664 -3.479268 -2.975519 0
M  V30 56 H -2.141351 -2.986857 -2.467836 0
M  V30 57 H -2.753037 -4.560906 -2.983289 0
M  V30 END ATOM
M  V30 BEGIN BOND
M  V30 1 1 1 2
M  V30 2 1 2 3
M  V30 3 2 3 4
M  V30 4 1 4 5
M  V30 5 1 5 6
M  V30 6 2 6 7
M  V30 7 1 7 8
M  V30 8 1 8 9
M  V30 9 1 9 10
M  V30 10 1 10 11
M  V30 11 1 11 12
M  V30 12 1 12 13
M  V30 13 1 13 14
M  V30 14 2 8 15
M  V30 15 1 15 16
M  V30 16 2 16 17
M  V30 17 1 4 18
M  V30 18 2 18 19
M  V30 19 1 18 20
M  V30 20 1 20 21
M  V30 21 1 21 22
M  V30 22 2 22 23
M  V30 23 1 22 24
M  V30 24 1 24 25
M  V30 25 1 25 26
M  V30 26 1 26 27
M  V30 27 1 27 28
M  V30 28 1 28 29
M  V30 29 1 29 30
M  V30 30 2 21 2
M  V30 31 1 30 25
M  V30 32 1 17 6
M  V30 33 1 25 20
M  V30 34 1 14 9
M  V30 35 1 1 31
M  V30 36 1 1 32
M  V30 37 1 1 33
M  V30 38 1 3 34
M  V30 39 1 5 35
M  V30 40 1 7 36
M  V30 41 1 10 37
M  V30 42 1 10 38
M  V30 43 1 11 39
M  V30 44 1 11 40
M  V30 45 1 12 41
M  V30 46 1 13 42
M  V30 47 1 13 43
M  V30 48 1 14 44
M  V30 49 1 14 45
M  V30 50 1 16 46
M  V30 51 1 24 47
M  V30 52 1 26 48
M  V30 53 1 26 49
M  V30 54 1 27 50
M  V30 55 1 27 51
M  V30 56 1 28 52
M  V30 57 1 28 53
M  V30 58 1 29 54
M  V30 59 1 29 55
M  V30 60 1 30 56
M  V30 61 1 30 57
M  V30 END BOND
M  V30 END CTAB
M  END
>  <Dataset>  (75) 
ChEMBL_Kinases

>  <Ligand_Instance>  (75) 
nan

>  <PDB_ID>  (75) 
nan

>  <Standardized_SMILES>  (75) 
Cc1cc(Nc2cc(N3CCNCC3)ncn2)c(=O)n2c1C(=O)NC21CCCCC1

>  <Name>  (75) 
nan

>  <Pocket>  (75) 
nan

>  <ATP_Site>  (75) 
nan

>  <Peripheral>  (75) 
nan

>  <Num_H_Atoms_ProtBoundConf>  (75) 
nan

>  <Num_Resolved_Atoms>  (75) 
nan

>  <Num_Not_Resolved_Atoms>  (75) 
nan

$$$$
CHEMBL1928689
     RDKit          3D

  0  0  0  0  0  0  0  0  0  0999 V3000
M  V30 BEGIN CTAB
M  V30 COUNTS 41 43 0 0 0
M  V30 BEGIN ATOM
M  V30 1 N 0.622081 -5.249940 6.002730 0
M  V30 2 C 0.223890 -4.939697 4.980095 0
M  V30 3 C -0.259287 -4.535480 3.698668 0
M  V30 4 C 0.258160 -3.483706 2.979975 0
M  V30 5 N -0.267251 -3.189177 1.798343 0
M  V30 6 C -1.267153 -3.800537 1.191886 0
M  V30 7 N -1.825986 -3.500807 -0.046346 0
M  V30 8 C -1.458670 -2.475103 -0.934117 0
M  V30 9 C -0.453730 -1.551255 -0.753506 0
M  V30 10 C -0.125685 -0.557161 -1.648655 0
M  V30 11 N 0.905083 0.398322 -1.439000 0
M  V30 12 C 1.714376 0.606565 -0.257726 0
M  V30 13 C 0.925218 1.167394 0.904982 0
M  V30 14 C 0.318169 2.524659 0.524373 0
M  V30 15 C 1.060036 3.672003 1.175595 0
M  V30 16 N 2.483499 3.511375 1.191473 0
M  V30 17 C 2.944864 2.303583 1.802129 0
M  V30 18 C 1.784548 1.415818 2.112504 0
M  V30 19 N -0.849988 -0.501126 -2.775125 0
M  V30 20 C -1.842626 -1.374513 -3.008437 0
M  V30 21 N -2.125094 -2.325759 -2.105400 0
M  V30 22 C -1.763607 -4.857545 1.947009 0
M  V30 23 N -1.287936 -5.218393 3.149987 0
M  V30 24 H 1.075211 -2.948672 3.425953 0
M  V30 25 H -2.633395 -4.123022 -0.369654 0
M  V30 26 H 0.120773 -1.613203 0.135709 0
M  V30 27 H 1.118257 1.045488 -2.240328 0
M  V30 28 H 2.586830 1.206030 -0.503106 0
M  V30 29 H 2.072913 -0.418612 0.034259 0
M  V30 30 H 0.149063 0.461397 1.201525 0
M  V30 31 H 0.336979 2.626731 -0.580173 0
M  V30 32 H -0.707150 2.521990 0.930234 0
M  V30 33 H 0.654679 3.906061 2.183458 0
M  V30 34 H 0.861450 4.592255 0.553922 0
M  V30 35 H 2.869148 3.645093 0.241593 0
M  V30 36 H 3.668476 1.789970 1.118622 0
M  V30 37 H 3.508346 2.528136 2.725521 0
M  V30 38 H 2.069452 0.502193 2.669340 0
M  V30 39 H 1.132159 1.984554 2.839270 0
M  V30 40 H -2.444168 -1.356273 -3.907353 0
M  V30 41 H -2.599101 -5.485686 1.604852 0
M  V30 END ATOM
M  V30 BEGIN BOND
M  V30 1 3 1 2
M  V30 2 1 2 3
M  V30 3 2 3 4
M  V30 4 1 4 5
M  V30 5 2 5 6
M  V30 6 1 6 7
M  V30 7 1 7 8
M  V30 8 2 8 9
M  V30 9 1 9 10
M  V30 10 1 10 11
M  V30 11 1 11 12
M  V30 12 1 12 13
M  V30 13 1 13 14
M  V30 14 1 14 15
M  V30 15 1 15 16
M  V30 16 1 16 17
M  V30 17 1 17 18
M  V30 18 2 10 19
M  V30 19 1 19 20
M  V30 20 2 20 21
M  V30 21 1 6 22
M  V30 22 2 22 23
M  V30 23 1 23 3
M  V30 24 1 21 8
M  V30 25 1 18 13
M  V30 26 1 4 24
M  V30 27 1 7 25
M  V30 28 1 9 26
M  V30 29 1 11 27
M  V30 30 1 12 28
M  V30 31 1 12 29
M  V30 32 1 13 30
M  V30 33 1 14 31
M  V30 34 1 14 32
M  V30 35 1 15 33
M  V30 36 1 15 34
M  V30 37 1 16 35
M  V30 38 1 17 36
M  V30 39 1 17 37
M  V30 40 1 18 38
M  V30 41 1 18 39
M  V30 42 1 20 40
M  V30 43 1 22 41
M  V30 END BOND
M  V30 END CTAB
M  END
>  <Dataset>  (76) 
ChEMBL_Kinases

>  <Ligand_Instance>  (76) 
nan

>  <PDB_ID>  (76) 
nan

>  <Standardized_SMILES>  (76) 
N#Cc1cnc(Nc2cc(NCC3CCNCC3)ncn2)cn1

>  <Name>  (76) 
nan

>  <Pocket>  (76) 
nan

>  <ATP_Site>  (76) 
nan

>  <Peripheral>  (76) 
nan

>  <Num_H_Atoms_ProtBoundConf>  (76) 
nan

>  <Num_Resolved_Atoms>  (76) 
nan

>  <Num_Not_Resolved_Atoms>  (76) 
nan

$$$$
CHEMBL4754904
     RDKit          3D

  0  0  0  0  0  0  0  0  0  0999 V3000
M  V30 BEGIN CTAB
M  V30 COUNTS 34 36 0 0 0
M  V30 BEGIN ATOM
M  V30 1 O -1.085342 -0.044933 0.539520 0
M  V30 2 C -0.623772 0.518946 1.567108 0
M  V30 3 C 0.547634 -0.150668 2.174651 0
M  V30 4 C 0.965303 -1.361428 1.465750 0
M  V30 5 C 0.431043 -2.607417 1.815663 0
M  V30 6 C 0.857063 -3.737088 1.113583 0
M  V30 7 C 1.785054 -3.605771 0.100729 0
M  V30 8 C 2.226024 -4.723011 -0.615606 0
M  V30 9 C 3.154450 -4.552622 -1.621152 0
M  V30 10 C 3.684644 -3.335802 -1.972329 0
M  V30 11 C 3.245694 -2.221608 -1.258866 0
M  V30 12 C 2.319191 -2.373181 -0.251718 0
M  V30 13 C 1.885362 -1.266355 0.454553 0
M  V30 14 N -1.093786 1.705679 2.197539 0
M  V30 15 C -2.236691 2.308462 1.556630 0
M  V30 16 C -2.080005 3.255605 0.558186 0
M  V30 17 C -3.233148 3.777875 0.002109 0
M  V30 18 Cl -3.072032 4.981451 -1.266832 0
M  V30 19 C -4.461630 3.342285 0.456144 0
M  V30 20 C -4.587081 2.385366 1.465040 0
M  V30 21 N -3.446420 1.872786 2.010839 0
M  V30 22 H 1.379999 0.555991 2.378124 0
M  V30 23 H 0.214973 -0.473040 3.203759 0
M  V30 24 H -0.303634 -2.711504 2.617504 0
M  V30 25 H 0.450502 -4.725302 1.371886 0
M  V30 26 H 1.813947 -5.691903 -0.347277 0
M  V30 27 H 3.508045 -5.404572 -2.186789 0
M  V30 28 H 4.411513 -3.257867 -2.770620 0
M  V30 29 H 3.638668 -1.243581 -1.503985 0
M  V30 30 H 2.295425 -0.295349 0.188898 0
M  V30 31 H -0.616938 2.068263 3.049692 0
M  V30 32 H -1.073652 3.528445 0.274855 0
M  V30 33 H -5.305091 3.820395 -0.051965 0
M  V30 34 H -5.596919 2.117965 1.742625 0
M  V30 END ATOM
M  V30 BEGIN BOND
M  V30 1 2 1 2
M  V30 2 1 2 3
M  V30 3 1 3 4
M  V30 4 2 4 5
M  V30 5 1 5 6
M  V30 6 2 6 7
M  V30 7 1 7 8
M  V30 8 2 8 9
M  V30 9 1 9 10
M  V30 10 2 10 11
M  V30 11 1 11 12
M  V30 12 2 12 13
M  V30 13 1 2 14
M  V30 14 1 14 15
M  V30 15 2 15 16
M  V30 16 1 16 17
M  V30 17 1 17 18
M  V30 18 2 17 19
M  V30 19 1 19 20
M  V30 20 2 20 21
M  V30 21 1 13 4
M  V30 22 1 21 15
M  V30 23 1 12 7
M  V30 24 1 3 22
M  V30 25 1 3 23
M  V30 26 1 5 24
M  V30 27 1 6 25
M  V30 28 1 8 26
M  V30 29 1 9 27
M  V30 30 1 10 28
M  V30 31 1 11 29
M  V30 32 1 13 30
M  V30 33 1 14 31
M  V30 34 1 16 32
M  V30 35 1 19 33
M  V30 36 1 20 34
M  V30 END BOND
M  V30 END CTAB
M  END
>  <Dataset>  (77) 
ChEMBL_Kinases

>  <Ligand_Instance>  (77) 
nan

>  <PDB_ID>  (77) 
nan

>  <Standardized_SMILES>  (77) 
O=C(Cc1ccc2ccccc2c1)Nc1cc(Cl)ccn1

>  <Name>  (77) 
nan

>  <Pocket>  (77) 
nan

>  <ATP_Site>  (77) 
nan

>  <Peripheral>  (77) 
nan

>  <Num_H_Atoms_ProtBoundConf>  (77) 
nan

>  <Num_Resolved_Atoms>  (77) 
nan

>  <Num_Not_Resolved_Atoms>  (77) 
nan

$$$$
CHEMBL5094006
     RDKit          3D

  0  0  0  0  0  0  0  0  0  0999 V3000
M  V30 BEGIN CTAB
M  V30 COUNTS 85 90 0 0 0
M  V30 BEGIN ATOM
M  V30 1 C -2.981227 -6.682168 6.906887 0
M  V30 2 C -2.233191 -6.235959 5.942285 0
M  V30 3 C -1.345933 -5.580289 4.993915 0
M  V30 4 O -1.132090 -5.953158 3.831693 0
M  V30 5 N -0.600544 -4.398263 5.333640 0
M  V30 6 C 0.182714 -3.993728 4.202903 0
M  V30 7 C 1.255994 -4.834327 3.972097 0
M  V30 8 C 2.139413 -4.585035 2.954815 0
M  V30 9 N 3.247701 -5.369205 2.585980 0
M  V30 10 C 3.640116 -6.697801 3.066825 0
M  V30 11 C 3.573273 -7.674405 1.901169 0
M  V30 12 N 3.192098 -7.006668 0.722669 0
M  V30 13 C 2.355233 -7.628595 -0.211847 0
M  V30 14 C 3.970593 -5.880673 0.347103 0
M  V30 15 C 4.280337 -5.029509 1.605284 0
M  V30 16 C 1.917008 -3.474778 2.182204 0
M  V30 17 C 0.854013 -2.634305 2.404368 0
M  V30 18 C -0.070005 -2.853355 3.431098 0
M  V30 19 N -1.224948 -2.039173 3.758290 0
M  V30 20 C -1.153083 -0.878749 2.928500 0
M  V30 21 N -0.427701 0.045568 3.622735 0
M  V30 22 C -0.117925 1.266512 3.088550 0
M  V30 23 C -0.578856 1.522562 1.798266 0
M  V30 24 C -1.321992 0.549109 1.122972 0
M  V30 25 N -1.623772 -0.668982 1.672862 0
M  V30 26 N -1.750916 0.922518 -0.156044 0
M  V30 27 C -2.384074 0.134060 -1.035512 0
M  V30 28 C -2.552934 0.828706 -2.235668 0
M  V30 29 C -1.966926 2.059775 -1.956442 0
M  V30 30 C -1.816847 3.178021 -2.868315 0
M  V30 31 O -0.667233 3.760569 -2.918621 0
M  V30 32 N -2.623200 3.896307 -3.809435 0
M  V30 33 C -1.619949 4.853704 -4.244243 0
M  V30 34 C -0.800677 4.446565 -5.271075 0
M  V30 35 C -0.973868 3.108854 -5.895592 0
M  V30 36 C 0.335810 2.654893 -6.555141 0
M  V30 37 C 0.177648 5.386510 -5.627506 0
M  V30 38 C 0.251706 6.590508 -4.961384 0
M  V30 39 C -0.611768 6.946109 -3.925061 0
M  V30 40 C -1.589420 6.038517 -3.552980 0
M  V30 41 C -2.546519 6.465399 -2.495712 0
M  V30 42 C -3.734851 7.044596 -3.278396 0
M  V30 43 C -1.475927 2.102715 -0.657632 0
M  V30 44 C -0.828831 3.214728 0.061405 0
M  V30 45 C -0.123468 2.817245 1.306640 0
M  V30 46 H -3.278178 -6.427196 7.944704 0
M  V30 47 H -2.536529 -5.779332 7.347968 0
M  V30 48 H -2.684926 -7.154427 5.509130 0
M  V30 49 H -0.693247 -3.986019 6.300870 0
M  V30 50 H 1.471664 -5.735330 4.569653 0
M  V30 51 H 4.654946 -6.664071 3.523249 0
M  V30 52 H 2.867802 -7.011499 3.797680 0
M  V30 53 H 2.816610 -8.454237 2.151430 0
M  V30 54 H 4.559407 -8.201948 1.793017 0
M  V30 55 H 2.767927 -7.659898 -1.251922 0
M  V30 56 H 1.377101 -7.065364 -0.293670 0
M  V30 57 H 2.040613 -8.672169 0.090286 0
M  V30 58 H 4.925994 -6.134608 -0.127627 0
M  V30 59 H 3.368993 -5.204939 -0.316259 0
M  V30 60 H 5.302412 -5.219218 1.947688 0
M  V30 61 H 4.208189 -3.981521 1.300220 0
M  V30 62 H 2.479174 -3.076200 1.322311 0
M  V30 63 H 0.643532 -1.739704 1.814155 0
M  V30 64 H -1.861579 -2.425534 4.494523 0
M  V30 65 H 0.463678 1.979939 3.679532 0
M  V30 66 H -2.748045 -0.889591 -0.941711 0
M  V30 67 H -2.981676 0.624315 -3.187653 0
M  V30 68 H -3.595636 3.469452 -3.833704 0
M  V30 69 H -1.712906 3.204762 -6.703245 0
M  V30 70 H -1.307603 2.351440 -5.157535 0
M  V30 71 H 0.530452 3.345139 -7.396161 0
M  V30 72 H 0.149832 1.615370 -6.911188 0
M  V30 73 H 1.089329 2.705579 -5.741444 0
M  V30 74 H 0.839068 5.095502 -6.430427 0
M  V30 75 H 1.045573 7.208635 -5.340411 0
M  V30 76 H -0.431140 7.922094 -3.509167 0
M  V30 77 H -2.156101 7.273904 -1.871242 0
M  V30 78 H -2.984052 5.602279 -1.932748 0
M  V30 79 H -3.341864 7.661387 -4.134418 0
M  V30 80 H -4.508947 6.338599 -3.532990 0
M  V30 81 H -4.180200 7.828117 -2.594368 0
M  V30 82 H -0.135621 3.706343 -0.670363 0
M  V30 83 H -1.610039 3.991174 0.329831 0
M  V30 84 H 0.981863 2.768637 1.055448 0
M  V30 85 H -0.274452 3.601859 2.080754 0
M  V30 END ATOM
M  V30 BEGIN BOND
M  V30 1 2 1 2
M  V30 2 1 2 3
M  V30 3 2 3 4
M  V30 4 1 3 5
M  V30 5 1 5 6
M  V30 6 2 6 7
M  V30 7 1 7 8
M  V30 8 1 8 9
M  V30 9 1 9 10
M  V30 10 1 10 11
M  V30 11 1 11 12
M  V30 12 1 12 13
M  V30 13 1 12 14
M  V30 14 1 14 15
M  V30 15 2 8 16
M  V30 16 1 16 17
M  V30 17 2 17 18
M  V30 18 1 18 19
M  V30 19 1 19 20
M  V30 20 2 20 21
M  V30 21 1 21 22
M  V30 22 2 22 23
M  V30 23 1 23 24
M  V30 24 2 24 25
M  V30 25 1 24 26
M  V30 26 1 26 27
M  V30 27 2 27 28
M  V30 28 1 28 29
M  V30 29 1 29 30
M  V30 30 2 30 31
M  V30 31 1 30 32
M  V30 32 1 32 33
M  V30 33 2 33 34
M  V30 34 1 34 35
M  V30 35 1 35 36
M  V30 36 1 34 37
M  V30 37 2 37 38
M  V30 38 1 38 39
M  V30 39 2 39 40
M  V30 40 1 40 41
M  V30 41 1 41 42
M  V30 42 2 29 43
M  V30 43 1 43 44
M  V30 44 1 44 45
M  V30 45 1 18 6
M  V30 46 1 25 20
M  V30 47 1 43 26
M  V30 48 1 15 9
M  V30 49 1 45 23
M  V30 50 1 40 33
M  V30 51 1 1 46
M  V30 52 1 1 47
M  V30 53 1 2 48
M  V30 54 1 5 49
M  V30 55 1 7 50
M  V30 56 1 10 51
M  V30 57 1 10 52
M  V30 58 1 11 53
M  V30 59 1 11 54
M  V30 60 1 13 55
M  V30 61 1 13 56
M  V30 62 1 13 57
M  V30 63 1 14 58
M  V30 64 1 14 59
M  V30 65 1 15 60
M  V30 66 1 15 61
M  V30 67 1 16 62
M  V30 68 1 17 63
M  V30 69 1 19 64
M  V30 70 1 22 65
M  V30 71 1 27 66
M  V30 72 1 28 67
M  V30 73 1 32 68
M  V30 74 1 35 69
M  V30 75 1 35 70
M  V30 76 1 36 71
M  V30 77 1 36 72
M  V30 78 1 36 73
M  V30 79 1 37 74
M  V30 80 1 38 75
M  V30 81 1 39 76
M  V30 82 1 41 77
M  V30 83 1 41 78
M  V30 84 1 42 79
M  V30 85 1 42 80
M  V30 86 1 42 81
M  V30 87 1 44 82
M  V30 88 1 44 83
M  V30 89 1 45 84
M  V30 90 1 45 85
M  V30 END BOND
M  V30 END CTAB
M  END
>  <Dataset>  (78) 
ChEMBL_Kinases

>  <Ligand_Instance>  (78) 
nan

>  <PDB_ID>  (78) 
nan

>  <Standardized_SMILES>  (78) 
C=CC(=O)Nc1cc(N2CCN(C)CC2)ccc1Nc1ncc2c(n1)-n1ccc(C(=O)Nc3c(CC)cccc3CC)c1CC2

>  <Name>  (78) 
nan

>  <Pocket>  (78) 
nan

>  <ATP_Site>  (78) 
nan

>  <Peripheral>  (78) 
nan

>  <Num_H_Atoms_ProtBoundConf>  (78) 
nan

>  <Num_Resolved_Atoms>  (78) 
nan

>  <Num_Not_Resolved_Atoms>  (78) 
nan

$$$$
CHEMBL1928682
     RDKit          3D

  0  0  0  0  0  0  0  0  0  0999 V3000
M  V30 BEGIN CTAB
M  V30 COUNTS 39 42 0 0 0
M  V30 BEGIN ATOM
M  V30 1 N -1.083623 -5.121468 2.321685 0
M  V30 2 C 0.289123 -4.604843 2.248557 0
M  V30 3 C 0.203006 -3.219531 1.603243 0
M  V30 4 C 1.578135 -2.652360 1.507207 0
M  V30 5 C 1.624627 -1.161840 1.433005 0
M  V30 6 N 0.298605 -0.657317 1.031635 0
M  V30 7 C -0.304399 -0.023585 -0.091582 0
M  V30 8 N -1.156200 -0.892985 -0.678248 0
M  V30 9 C -1.793984 -0.435171 -1.796347 0
M  V30 10 N -1.612211 0.803948 -2.315955 0
M  V30 11 C -0.760285 1.672988 -1.727780 0
M  V30 12 N -0.357257 2.927496 -1.957115 0
M  V30 13 C 0.525654 3.284683 -1.007654 0
M  V30 14 C 1.213532 4.459542 -0.803820 0
M  V30 15 N 2.056320 4.565011 0.254719 0
M  V30 16 C 2.220929 3.514977 1.110885 0
M  V30 17 C 1.534438 2.338685 0.909478 0
M  V30 18 C 0.679973 2.216079 -0.155341 0
M  V30 19 C -0.115082 1.216282 -0.600197 0
M  V30 20 C -0.628046 -0.907641 2.148799 0
M  V30 21 C -0.738009 -2.399753 2.425423 0
M  V30 22 H -1.487586 -4.772363 3.235111 0
M  V30 23 H -1.631799 -4.703730 1.537271 0
M  V30 24 H 0.684702 -4.576846 3.266592 0
M  V30 25 H 0.831905 -5.326621 1.589947 0
M  V30 26 H -0.291694 -3.398321 0.622837 0
M  V30 27 H 2.054972 -3.080379 0.580906 0
M  V30 28 H 2.177895 -3.032926 2.355598 0
M  V30 29 H 1.883421 -0.652424 2.380603 0
M  V30 30 H 2.364113 -0.828781 0.657175 0
M  V30 31 H -2.519842 -0.986696 -2.412381 0
M  V30 32 H -0.695991 3.521878 -2.765501 0
M  V30 33 H 1.075221 5.284303 -1.488083 0
M  V30 34 H 2.921365 3.748140 1.902841 0
M  V30 35 H 1.759772 1.625816 1.654290 0
M  V30 36 H -1.638188 -0.544220 1.966394 0
M  V30 37 H -0.181877 -0.440752 3.076003 0
M  V30 38 H -1.776651 -2.782162 2.204455 0
M  V30 39 H -0.618017 -2.617917 3.521458 0
M  V30 END ATOM
M  V30 BEGIN BOND
M  V30 1 1 1 2
M  V30 2 1 2 3
M  V30 3 1 3 4
M  V30 4 1 4 5
M  V30 5 1 5 6
M  V30 6 1 6 7
M  V30 7 2 7 8
M  V30 8 1 8 9
M  V30 9 2 9 10
M  V30 10 1 10 11
M  V30 11 1 11 12
M  V30 12 1 12 13
M  V30 13 2 13 14
M  V30 14 1 14 15
M  V30 15 2 15 16
M  V30 16 1 16 17
M  V30 17 2 17 18
M  V30 18 1 18 19
M  V30 19 1 6 20
M  V30 20 1 20 21
M  V30 21 1 21 3
M  V30 22 1 19 7
M  V30 23 2 19 11
M  V30 24 1 18 13
M  V30 25 1 1 22
M  V30 26 1 1 23
M  V30 27 1 2 24
M  V30 28 1 2 25
M  V30 29 1 3 26
M  V30 30 1 4 27
M  V30 31 1 4 28
M  V30 32 1 5 29
M  V30 33 1 5 30
M  V30 34 1 9 31
M  V30 35 1 12 32
M  V30 36 1 14 33
M  V30 37 1 16 34
M  V30 38 1 17 35
M  V30 39 1 20 36
M  V30 40 1 20 37
M  V30 41 1 21 38
M  V30 42 1 21 39
M  V30 END BOND
M  V30 END CTAB
M  END
>  <Dataset>  (79) 
ChEMBL_Kinases

>  <Ligand_Instance>  (79) 
nan

>  <PDB_ID>  (79) 
nan

>  <Standardized_SMILES>  (79) 
NCC1CCN(c2ncnc3[nH]c4cnccc4c23)CC1

>  <Name>  (79) 
nan

>  <Pocket>  (79) 
nan

>  <ATP_Site>  (79) 
nan

>  <Peripheral>  (79) 
nan

>  <Num_H_Atoms_ProtBoundConf>  (79) 
nan

>  <Num_Resolved_Atoms>  (79) 
nan

>  <Num_Not_Resolved_Atoms>  (79) 
nan

$$$$
CHEMBL1928681
     RDKit          3D

  0  0  0  0  0  0  0  0  0  0999 V3000
M  V30 BEGIN CTAB
M  V30 COUNTS 36 39 0 0 0
M  V30 BEGIN ATOM
M  V30 1 N -2.943453 -3.188842 1.927261 0
M  V30 2 C -1.892137 -2.325536 1.380216 0
M  V30 3 C -0.648240 -2.623083 2.149534 0
M  V30 4 C 0.590800 -2.051571 1.544912 0
M  V30 5 N 0.381811 -1.626553 0.149977 0
M  V30 6 C 1.326668 -0.833284 -0.543509 0
M  V30 7 N 2.019812 -1.538432 -1.468601 0
M  V30 8 C 3.005711 -0.962917 -2.218412 0
M  V30 9 N 3.310153 0.339691 -2.046868 0
M  V30 10 C 2.647333 1.081566 -1.139297 0
M  V30 11 N 2.708649 2.367052 -0.748737 0
M  V30 12 C 1.790932 2.584171 0.209734 0
M  V30 13 C 1.404453 3.692293 0.959620 0
M  V30 14 N 0.424275 3.663246 1.882716 0
M  V30 15 C -0.215292 2.493738 2.088172 0
M  V30 16 C 0.108237 1.356091 1.388374 0
M  V30 17 C 1.108811 1.412949 0.456622 0
M  V30 18 C 1.655866 0.488758 -0.390822 0
M  V30 19 C -0.705606 -1.868281 -0.777258 0
M  V30 20 C -1.774381 -2.681001 -0.084220 0
M  V30 21 H -2.826879 -3.308088 2.955155 0
M  V30 22 H -3.881749 -2.768803 1.729272 0
M  V30 23 H -2.207484 -1.295938 1.576973 0
M  V30 24 H -0.765434 -2.147583 3.160077 0
M  V30 25 H -0.544758 -3.723204 2.374044 0
M  V30 26 H 1.337206 -2.888733 1.453235 0
M  V30 27 H 1.066870 -1.269759 2.132723 0
M  V30 28 H 3.538282 -1.575361 -2.954308 0
M  V30 29 H 3.368072 3.094290 -1.128580 0
M  V30 30 H 1.933839 4.630079 0.778917 0
M  V30 31 H -0.990960 2.567911 2.851650 0
M  V30 32 H -0.483805 0.529208 1.654430 0
M  V30 33 H -0.286615 -2.473722 -1.611506 0
M  V30 34 H -1.108125 -0.941326 -1.228485 0
M  V30 35 H -1.474092 -3.747650 -0.128486 0
M  V30 36 H -2.765104 -2.588245 -0.539540 0
M  V30 END ATOM
M  V30 BEGIN BOND
M  V30 1 1 1 2
M  V30 2 1 2 3
M  V30 3 1 3 4
M  V30 4 1 4 5
M  V30 5 1 5 6
M  V30 6 2 6 7
M  V30 7 1 7 8
M  V30 8 2 8 9
M  V30 9 1 9 10
M  V30 10 1 10 11
M  V30 11 1 11 12
M  V30 12 2 12 13
M  V30 13 1 13 14
M  V30 14 2 14 15
M  V30 15 1 15 16
M  V30 16 2 16 17
M  V30 17 1 17 18
M  V30 18 1 5 19
M  V30 19 1 19 20
M  V30 20 1 20 2
M  V30 21 1 18 6
M  V30 22 2 18 10
M  V30 23 1 17 12
M  V30 24 1 1 21
M  V30 25 1 1 22
M  V30 26 1 2 23
M  V30 27 1 3 24
M  V30 28 1 3 25
M  V30 29 1 4 26
M  V30 30 1 4 27
M  V30 31 1 8 28
M  V30 32 1 11 29
M  V30 33 1 13 30
M  V30 34 1 15 31
M  V30 35 1 16 32
M  V30 36 1 19 33
M  V30 37 1 19 34
M  V30 38 1 20 35
M  V30 39 1 20 36
M  V30 END BOND
M  V30 END CTAB
M  END
>  <Dataset>  (80) 
ChEMBL_Kinases

>  <Ligand_Instance>  (80) 
nan

>  <PDB_ID>  (80) 
nan

>  <Standardized_SMILES>  (80) 
NC1CCN(c2ncnc3[nH]c4cnccc4c23)CC1

>  <Name>  (80) 
nan

>  <Pocket>  (80) 
nan

>  <ATP_Site>  (80) 
nan

>  <Peripheral>  (80) 
nan

>  <Num_H_Atoms_ProtBoundConf>  (80) 
nan

>  <Num_Resolved_Atoms>  (80) 
nan

>  <Num_Not_Resolved_Atoms>  (80) 
nan

$$$$
CHEMBL1928680
     RDKit          3D

  0  0  0  0  0  0  0  0  0  0999 V3000
M  V30 BEGIN CTAB
M  V30 COUNTS 32 34 0 0 0
M  V30 BEGIN ATOM
M  V30 1 N -3.257877 -2.375514 2.843957 0
M  V30 2 C -2.061613 -2.900295 3.438095 0
M  V30 3 C -0.814208 -2.208773 2.979915 0
M  V30 4 C -0.629078 -2.330867 1.463764 0
M  V30 5 N 0.553798 -1.669448 1.069033 0
M  V30 6 C 1.738974 -1.007307 0.673974 0
M  V30 7 N 2.993530 -1.301067 1.021297 0
M  V30 8 C 4.114222 -0.698335 0.658314 0
M  V30 9 N 3.944320 0.330981 -0.158556 0
M  V30 10 C 2.745053 0.727542 -0.580424 0
M  V30 11 N 2.493178 1.759178 -1.406166 0
M  V30 12 C 1.156451 1.823949 -1.582152 0
M  V30 13 C 0.305653 2.643948 -2.297986 0
M  V30 14 N -1.043437 2.452634 -2.274308 0
M  V30 15 C -1.571459 1.434450 -1.532187 0
M  V30 16 C -0.715443 0.628748 -0.826893 0
M  V30 17 C 0.646196 0.794168 -0.829414 0
M  V30 18 C 1.609165 0.067070 -0.173914 0
M  V30 19 H -3.846832 -3.225725 2.596366 0
M  V30 20 H -3.838783 -1.904956 3.593727 0
M  V30 21 H -2.078606 -2.861558 4.544526 0
M  V30 22 H -1.906581 -3.994672 3.205543 0
M  V30 23 H 0.088604 -2.642642 3.454569 0
M  V30 24 H -0.824518 -1.133305 3.241196 0
M  V30 25 H -0.688165 -3.430506 1.202285 0
M  V30 26 H -1.551987 -1.936912 0.962129 0
M  V30 27 H 1.024582 -2.410642 1.675364 0
M  V30 28 H 5.078906 -1.065354 1.035331 0
M  V30 29 H 3.165510 2.418047 -1.855656 0
M  V30 30 H 0.698508 3.454602 -2.891251 0
M  V30 31 H -2.645677 1.344837 -1.561936 0
M  V30 32 H -1.184500 -0.126574 -0.281168 0
M  V30 END ATOM
M  V30 BEGIN BOND
M  V30 1 1 1 2
M  V30 2 1 2 3
M  V30 3 1 3 4
M  V30 4 1 4 5
M  V30 5 1 5 6
M  V30 6 2 6 7
M  V30 7 1 7 8
M  V30 8 2 8 9
M  V30 9 1 9 10
M  V30 10 1 10 11
M  V30 11 1 11 12
M  V30 12 2 12 13
M  V30 13 1 13 14
M  V30 14 2 14 15
M  V30 15 1 15 16
M  V30 16 2 16 17
M  V30 17 1 17 18
M  V30 18 1 18 6
M  V30 19 2 18 10
M  V30 20 1 17 12
M  V30 21 1 1 19
M  V30 22 1 1 20
M  V30 23 1 2 21
M  V30 24 1 2 22
M  V30 25 1 3 23
M  V30 26 1 3 24
M  V30 27 1 4 25
M  V30 28 1 4 26
M  V30 29 1 5 27
M  V30 30 1 8 28
M  V30 31 1 11 29
M  V30 32 1 13 30
M  V30 33 1 15 31
M  V30 34 1 16 32
M  V30 END BOND
M  V30 END CTAB
M  END
>  <Dataset>  (81) 
ChEMBL_Kinases

>  <Ligand_Instance>  (81) 
nan

>  <PDB_ID>  (81) 
nan

>  <Standardized_SMILES>  (81) 
NCCCNc1ncnc2[nH]c3cnccc3c12

>  <Name>  (81) 
nan

>  <Pocket>  (81) 
nan

>  <ATP_Site>  (81) 
nan

>  <Peripheral>  (81) 
nan

>  <Num_H_Atoms_ProtBoundConf>  (81) 
nan

>  <Num_Resolved_Atoms>  (81) 
nan

>  <Num_Not_Resolved_Atoms>  (81) 
nan

$$$$
CHEMBL1928679
     RDKit          3D

  0  0  0  0  0  0  0  0  0  0999 V3000
M  V30 BEGIN CTAB
M  V30 COUNTS 29 31 0 0 0
M  V30 BEGIN ATOM
M  V30 1 N -1.912281 -3.286375 1.610059 0
M  V30 2 C -1.318657 -3.049260 2.869897 0
M  V30 3 C 0.109517 -2.643845 2.846075 0
M  V30 4 N 0.434834 -1.435268 2.145153 0
M  V30 5 C 0.378565 -1.347471 0.759629 0
M  V30 6 N 0.042679 -2.426939 0.064170 0
M  V30 7 C -0.034886 -2.494226 -1.271281 0
M  V30 8 N 0.237649 -1.415261 -2.017797 0
M  V30 9 C 0.586346 -0.275352 -1.418844 0
M  V30 10 N 0.903622 0.921171 -1.899987 0
M  V30 11 C 1.182598 1.750192 -0.880596 0
M  V30 12 C 1.558503 3.074718 -0.837691 0
M  V30 13 N 1.782714 3.685342 0.354026 0
M  V30 14 C 1.630464 2.968620 1.508910 0
M  V30 15 C 1.254504 1.644187 1.463705 0
M  V30 16 C 1.025264 1.015406 0.272452 0
M  V30 17 C 0.649736 -0.265131 -0.037641 0
M  V30 18 H -1.763595 -4.234418 1.212229 0
M  V30 19 H -2.885793 -2.938784 1.500091 0
M  V30 20 H -1.943626 -2.414365 3.554150 0
M  V30 21 H -1.331236 -4.047943 3.405940 0
M  V30 22 H 0.518858 -2.741273 3.870966 0
M  V30 23 H 0.636388 -3.502531 2.297228 0
M  V30 24 H 0.671686 -0.796644 2.922977 0
M  V30 25 H -0.323375 -3.442221 -1.734284 0
M  V30 26 H 0.933006 1.181818 -2.913593 0
M  V30 27 H 1.661361 3.586831 -1.799129 0
M  V30 28 H 1.846953 3.604911 2.356711 0
M  V30 29 H 1.191099 1.271714 2.445170 0
M  V30 END ATOM
M  V30 BEGIN BOND
M  V30 1 1 1 2
M  V30 2 1 2 3
M  V30 3 1 3 4
M  V30 4 1 4 5
M  V30 5 2 5 6
M  V30 6 1 6 7
M  V30 7 2 7 8
M  V30 8 1 8 9
M  V30 9 1 9 10
M  V30 10 1 10 11
M  V30 11 2 11 12
M  V30 12 1 12 13
M  V30 13 2 13 14
M  V30 14 1 14 15
M  V30 15 2 15 16
M  V30 16 1 16 17
M  V30 17 1 17 5
M  V30 18 2 17 9
M  V30 19 1 16 11
M  V30 20 1 1 18
M  V30 21 1 1 19
M  V30 22 1 2 20
M  V30 23 1 2 21
M  V30 24 1 3 22
M  V30 25 1 3 23
M  V30 26 1 4 24
M  V30 27 1 7 25
M  V30 28 1 10 26
M  V30 29 1 12 27
M  V30 30 1 14 28
M  V30 31 1 15 29
M  V30 END BOND
M  V30 END CTAB
M  END
>  <Dataset>  (82) 
ChEMBL_Kinases

>  <Ligand_Instance>  (82) 
nan

>  <PDB_ID>  (82) 
nan

>  <Standardized_SMILES>  (82) 
NCCNc1ncnc2[nH]c3cnccc3c12

>  <Name>  (82) 
nan

>  <Pocket>  (82) 
nan

>  <ATP_Site>  (82) 
nan

>  <Peripheral>  (82) 
nan

>  <Num_H_Atoms_ProtBoundConf>  (82) 
nan

>  <Num_Resolved_Atoms>  (82) 
nan

>  <Num_Not_Resolved_Atoms>  (82) 
nan

$$$$
CHEMBL4755373
     RDKit          3D

  0  0  0  0  0  0  0  0  0  0999 V3000
M  V30 BEGIN CTAB
M  V30 COUNTS 48 51 0 0 0
M  V30 BEGIN ATOM
M  V30 1 C -0.435822 -6.446217 0.886767 0
M  V30 2 N -1.276014 -5.402606 0.393246 0
M  V30 3 C -1.195102 -5.120621 -0.989189 0
M  V30 4 C -0.730302 -3.774687 -1.406039 0
M  V30 5 N -0.711676 -2.773369 -0.381938 0
M  V30 6 C 0.229610 -1.700046 -0.699903 0
M  V30 7 C -0.251641 -0.895517 -1.888085 0
M  V30 8 N 0.621789 0.179218 -2.260926 0
M  V30 9 C 0.942168 1.255174 -1.389019 0
M  V30 10 N 1.764071 2.288003 -1.737373 0
M  V30 11 C 2.032697 3.292290 -0.861593 0
M  V30 12 C 1.461478 3.257410 0.394506 0
M  V30 13 C 1.670214 4.232055 1.360916 0
M  V30 14 C 1.059271 4.128637 2.605430 0
M  V30 15 C 1.247190 5.079987 3.587757 0
M  V30 16 N 0.643329 4.942879 4.768581 0
M  V30 17 C -0.161549 3.914607 5.086359 0
M  V30 18 C -0.393291 2.926201 4.149171 0
M  V30 19 C 0.232849 3.059816 2.912311 0
M  V30 20 C -0.012287 2.050502 1.977386 0
M  V30 21 N -0.838836 0.939312 2.225649 0
M  V30 22 C 0.628461 2.221742 0.764748 0
M  V30 23 N 0.408198 1.263128 -0.154461 0
M  V30 24 C -0.381046 -3.277796 0.919496 0
M  V30 25 C -1.465427 -4.285403 1.260484 0
M  V30 26 H -1.117428 -7.195113 1.386009 0
M  V30 27 H 0.070990 -6.990855 0.056227 0
M  V30 28 H 0.289812 -6.112974 1.645641 0
M  V30 29 H -2.190698 -5.408715 -1.434730 0
M  V30 30 H -0.475928 -5.870243 -1.432681 0
M  V30 31 H -1.449714 -3.410327 -2.187764 0
M  V30 32 H 0.268207 -3.774981 -1.897392 0
M  V30 33 H 1.189202 -2.207736 -0.925977 0
M  V30 34 H 0.402860 -1.084173 0.202317 0
M  V30 35 H -0.366422 -1.617756 -2.717923 0
M  V30 36 H -1.241723 -0.455497 -1.731025 0
M  V30 37 H 1.075200 0.225227 -3.211244 0
M  V30 38 H 2.673840 4.108475 -1.121576 0
M  V30 39 H 2.316028 5.069730 1.124810 0
M  V30 40 H 1.883063 5.922289 3.379969 0
M  V30 41 H -0.649236 3.818023 6.063840 0
M  V30 42 H -1.039277 2.082166 4.378681 0
M  V30 43 H -1.540945 0.624043 1.506310 0
M  V30 44 H -0.865822 0.331047 3.083035 0
M  V30 45 H -0.347337 -2.432278 1.626717 0
M  V30 46 H 0.631520 -3.721656 0.881082 0
M  V30 47 H -2.434975 -3.811606 0.988258 0
M  V30 48 H -1.425526 -4.609000 2.307857 0
M  V30 END ATOM
M  V30 BEGIN BOND
M  V30 1 1 1 2
M  V30 2 1 2 3
M  V30 3 1 3 4
M  V30 4 1 4 5
M  V30 5 1 5 6
M  V30 6 1 6 7
M  V30 7 1 7 8
M  V30 8 1 8 9
M  V30 9 2 9 10
M  V30 10 1 10 11
M  V30 11 2 11 12
M  V30 12 1 12 13
M  V30 13 2 13 14
M  V30 14 1 14 15
M  V30 15 2 15 16
M  V30 16 1 16 17
M  V30 17 2 17 18
M  V30 18 1 18 19
M  V30 19 2 19 20
M  V30 20 1 20 21
M  V30 21 1 20 22
M  V30 22 2 22 23
M  V30 23 1 5 24
M  V30 24 1 24 25
M  V30 25 1 25 2
M  V30 26 1 23 9
M  V30 27 1 22 12
M  V30 28 1 19 14
M  V30 29 1 1 26
M  V30 30 1 1 27
M  V30 31 1 1 28
M  V30 32 1 3 29
M  V30 33 1 3 30
M  V30 34 1 4 31
M  V30 35 1 4 32
M  V30 36 1 6 33
M  V30 37 1 6 34
M  V30 38 1 7 35
M  V30 39 1 7 36
M  V30 40 1 8 37
M  V30 41 1 11 38
M  V30 42 1 13 39
M  V30 43 1 15 40
M  V30 44 1 17 41
M  V30 45 1 18 42
M  V30 46 1 21 43
M  V30 47 1 21 44
M  V30 48 1 24 45
M  V30 49 1 24 46
M  V30 50 1 25 47
M  V30 51 1 25 48
M  V30 END BOND
M  V30 END CTAB
M  END
>  <Dataset>  (83) 
ChEMBL_Kinases

>  <Ligand_Instance>  (83) 
nan

>  <PDB_ID>  (83) 
nan

>  <Standardized_SMILES>  (83) 
CN1CCN(CCNc2ncc3cc4cnccc4c(N)c3n2)CC1

>  <Name>  (83) 
nan

>  <Pocket>  (83) 
nan

>  <ATP_Site>  (83) 
nan

>  <Peripheral>  (83) 
nan

>  <Num_H_Atoms_ProtBoundConf>  (83) 
nan

>  <Num_Resolved_Atoms>  (83) 
nan

>  <Num_Not_Resolved_Atoms>  (83) 
nan

$$$$
CHEMBL1928677
     RDKit          3D

  0  0  0  0  0  0  0  0  0  0999 V3000
M  V30 BEGIN CTAB
M  V30 COUNTS 37 40 0 0 0
M  V30 BEGIN ATOM
M  V30 1 N -1.755740 -3.169177 3.670478 0
M  V30 2 C -0.319192 -3.294666 3.562210 0
M  V30 3 C 0.173801 -3.031583 2.159462 0
M  V30 4 C -0.037171 -1.594462 1.768812 0
M  V30 5 N 0.330167 -1.345230 0.380036 0
M  V30 6 C 1.203181 -0.544456 -0.399277 0
M  V30 7 N 2.156432 -1.332719 -0.979021 0
M  V30 8 C 3.127854 -0.775042 -1.760232 0
M  V30 9 N 3.127210 0.557020 -1.946285 0
M  V30 10 C 2.226775 1.371563 -1.409123 0
M  V30 11 N 1.962714 2.691039 -1.407965 0
M  V30 12 C 0.873937 2.950338 -0.660917 0
M  V30 13 C 0.184403 4.114432 -0.336315 0
M  V30 14 N -0.924631 4.092070 0.460086 0
M  V30 15 C -1.369082 2.896904 0.950812 0
M  V30 16 C -0.689962 1.742327 0.632478 0
M  V30 17 C 0.423331 1.755065 -0.164870 0
M  V30 18 C 1.252532 0.798636 -0.624055 0
M  V30 19 C -0.522354 -2.269754 -0.386114 0
M  V30 20 C -0.038303 -3.668895 -0.045140 0
M  V30 21 O -0.382141 -3.922608 1.256654 0
M  V30 22 H -2.103170 -2.211300 3.769660 0
M  V30 23 H -2.274707 -3.812288 3.068627 0
M  V30 24 H -0.047731 -4.315577 3.896365 0
M  V30 25 H 0.172383 -2.601299 4.256457 0
M  V30 26 H 1.268169 -3.210665 2.161647 0
M  V30 27 H 0.595028 -0.929669 2.387550 0
M  V30 28 H -1.081476 -1.321679 1.908629 0
M  V30 29 H 3.900620 -1.363046 -2.237233 0
M  V30 30 H 2.534656 3.406111 -1.922359 0
M  V30 31 H 0.555024 5.054672 -0.737513 0
M  V30 32 H -2.253347 2.994108 1.568858 0
M  V30 33 H -1.164198 0.897082 1.085659 0
M  V30 34 H -1.577486 -2.209676 -0.122286 0
M  V30 35 H -0.359135 -2.170752 -1.483260 0
M  V30 36 H -0.621673 -4.397254 -0.671811 0
M  V30 37 H 1.050926 -3.785993 -0.207733 0
M  V30 END ATOM
M  V30 BEGIN BOND
M  V30 1 1 1 2
M  V30 2 1 2 3
M  V30 3 1 3 4
M  V30 4 1 4 5
M  V30 5 1 5 6
M  V30 6 2 6 7
M  V30 7 1 7 8
M  V30 8 2 8 9
M  V30 9 1 9 10
M  V30 10 1 10 11
M  V30 11 1 11 12
M  V30 12 2 12 13
M  V30 13 1 13 14
M  V30 14 2 14 15
M  V30 15 1 15 16
M  V30 16 2 16 17
M  V30 17 1 17 18
M  V30 18 1 5 19
M  V30 19 1 19 20
M  V30 20 1 20 21
M  V30 21 1 21 3
M  V30 22 1 18 6
M  V30 23 2 18 10
M  V30 24 1 17 12
M  V30 25 1 1 22
M  V30 26 1 1 23
M  V30 27 1 2 24
M  V30 28 1 2 25
M  V30 29 1 3 26
M  V30 30 1 4 27
M  V30 31 1 4 28
M  V30 32 1 8 29
M  V30 33 1 11 30
M  V30 34 1 13 31
M  V30 35 1 15 32
M  V30 36 1 16 33
M  V30 37 1 19 34
M  V30 38 1 19 35
M  V30 39 1 20 36
M  V30 40 1 20 37
M  V30 END BOND
M  V30 END CTAB
M  END
>  <Dataset>  (84) 
ChEMBL_Kinases

>  <Ligand_Instance>  (84) 
nan

>  <PDB_ID>  (84) 
nan

>  <Standardized_SMILES>  (84) 
NCC1CN(c2ncnc3[nH]c4cnccc4c23)CCO1

>  <Name>  (84) 
nan

>  <Pocket>  (84) 
nan

>  <ATP_Site>  (84) 
nan

>  <Peripheral>  (84) 
nan

>  <Num_H_Atoms_ProtBoundConf>  (84) 
nan

>  <Num_Resolved_Atoms>  (84) 
nan

>  <Num_Not_Resolved_Atoms>  (84) 
nan

$$$$
CHEMBL1928676
     RDKit          3D

  0  0  0  0  0  0  0  0  0  0999 V3000
M  V30 BEGIN CTAB
M  V30 COUNTS 38 41 0 0 0
M  V30 BEGIN ATOM
M  V30 1 N -3.423589 -2.564434 0.149999 0
M  V30 2 C -2.781676 -3.246253 1.262348 0
M  V30 3 C -1.289418 -3.038494 1.310737 0 CFG=1
M  V30 4 C -0.927331 -1.563599 1.355056 0
M  V30 5 N 0.280685 -1.430952 0.720500 0
M  V30 6 C 0.991678 -0.795625 -0.281447 0
M  V30 7 N 1.351105 -1.647992 -1.281942 0
M  V30 8 C 2.040302 -1.196078 -2.373438 0
M  V30 9 N 2.392491 0.093932 -2.511107 0
M  V30 10 C 2.052153 0.957601 -1.540158 0
M  V30 11 N 2.261330 2.278975 -1.393960 0
M  V30 12 C 1.707469 2.661229 -0.214295 0
M  V30 13 C 1.655336 3.897422 0.388334 0
M  V30 14 C 1.029915 4.038209 1.610571 0
M  V30 15 C 0.456554 2.912436 2.218122 0
M  V30 16 C 0.517372 1.678289 1.599954 0
M  V30 17 C 1.134388 1.571289 0.406288 0
M  V30 18 C 1.361010 0.517697 -0.439953 0
M  V30 19 C 1.186716 -2.380673 1.429905 0
M  V30 20 C 0.533390 -3.005742 2.627122 0
M  V30 21 O -0.657567 -3.668726 2.347621 0
M  V30 22 H -3.666673 -1.565218 0.366310 0
M  V30 23 H -4.366389 -3.031866 0.023399 0
M  V30 24 H -3.247106 -2.925751 2.203927 0
M  V30 25 H -3.021441 -4.321644 1.139168 0
M  V30 26 H -0.883192 -3.495076 0.363002 0
M  V30 27 H -1.826908 -1.033553 1.070547 0
M  V30 28 H -0.855942 -1.258950 2.426790 0
M  V30 29 H 2.327202 -1.878182 -3.173027 0
M  V30 30 H 2.758786 2.919191 -2.056461 0
M  V30 31 H 2.107301 4.762883 -0.099500 0
M  V30 32 H 0.999661 5.007605 2.063158 0
M  V30 33 H -0.006089 3.129911 3.168994 0
M  V30 34 H 0.051587 0.940280 2.175596 0
M  V30 35 H 1.489155 -3.206122 0.757094 0
M  V30 36 H 2.027815 -1.772134 1.817042 0
M  V30 37 H 1.236777 -3.813573 2.926882 0
M  V30 38 H 0.477863 -2.347448 3.519001 0
M  V30 END ATOM
M  V30 BEGIN BOND
M  V30 1 1 1 2
M  V30 2 1 2 3
M  V30 3 1 3 4
M  V30 4 1 4 5
M  V30 5 1 5 6
M  V30 6 2 6 7
M  V30 7 1 7 8
M  V30 8 2 8 9
M  V30 9 1 9 10
M  V30 10 1 10 11
M  V30 11 1 11 12
M  V30 12 2 12 13
M  V30 13 1 13 14
M  V30 14 2 14 15
M  V30 15 1 15 16
M  V30 16 2 16 17
M  V30 17 1 17 18
M  V30 18 1 5 19
M  V30 19 1 19 20
M  V30 20 1 20 21
M  V30 21 1 21 3
M  V30 22 1 18 6
M  V30 23 2 18 10
M  V30 24 1 17 12
M  V30 25 1 1 22
M  V30 26 1 1 23
M  V30 27 1 2 24
M  V30 28 1 2 25
M  V30 29 1 3 26 CFG=3
M  V30 30 1 4 27
M  V30 31 1 4 28
M  V30 32 1 8 29
M  V30 33 1 11 30
M  V30 34 1 13 31
M  V30 35 1 14 32
M  V30 36 1 15 33
M  V30 37 1 16 34
M  V30 38 1 19 35
M  V30 39 1 19 36
M  V30 40 1 20 37
M  V30 41 1 20 38
M  V30 END BOND
M  V30 END CTAB
M  END
>  <Dataset>  (85) 
ChEMBL_Kinases

>  <Ligand_Instance>  (85) 
nan

>  <PDB_ID>  (85) 
nan

>  <Standardized_SMILES>  (85) 
NC[C@H]1CN(c2ncnc3[nH]c4ccccc4c23)CCO1

>  <Name>  (85) 
nan

>  <Pocket>  (85) 
nan

>  <ATP_Site>  (85) 
nan

>  <Peripheral>  (85) 
nan

>  <Num_H_Atoms_ProtBoundConf>  (85) 
nan

>  <Num_Resolved_Atoms>  (85) 
nan

>  <Num_Not_Resolved_Atoms>  (85) 
nan

$$$$
CHEMBL1928675
     RDKit          3D

  0  0  0  0  0  0  0  0  0  0999 V3000
M  V30 BEGIN CTAB
M  V30 COUNTS 38 41 0 0 0
M  V30 BEGIN ATOM
M  V30 1 N -3.037869 -3.163316 2.038016 0
M  V30 2 C -2.086998 -2.118412 1.768420 0
M  V30 3 C -0.922970 -2.152416 2.754581 0 CFG=2
M  V30 4 C 0.025873 -1.021312 2.543984 0
M  V30 5 N 0.872843 -1.369913 1.408613 0
M  V30 6 C 1.883711 -0.507043 0.907905 0
M  V30 7 N 3.114505 -0.962149 1.261754 0
M  V30 8 C 4.223258 -0.245342 0.909543 0
M  V30 9 N 4.100853 0.904165 0.216593 0
M  V30 10 C 2.897868 1.384123 -0.151249 0
M  V30 11 N 2.455115 2.458839 -0.829576 0
M  V30 12 C 1.111835 2.418227 -0.903433 0
M  V30 13 C 0.195520 3.267224 -1.488925 0
M  V30 14 C -1.164842 2.990752 -1.431252 0
M  V30 15 C -1.593493 1.834083 -0.768314 0
M  V30 16 C -0.657378 1.003670 -0.192139 0
M  V30 17 C 0.676098 1.284013 -0.253216 0
M  V30 18 C 1.781442 0.663583 0.202157 0
M  V30 19 C 0.830654 -2.615092 0.621735 0
M  V30 20 C 0.137553 -3.693589 1.388701 0
M  V30 21 O -0.311525 -3.367291 2.633771 0
M  V30 22 H -4.012171 -2.756462 2.132779 0
M  V30 23 H -3.127987 -3.866158 1.271587 0
M  V30 24 H -1.719156 -2.220454 0.732465 0
M  V30 25 H -2.603424 -1.134086 1.798187 0
M  V30 26 H -1.326982 -2.026125 3.802751 0
M  V30 27 H 0.732918 -1.023498 3.421249 0
M  V30 28 H -0.400626 -0.030486 2.521741 0
M  V30 29 H 5.220127 -0.587211 1.180382 0
M  V30 30 H 3.070790 3.204659 -1.232797 0
M  V30 31 H 0.550145 4.162941 -2.000693 0
M  V30 32 H -1.868937 3.660989 -1.891696 0
M  V30 33 H -2.682122 1.685747 -0.766601 0
M  V30 34 H -1.133441 0.159046 0.266043 0
M  V30 35 H 0.392321 -2.420746 -0.381388 0
M  V30 36 H 1.868207 -2.975516 0.400443 0
M  V30 37 H -0.777065 -4.013577 0.803748 0
M  V30 38 H 0.760071 -4.633000 1.386315 0
M  V30 END ATOM
M  V30 BEGIN BOND
M  V30 1 1 1 2
M  V30 2 1 2 3
M  V30 3 1 3 4
M  V30 4 1 4 5
M  V30 5 1 5 6
M  V30 6 2 6 7
M  V30 7 1 7 8
M  V30 8 2 8 9
M  V30 9 1 9 10
M  V30 10 1 10 11
M  V30 11 1 11 12
M  V30 12 2 12 13
M  V30 13 1 13 14
M  V30 14 2 14 15
M  V30 15 1 15 16
M  V30 16 2 16 17
M  V30 17 1 17 18
M  V30 18 1 5 19
M  V30 19 1 19 20
M  V30 20 1 20 21
M  V30 21 1 21 3
M  V30 22 1 18 6
M  V30 23 2 18 10
M  V30 24 1 17 12
M  V30 25 1 1 22
M  V30 26 1 1 23
M  V30 27 1 2 24
M  V30 28 1 2 25
M  V30 29 1 3 26 CFG=1
M  V30 30 1 4 27
M  V30 31 1 4 28
M  V30 32 1 8 29
M  V30 33 1 11 30
M  V30 34 1 13 31
M  V30 35 1 14 32
M  V30 36 1 15 33
M  V30 37 1 16 34
M  V30 38 1 19 35
M  V30 39 1 19 36
M  V30 40 1 20 37
M  V30 41 1 20 38
M  V30 END BOND
M  V30 END CTAB
M  END
>  <Dataset>  (86) 
ChEMBL_Kinases

>  <Ligand_Instance>  (86) 
nan

>  <PDB_ID>  (86) 
nan

>  <Standardized_SMILES>  (86) 
NC[C@@H]1CN(c2ncnc3[nH]c4ccccc4c23)CCO1

>  <Name>  (86) 
nan

>  <Pocket>  (86) 
nan

>  <ATP_Site>  (86) 
nan

>  <Peripheral>  (86) 
nan

>  <Num_H_Atoms_ProtBoundConf>  (86) 
nan

>  <Num_Resolved_Atoms>  (86) 
nan

>  <Num_Not_Resolved_Atoms>  (86) 
nan

$$$$
CHEMBL1928674
     RDKit          3D

  0  0  0  0  0  0  0  0  0  0999 V3000
M  V30 BEGIN CTAB
M  V30 COUNTS 38 41 0 0 0
M  V30 BEGIN ATOM
M  V30 1 N -2.007629 -3.975044 3.596754 0
M  V30 2 C -0.989273 -3.619278 2.660884 0
M  V30 3 C -1.118321 -2.214364 2.114047 0
M  V30 4 C -0.208181 -2.026013 0.940558 0
M  V30 5 N 0.822977 -1.035140 1.294428 0
M  V30 6 C 1.708278 -0.427459 0.367411 0
M  V30 7 N 2.983013 -0.889295 0.457217 0
M  V30 8 C 3.967584 -0.447427 -0.381005 0
M  V30 9 N 3.691042 0.470016 -1.328982 0
M  V30 10 C 2.448445 0.952476 -1.451819 0
M  V30 11 N 1.873782 1.853691 -2.268845 0
M  V30 12 C 0.571422 1.976201 -1.953916 0
M  V30 13 C -0.420402 2.768551 -2.492969 0
M  V30 14 C -1.700984 2.721022 -1.982800 0
M  V30 15 C -1.969840 1.858363 -0.914670 0
M  V30 16 C -0.956135 1.080302 -0.399864 0
M  V30 17 C 0.301055 1.137880 -0.914309 0
M  V30 18 C 1.460999 0.506691 -0.607591 0
M  V30 19 C 1.162846 -0.476510 2.579929 0
M  V30 20 C 0.207330 -1.048629 3.605458 0
M  V30 21 O -1.061078 -1.249808 3.078573 0
M  V30 22 H -2.658705 -4.724698 3.265987 0
M  V30 23 H -1.634123 -4.293257 4.518123 0
M  V30 24 H -0.925322 -4.362981 1.841769 0
M  V30 25 H -0.012327 -3.680193 3.208981 0
M  V30 26 H -2.165471 -2.169481 1.694488 0
M  V30 27 H -0.684266 -1.790396 -0.007527 0
M  V30 28 H 0.381998 -2.970465 0.775960 0
M  V30 29 H 4.984358 -0.818548 -0.306473 0
M  V30 30 H 2.394821 2.360162 -3.021668 0
M  V30 31 H -0.246186 3.434119 -3.304977 0
M  V30 32 H -2.480492 3.340271 -2.402830 0
M  V30 33 H -3.011394 1.874011 -0.560346 0
M  V30 34 H -1.314785 0.484086 0.415151 0
M  V30 35 H 1.188175 0.629825 2.606877 0
M  V30 36 H 2.178008 -0.837076 2.848706 0
M  V30 37 H 0.618051 -1.944036 4.115847 0
M  V30 38 H 0.095448 -0.268705 4.395624 0
M  V30 END ATOM
M  V30 BEGIN BOND
M  V30 1 1 1 2
M  V30 2 1 2 3
M  V30 3 1 3 4
M  V30 4 1 4 5
M  V30 5 1 5 6
M  V30 6 2 6 7
M  V30 7 1 7 8
M  V30 8 2 8 9
M  V30 9 1 9 10
M  V30 10 1 10 11
M  V30 11 1 11 12
M  V30 12 2 12 13
M  V30 13 1 13 14
M  V30 14 2 14 15
M  V30 15 1 15 16
M  V30 16 2 16 17
M  V30 17 1 17 18
M  V30 18 1 5 19
M  V30 19 1 19 20
M  V30 20 1 20 21
M  V30 21 1 21 3
M  V30 22 1 18 6
M  V30 23 2 18 10
M  V30 24 1 17 12
M  V30 25 1 1 22
M  V30 26 1 1 23
M  V30 27 1 2 24
M  V30 28 1 2 25
M  V30 29 1 3 26
M  V30 30 1 4 27
M  V30 31 1 4 28
M  V30 32 1 8 29
M  V30 33 1 11 30
M  V30 34 1 13 31
M  V30 35 1 14 32
M  V30 36 1 15 33
M  V30 37 1 16 34
M  V30 38 1 19 35
M  V30 39 1 19 36
M  V30 40 1 20 37
M  V30 41 1 20 38
M  V30 END BOND
M  V30 END CTAB
M  END
>  <Dataset>  (87) 
ChEMBL_Kinases

>  <Ligand_Instance>  (87) 
nan

>  <PDB_ID>  (87) 
nan

>  <Standardized_SMILES>  (87) 
NCC1CN(c2ncnc3[nH]c4ccccc4c23)CCO1

>  <Name>  (87) 
nan

>  <Pocket>  (87) 
nan

>  <ATP_Site>  (87) 
nan

>  <Peripheral>  (87) 
nan

>  <Num_H_Atoms_ProtBoundConf>  (87) 
nan

>  <Num_Resolved_Atoms>  (87) 
nan

>  <Num_Not_Resolved_Atoms>  (87) 
nan

$$$$
CHEMBL1928673
     RDKit          3D

  0  0  0  0  0  0  0  0  0  0999 V3000
M  V30 BEGIN CTAB
M  V30 COUNTS 46 49 0 0 0
M  V30 BEGIN ATOM
M  V30 1 N -0.734136 -4.461713 0.734087 0
M  V30 2 C -0.932466 -3.419292 1.701953 0
M  V30 3 C -1.762554 -2.277062 1.167156 0
M  V30 4 C -1.156323 -1.736853 -0.068306 0
M  V30 5 N -1.351330 -0.286083 -0.209665 0
M  V30 6 C -0.894092 0.759574 -1.047982 0
M  V30 7 N -1.820796 1.022434 -2.025073 0
M  V30 8 C -1.604691 1.971741 -2.968468 0
M  V30 9 N -0.460384 2.673896 -2.950562 0
M  V30 10 C 0.490157 2.474249 -2.027712 0
M  V30 11 N 1.709200 2.972192 -1.678072 0
M  V30 12 C 2.172310 2.335721 -0.580796 0
M  V30 13 C 1.232718 1.372563 -0.175563 0
M  V30 14 C 1.609588 0.570171 0.969875 0
M  V30 15 C 1.547413 1.330646 2.148448 0
M  V30 16 C 1.894209 0.836355 3.384734 0
M  V30 17 C 2.324393 -0.468655 3.474136 0
M  V30 18 C 2.397446 -1.241404 2.337720 0
M  V30 19 C 2.866278 -2.651919 2.367816 0
M  V30 20 O 4.256638 -2.636935 2.187771 0
M  V30 21 C 2.045645 -0.728072 1.111292 0
M  V30 22 C 0.237011 1.513420 -1.099667 0
M  V30 23 C -2.241458 0.435728 0.712672 0
M  V30 24 C -2.873526 -0.448212 1.735362 0
M  V30 25 O -1.875373 -1.334074 2.202872 0
M  V30 26 H -1.009104 -5.371602 1.177988 0
M  V30 27 H 0.263645 -4.573608 0.442092 0
M  V30 28 H -1.377730 -3.823986 2.659958 0
M  V30 29 H 0.037099 -2.998186 1.978387 0
M  V30 30 H -2.787060 -2.710023 0.994880 0
M  V30 31 H -1.758286 -2.172403 -0.935441 0
M  V30 32 H -0.115589 -1.960137 -0.268033 0
M  V30 33 H -2.320458 2.190840 -3.742808 0
M  V30 34 H 2.152653 3.743682 -2.240498 0
M  V30 35 H 3.134244 2.629548 -0.187612 0
M  V30 36 H 1.223177 2.381680 2.220198 0
M  V30 37 H 1.857442 1.393350 4.306871 0
M  V30 38 H 2.605019 -0.892297 4.426071 0
M  V30 39 H 2.375457 -3.235087 1.558636 0
M  V30 40 H 2.640157 -3.132415 3.330309 0
M  V30 41 H 4.521829 -3.105233 1.367091 0
M  V30 42 H 2.069625 -1.226507 0.158058 0
M  V30 43 H -1.714981 1.239511 1.266752 0
M  V30 44 H -3.085978 0.926826 0.151674 0
M  V30 45 H -3.241180 0.146821 2.570121 0
M  V30 46 H -3.657561 -1.075659 1.249178 0
M  V30 END ATOM
M  V30 BEGIN BOND
M  V30 1 1 1 2
M  V30 2 1 2 3
M  V30 3 1 3 4
M  V30 4 1 4 5
M  V30 5 1 5 6
M  V30 6 2 6 7
M  V30 7 1 7 8
M  V30 8 2 8 9
M  V30 9 1 9 10
M  V30 10 1 10 11
M  V30 11 1 11 12
M  V30 12 2 12 13
M  V30 13 1 13 14
M  V30 14 2 14 15
M  V30 15 1 15 16
M  V30 16 2 16 17
M  V30 17 1 17 18
M  V30 18 1 18 19
M  V30 19 1 19 20
M  V30 20 2 18 21
M  V30 21 1 13 22
M  V30 22 1 5 23
M  V30 23 1 23 24
M  V30 24 1 24 25
M  V30 25 1 25 3
M  V30 26 1 22 6
M  V30 27 2 22 10
M  V30 28 1 21 14
M  V30 29 1 1 26
M  V30 30 1 1 27
M  V30 31 1 2 28
M  V30 32 1 2 29
M  V30 33 1 3 30
M  V30 34 1 4 31
M  V30 35 1 4 32
M  V30 36 1 8 33
M  V30 37 1 11 34
M  V30 38 1 12 35
M  V30 39 1 15 36
M  V30 40 1 16 37
M  V30 41 1 17 38
M  V30 42 1 19 39
M  V30 43 1 19 40
M  V30 44 1 20 41
M  V30 45 1 21 42
M  V30 46 1 23 43
M  V30 47 1 23 44
M  V30 48 1 24 45
M  V30 49 1 24 46
M  V30 END BOND
M  V30 END CTAB
M  END
>  <Dataset>  (88) 
ChEMBL_Kinases

>  <Ligand_Instance>  (88) 
nan

>  <PDB_ID>  (88) 
nan

>  <Standardized_SMILES>  (88) 
NCC1CN(c2ncnc3[nH]cc(-c4cccc(CO)c4)c23)CCO1

>  <Name>  (88) 
nan

>  <Pocket>  (88) 
nan

>  <ATP_Site>  (88) 
nan

>  <Peripheral>  (88) 
nan

>  <Num_H_Atoms_ProtBoundConf>  (88) 
nan

>  <Num_Resolved_Atoms>  (88) 
nan

>  <Num_Not_Resolved_Atoms>  (88) 
nan

$$$$
CHEMBL13485
     RDKit          3D

  0  0  0  0  0  0  0  0  0  0999 V3000
M  V30 BEGIN CTAB
M  V30 COUNTS 56 58 0 0 0
M  V30 BEGIN ATOM
M  V30 1 C 2.923172 0.168717 4.937350 0
M  V30 2 C 2.685278 0.658498 3.532040 0
M  V30 3 N 3.893098 0.963677 2.880682 0
M  V30 4 C 4.651819 2.079811 3.267168 0
M  V30 5 C 5.279807 1.892610 4.618662 0
M  V30 6 C 4.370123 0.156330 1.854167 0
M  V30 7 C 3.861522 0.085836 0.488871 0
M  V30 8 N 2.501548 -0.197295 0.219153 0
M  V30 9 C 1.232579 0.412403 0.372728 0
M  V30 10 O 1.366187 1.578708 0.891957 0
M  V30 11 C -0.105071 -0.023707 0.065176 0
M  V30 12 C -1.182296 0.834790 0.327348 0
M  V30 13 C -1.253251 2.224666 0.887621 0
M  V30 14 N -2.281329 0.117358 -0.062099 0
M  V30 15 C -1.994936 -1.098474 -0.539867 0
M  V30 16 C -2.830509 -2.161856 -1.071798 0
M  V30 17 C -3.783930 -2.158495 -1.978164 0
M  V30 18 C -4.188028 -0.957044 -2.665550 0
M  V30 19 O -3.719137 0.186615 -2.539146 0
M  V30 20 N -5.236342 -1.337048 -3.527624 0
M  V30 21 C -5.441163 -2.732148 -3.349101 0
M  V30 22 C -6.355638 -3.608137 -3.955100 0
M  V30 23 C -6.406513 -4.975058 -3.638507 0
M  V30 24 C -5.504309 -5.406176 -2.697057 0
M  V30 25 Cl -5.568292 -7.103573 -2.302817 0
M  V30 26 C -4.595670 -4.619929 -2.073512 0
M  V30 27 C -4.588075 -3.288092 -2.420092 0
M  V30 28 C -0.598115 -1.209357 -0.466618 0
M  V30 29 C 0.221768 -2.354263 -0.879182 0
M  V30 30 H 2.578418 0.870157 5.711309 0
M  V30 31 H 2.271123 -0.754917 5.108526 0
M  V30 32 H 3.944812 -0.205896 5.124124 0
M  V30 33 H 2.210253 -0.196207 2.966561 0
M  V30 34 H 1.916676 1.474411 3.518517 0
M  V30 35 H 4.065205 3.031733 3.347125 0
M  V30 36 H 5.492077 2.211331 2.542849 0
M  V30 37 H 5.920315 0.983268 4.695172 0
M  V30 38 H 4.594733 2.041885 5.472145 0
M  V30 39 H 6.017054 2.758724 4.730481 0
M  V30 40 H 4.301996 -0.925091 2.262149 0
M  V30 41 H 5.531075 0.247070 1.838910 0
M  V30 42 H 4.217700 0.968900 -0.148837 0
M  V30 43 H 4.454121 -0.757834 -0.018711 0
M  V30 44 H 2.269221 -1.120817 -0.226533 0
M  V30 45 H -2.237190 2.643399 0.602331 0
M  V30 46 H -1.218327 2.204564 1.998870 0
M  V30 47 H -0.484221 2.886794 0.431603 0
M  V30 48 H -3.253255 0.501599 0.033801 0
M  V30 49 H -2.612867 -3.145607 -0.620132 0
M  V30 50 H -5.743193 -0.694544 -4.161885 0
M  V30 51 H -7.041731 -3.195288 -4.693564 0
M  V30 52 H -7.133283 -5.590628 -4.141043 0
M  V30 53 H -3.875782 -4.956496 -1.323968 0
M  V30 54 H 0.718447 -2.900553 -0.054893 0
M  V30 55 H 0.863710 -2.175417 -1.771238 0
M  V30 56 H -0.497881 -3.139774 -1.277512 0
M  V30 END ATOM
M  V30 BEGIN BOND
M  V30 1 1 1 2
M  V30 2 1 2 3
M  V30 3 1 3 4
M  V30 4 1 4 5
M  V30 5 1 3 6
M  V30 6 1 6 7
M  V30 7 1 7 8
M  V30 8 1 8 9
M  V30 9 2 9 10
M  V30 10 1 9 11
M  V30 11 2 11 12
M  V30 12 1 12 13
M  V30 13 1 12 14
M  V30 14 1 14 15
M  V30 15 1 15 16
M  V30 16 2 16 17
M  V30 17 1 17 18
M  V30 18 2 18 19
M  V30 19 1 18 20
M  V30 20 1 20 21
M  V30 21 2 21 22
M  V30 22 1 22 23
M  V30 23 2 23 24
M  V30 24 1 24 25
M  V30 25 1 24 26
M  V30 26 2 26 27
M  V30 27 2 15 28
M  V30 28 1 28 29
M  V30 29 1 28 11
M  V30 30 1 27 17
M  V30 31 1 27 21
M  V30 32 1 1 30
M  V30 33 1 1 31
M  V30 34 1 1 32
M  V30 35 1 2 33
M  V30 36 1 2 34
M  V30 37 1 4 35
M  V30 38 1 4 36
M  V30 39 1 5 37
M  V30 40 1 5 38
M  V30 41 1 5 39
M  V30 42 1 6 40
M  V30 43 1 6 41
M  V30 44 1 7 42
M  V30 45 1 7 43
M  V30 46 1 8 44
M  V30 47 1 13 45
M  V30 48 1 13 46
M  V30 49 1 13 47
M  V30 50 1 14 48
M  V30 51 1 16 49
M  V30 52 1 20 50
M  V30 53 1 22 51
M  V30 54 1 23 52
M  V30 55 1 26 53
M  V30 56 1 29 54
M  V30 57 1 29 55
M  V30 58 1 29 56
M  V30 END BOND
M  V30 END CTAB
M  END
>  <Dataset>  (89) 
ChEMBL_Kinases

>  <Ligand_Instance>  (89) 
nan

>  <PDB_ID>  (89) 
nan

>  <Standardized_SMILES>  (89) 
CCN(CC)CCNC(=O)c1c(C)[nH]c(/C=C2\C(=O)Nc3ccc(Cl)cc32)c1C

>  <Name>  (89) 
SU-11652

>  <Pocket>  (89) 
nan

>  <ATP_Site>  (89) 
nan

>  <Peripheral>  (89) 
nan

>  <Num_H_Atoms_ProtBoundConf>  (89) 
nan

>  <Num_Resolved_Atoms>  (89) 
nan

>  <Num_Not_Resolved_Atoms>  (89) 
nan

$$$$
CHEMBL5093387
     RDKit          3D

  0  0  0  0  0  0  0  0  0  0999 V3000
M  V30 BEGIN CTAB
M  V30 COUNTS 34 37 0 0 0
M  V30 BEGIN ATOM
M  V30 1 C -1.104081 -1.505434 3.777907 0
M  V30 2 C -0.071710 -2.329500 4.092769 0
M  V30 3 O 0.650580 -2.502140 3.047532 0
M  V30 4 C 0.262755 -1.883806 1.964554 0
M  V30 5 C 1.075155 -2.087961 0.801893 0
M  V30 6 C 2.022996 -3.117409 0.655438 0
M  V30 7 N 2.629941 -3.055857 -0.536145 0
M  V30 8 C 2.154189 -2.028341 -1.235374 0
M  V30 9 N 2.433540 -1.544756 -2.455944 0
M  V30 10 C 1.798141 -0.459072 -2.924972 0
M  V30 11 N 0.863415 0.135317 -2.121965 0
M  V30 12 C 0.597467 -0.367439 -0.896831 0
M  V30 13 N -0.320548 0.490812 -0.271446 0
M  V30 14 C 0.142141 1.420518 0.760536 0
M  V30 15 C -1.029712 2.199742 1.321406 0
M  V30 16 O -1.999197 2.413113 0.336928 0
M  V30 17 C -2.625185 1.253621 -0.049358 0
M  V30 18 C -1.676065 0.363826 -0.775101 0
M  V30 19 C 1.219233 -1.459739 -0.404671 0
M  V30 20 C -0.823432 -1.281855 2.459373 0
M  V30 21 H -1.899561 -1.138623 4.376517 0
M  V30 22 H 0.140165 -2.791447 5.075066 0
M  V30 23 H 2.311365 -3.909015 1.336833 0
M  V30 24 H 3.367289 -3.697600 -0.898488 0
M  V30 25 H 2.090437 -0.146757 -3.917842 0
M  V30 26 H 0.683339 0.959922 1.584350 0
M  V30 27 H 0.842977 2.154882 0.300440 0
M  V30 28 H -0.662827 3.182507 1.657157 0
M  V30 29 H -1.481848 1.683722 2.186177 0
M  V30 30 H -3.077239 0.682982 0.789843 0
M  V30 31 H -3.431674 1.549757 -0.771444 0
M  V30 32 H -1.662989 0.667286 -1.851454 0
M  V30 33 H -1.994645 -0.709662 -0.770502 0
M  V30 34 H -1.426021 -0.685078 1.815058 0
M  V30 END ATOM
M  V30 BEGIN BOND
M  V30 1 2 1 2
M  V30 2 1 2 3
M  V30 3 1 3 4
M  V30 4 1 4 5
M  V30 5 2 5 6
M  V30 6 1 6 7
M  V30 7 1 7 8
M  V30 8 2 8 9
M  V30 9 1 9 10
M  V30 10 2 10 11
M  V30 11 1 11 12
M  V30 12 1 12 13
M  V30 13 1 13 14
M  V30 14 1 14 15
M  V30 15 1 15 16
M  V30 16 1 16 17
M  V30 17 1 17 18
M  V30 18 2 12 19
M  V30 19 2 4 20
M  V30 20 1 20 1
M  V30 21 1 19 5
M  V30 22 1 19 8
M  V30 23 1 18 13
M  V30 24 1 1 21
M  V30 25 1 2 22
M  V30 26 1 6 23
M  V30 27 1 7 24
M  V30 28 1 10 25
M  V30 29 1 14 26
M  V30 30 1 14 27
M  V30 31 1 15 28
M  V30 32 1 15 29
M  V30 33 1 17 30
M  V30 34 1 17 31
M  V30 35 1 18 32
M  V30 36 1 18 33
M  V30 37 1 20 34
M  V30 END BOND
M  V30 END CTAB
M  END
>  <Dataset>  (90) 
ChEMBL_Kinases

>  <Ligand_Instance>  (90) 
nan

>  <PDB_ID>  (90) 
nan

>  <Standardized_SMILES>  (90) 
c1coc(-c2c[nH]c3ncnc(N4CCOCC4)c23)c1

>  <Name>  (90) 
nan

>  <Pocket>  (90) 
nan

>  <ATP_Site>  (90) 
nan

>  <Peripheral>  (90) 
nan

>  <Num_H_Atoms_ProtBoundConf>  (90) 
nan

>  <Num_Resolved_Atoms>  (90) 
nan

>  <Num_Not_Resolved_Atoms>  (90) 
nan

$$$$
CHEMBL192848
     RDKit          3D

  0  0  0  0  0  0  0  0  0  0999 V3000
M  V30 BEGIN CTAB
M  V30 COUNTS 46 49 0 0 0
M  V30 BEGIN ATOM
M  V30 1 C 3.788971 -2.157223 3.289047 0
M  V30 2 C 3.689141 -0.849552 2.489373 0
M  V30 3 C 5.069126 -0.543858 2.011262 0
M  V30 4 S 2.498441 -1.121801 1.240054 0
M  V30 5 O 3.134437 -2.117148 0.273295 0
M  V30 6 O 1.330500 -1.869551 1.829501 0
M  V30 7 N 2.035366 0.222859 0.328663 0
M  V30 8 C 2.811269 0.985233 -0.458233 0
M  V30 9 N 4.200916 0.863189 -0.730578 0
M  V30 10 N 2.110541 1.960907 -1.021742 0
M  V30 11 C 0.832726 1.895389 -0.636979 0
M  V30 12 C -0.328273 2.603493 -0.875015 0
M  V30 13 C -1.512356 2.225779 -0.275938 0
M  V30 14 C -1.530168 1.131994 0.565985 0
M  V30 15 C -2.822818 0.786896 1.168918 0
M  V30 16 N -3.541143 1.591322 2.005158 0
M  V30 17 C -4.655443 0.900086 2.328118 0
M  V30 18 N -4.633578 -0.297751 1.713125 0
M  V30 19 C -3.505159 -0.381465 0.992279 0
M  V30 20 C -3.132735 -1.530453 0.191060 0
M  V30 21 C -2.983332 -2.692468 0.956019 0
M  V30 22 C -2.630641 -3.879458 0.350619 0
M  V30 23 C -2.415022 -3.955520 -1.025194 0
M  V30 24 C -2.566979 -2.799987 -1.762664 0
M  V30 25 C -2.917974 -1.613621 -1.168771 0
M  V30 26 C -0.371344 0.421931 0.806209 0
M  V30 27 C 0.821192 0.789826 0.212381 0
M  V30 28 H 4.621906 -2.797197 2.902092 0
M  V30 29 H 4.029571 -1.967819 4.355102 0
M  V30 30 H 2.889549 -2.771206 3.211166 0
M  V30 31 H 3.340972 -0.103064 3.250168 0
M  V30 32 H 5.841865 -0.859803 2.747437 0
M  V30 33 H 5.226528 0.544380 1.861373 0
M  V30 34 H 5.297500 -1.069056 1.076730 0
M  V30 35 H 5.158144 1.143539 -0.455266 0
M  V30 36 H 4.685321 0.313485 -1.467034 0
M  V30 37 H -0.269959 3.468990 -1.552860 0
M  V30 38 H -2.356913 2.846217 -0.529547 0
M  V30 39 H -3.264037 2.565741 2.327999 0
M  V30 40 H -5.386600 1.351377 2.994556 0
M  V30 41 H -3.127480 -2.743562 2.034525 0
M  V30 42 H -2.501086 -4.812723 0.899954 0
M  V30 43 H -2.139349 -4.874080 -1.511621 0
M  V30 44 H -2.415296 -2.783661 -2.839269 0
M  V30 45 H -3.057953 -0.659078 -1.678351 0
M  V30 46 H -0.460045 -0.408001 1.464795 0
M  V30 END ATOM
M  V30 BEGIN BOND
M  V30 1 1 1 2
M  V30 2 1 2 3
M  V30 3 1 2 4
M  V30 4 2 4 5
M  V30 5 2 4 6
M  V30 6 1 4 7
M  V30 7 1 7 8
M  V30 8 1 8 9
M  V30 9 2 8 10
M  V30 10 1 10 11
M  V30 11 2 11 12
M  V30 12 1 12 13
M  V30 13 2 13 14
M  V30 14 1 14 15
M  V30 15 1 15 16
M  V30 16 1 16 17
M  V30 17 2 17 18
M  V30 18 1 18 19
M  V30 19 1 19 20
M  V30 20 2 20 21
M  V30 21 1 21 22
M  V30 22 2 22 23
M  V30 23 1 23 24
M  V30 24 2 24 25
M  V30 25 1 14 26
M  V30 26 2 26 27
M  V30 27 1 27 7
M  V30 28 1 27 11
M  V30 29 2 19 15
M  V30 30 1 25 20
M  V30 31 1 1 28
M  V30 32 1 1 29
M  V30 33 1 1 30
M  V30 34 1 2 31
M  V30 35 1 3 32
M  V30 36 1 3 33
M  V30 37 1 3 34
M  V30 38 1 9 35
M  V30 39 1 9 36
M  V30 40 1 12 37
M  V30 41 1 13 38
M  V30 42 1 16 39
M  V30 43 1 17 40
M  V30 44 1 21 41
M  V30 45 1 22 42
M  V30 46 1 23 43
M  V30 47 1 24 44
M  V30 48 1 25 45
M  V30 49 1 26 46
M  V30 END BOND
M  V30 END CTAB
M  END
>  <Dataset>  (91) 
ChEMBL_Kinases

>  <Ligand_Instance>  (91) 
nan

>  <PDB_ID>  (91) 
nan

>  <Standardized_SMILES>  (91) 
CC(C)S(=O)(=O)n1c(N)nc2ccc(-c3[nH]cnc3-c3ccccc3)cc21

>  <Name>  (91) 
nan

>  <Pocket>  (91) 
nan

>  <ATP_Site>  (91) 
nan

>  <Peripheral>  (91) 
nan

>  <Num_H_Atoms_ProtBoundConf>  (91) 
nan

>  <Num_Resolved_Atoms>  (91) 
nan

>  <Num_Not_Resolved_Atoms>  (91) 
nan

$$$$
CHEMBL4755092
     RDKit          3D

  0  0  0  0  0  0  0  0  0  0999 V3000
M  V30 BEGIN CTAB
M  V30 COUNTS 95 100 0 0 0
M  V30 BEGIN ATOM
M  V30 1 C -0.095500 -1.470826 -4.780237 0
M  V30 2 C -0.958529 -1.159344 -3.576214 0 CFG=1
M  V30 3 C -1.349360 -2.400941 -2.825661 0 CFG=2
M  V30 4 C -2.326423 -1.895152 -1.759300 0
M  V30 5 C -1.534072 -1.065738 -0.817601 0 CFG=2
M  V30 6 O -0.746344 -1.853942 -0.021969 0
M  V30 7 C -1.381202 -2.747555 0.816579 0 CFG=2
M  V30 8 C -2.383736 -2.164830 1.723432 0
M  V30 9 C -3.209082 -1.068986 1.085111 0
M  V30 10 C -2.403380 -0.237416 0.123658 0
M  V30 11 C -1.440057 0.577663 0.959366 0
M  V30 12 C -3.294359 0.716757 -0.626629 0
M  V30 13 C -0.214997 -3.321485 1.664298 0
M  V30 14 C 0.879676 -3.508118 0.649103 0
M  V30 15 O 1.536772 -2.455214 0.425749 0
M  V30 16 O 1.238087 -4.638423 -0.047657 0
M  V30 17 C 2.307999 -4.582092 -1.015099 0 CFG=1
M  V30 18 C 3.331447 -5.636707 -0.767231 0
M  V30 19 O 3.930213 -5.539746 0.480744 0
M  V30 20 C 1.598368 -4.931262 -2.343767 0
M  V30 21 C 0.473541 -4.018992 -2.596402 0
M  V30 22 O -0.102067 -4.400650 -3.628404 0
M  V30 23 O -0.228189 -2.901290 -2.165856 0
M  V30 24 O -0.713928 -0.136518 -1.393768 0
M  V30 25 C -0.314366 -0.201787 -2.661322 0 CFG=2
M  V30 26 C -0.559230 1.203445 -3.249332 0
M  V30 27 C 0.117783 2.242986 -2.334974 0
M  V30 28 C -0.102896 3.625428 -2.844524 0
M  V30 29 C 0.559623 4.667433 -1.993717 0
M  V30 30 C 0.103980 4.625938 -0.609932 0
M  V30 31 C -1.038463 5.357542 -0.328119 0
M  V30 32 C -1.651673 5.358622 0.917972 0
M  V30 33 C -1.120740 4.606322 1.941602 0
M  V30 34 C 0.015800 3.861790 1.716755 0
M  V30 35 C 0.620777 3.101718 2.705032 0
M  V30 36 C 1.773187 2.384959 2.469149 0
M  V30 37 O 2.401193 1.606318 3.459395 0
M  V30 38 C 3.583787 0.883536 3.179187 0
M  V30 39 C 4.050776 0.134502 4.376282 0
M  V30 40 C 3.558422 -1.143050 4.521393 0
M  V30 41 C 3.846128 -2.017421 5.538095 0
M  V30 42 C 4.721003 -1.537339 6.496442 0
M  V30 43 C 5.264695 -0.249663 6.419631 0
M  V30 44 C 4.912128 0.571490 5.344083 0
M  V30 45 C 2.348602 2.426414 1.196557 0
M  V30 46 C 1.721603 3.184163 0.256297 0
M  V30 47 C 0.568851 3.908723 0.460117 0
M  V30 48 H 0.046337 -0.500176 -5.325734 0
M  V30 49 H -0.626154 -2.138558 -5.490434 0
M  V30 50 H 0.897363 -1.827557 -4.508387 0
M  V30 51 H -1.918679 -0.692175 -3.930378 0
M  V30 52 H -1.845237 -3.152904 -3.478130 0
M  V30 53 H -2.814806 -2.735639 -1.240094 0
M  V30 54 H -3.109099 -1.373866 -2.317548 0
M  V30 55 H -1.732883 -3.618655 0.230951 0
M  V30 56 H -3.102639 -2.958635 2.033381 0
M  V30 57 H -1.965691 -1.767541 2.677152 0
M  V30 58 H -3.613969 -0.380720 1.850765 0
M  V30 59 H -4.077485 -1.468765 0.525870 0
M  V30 60 H -0.374790 0.314358 0.757454 0
M  V30 61 H -1.544582 1.645755 0.688632 0
M  V30 62 H -1.673260 0.523250 2.043324 0
M  V30 63 H -3.874633 0.275441 -1.439654 0
M  V30 64 H -2.714157 1.566813 -1.055882 0
M  V30 65 H -4.024293 1.165290 0.083489 0
M  V30 66 H 0.052058 -2.569240 2.402254 0
M  V30 67 H -0.550278 -4.253259 2.110591 0
M  V30 68 H 2.690270 -3.549162 -1.031510 0
M  V30 69 H 2.834489 -6.637139 -0.819334 0
M  V30 70 H 4.123648 -5.531597 -1.534949 0
M  V30 71 H 3.318792 -5.399835 1.229108 0
M  V30 72 H 1.293101 -5.994084 -2.328755 0
M  V30 73 H 2.361855 -4.813598 -3.130050 0
M  V30 74 H 0.785964 -0.326499 -2.715071 0
M  V30 75 H -1.636537 1.462609 -3.236804 0
M  V30 76 H -0.211674 1.285073 -4.290883 0
M  V30 77 H -0.327898 2.067292 -1.332771 0
M  V30 78 H 1.174170 1.972148 -2.343969 0
M  V30 79 H 0.342066 3.654236 -3.887059 0
M  V30 80 H -1.193121 3.848742 -2.994897 0
M  V30 81 H 1.659283 4.503184 -2.109895 0
M  V30 82 H 0.305269 5.673211 -2.442460 0
M  V30 83 H -1.526747 5.978711 -1.067627 0
M  V30 84 H -2.544917 5.925876 1.153225 0
M  V30 85 H -1.549319 4.560192 2.935585 0
M  V30 86 H 0.178156 3.063834 3.701374 0
M  V30 87 H 3.364762 0.190106 2.345384 0
M  V30 88 H 4.369970 1.611213 2.844513 0
M  V30 89 H 2.862736 -1.557677 3.781655 0
M  V30 90 H 3.427386 -3.010178 5.600778 0
M  V30 91 H 5.007204 -2.157903 7.338909 0
M  V30 92 H 5.947875 0.161478 7.143073 0
M  V30 93 H 5.292751 1.577243 5.218980 0
M  V30 94 H 3.243171 1.858638 1.050461 0
M  V30 95 H 2.226278 3.197910 -0.690160 0
M  V30 END ATOM
M  V30 BEGIN BOND
M  V30 1 1 1 2
M  V30 2 1 2 3
M  V30 3 1 3 4
M  V30 4 1 4 5
M  V30 5 1 5 6
M  V30 6 1 6 7
M  V30 7 1 7 8
M  V30 8 1 8 9
M  V30 9 1 9 10
M  V30 10 1 10 11
M  V30 11 1 10 12
M  V30 12 1 7 13
M  V30 13 1 13 14
M  V30 14 2 14 15
M  V30 15 1 14 16
M  V30 16 1 16 17
M  V30 17 1 17 18
M  V30 18 1 18 19
M  V30 19 1 17 20
M  V30 20 1 20 21
M  V30 21 2 21 22
M  V30 22 1 21 23
M  V30 23 1 5 24 CFG=3
M  V30 24 1 24 25
M  V30 25 1 25 26
M  V30 26 1 26 27
M  V30 27 1 27 28
M  V30 28 1 28 29
M  V30 29 1 29 30
M  V30 30 2 30 31
M  V30 31 1 31 32
M  V30 32 2 32 33
M  V30 33 1 33 34
M  V30 34 2 34 35
M  V30 35 1 35 36
M  V30 36 1 36 37
M  V30 37 1 37 38
M  V30 38 1 38 39
M  V30 39 2 39 40
M  V30 40 1 40 41
M  V30 41 2 41 42
M  V30 42 1 42 43
M  V30 43 2 43 44
M  V30 44 2 36 45
M  V30 45 1 45 46
M  V30 46 2 46 47
M  V30 47 1 25 2
M  V30 48 1 47 30
M  V30 49 1 23 3
M  V30 50 1 47 34
M  V30 51 1 10 5
M  V30 52 1 44 39
M  V30 53 1 1 48
M  V30 54 1 1 49
M  V30 55 1 1 50
M  V30 56 1 2 51 CFG=3
M  V30 57 1 3 52 CFG=3
M  V30 58 1 4 53
M  V30 59 1 4 54
M  V30 60 1 7 55 CFG=3
M  V30 61 1 8 56
M  V30 62 1 8 57
M  V30 63 1 9 58
M  V30 64 1 9 59
M  V30 65 1 11 60
M  V30 66 1 11 61
M  V30 67 1 11 62
M  V30 68 1 12 63
M  V30 69 1 12 64
M  V30 70 1 12 65
M  V30 71 1 13 66
M  V30 72 1 13 67
M  V30 73 1 17 68 CFG=3
M  V30 74 1 18 69
M  V30 75 1 18 70
M  V30 76 1 19 71
M  V30 77 1 20 72
M  V30 78 1 20 73
M  V30 79 1 25 74 CFG=1
M  V30 80 1 26 75
M  V30 81 1 26 76
M  V30 82 1 27 77
M  V30 83 1 27 78
M  V30 84 1 28 79
M  V30 85 1 28 80
M  V30 86 1 29 81
M  V30 87 1 29 82
M  V30 88 1 31 83
M  V30 89 1 32 84
M  V30 90 1 33 85
M  V30 91 1 35 86
M  V30 92 1 38 87
M  V30 93 1 38 88
M  V30 94 1 40 89
M  V30 95 1 41 90
M  V30 96 1 42 91
M  V30 97 1 43 92
M  V30 98 1 44 93
M  V30 99 1 45 94
M  V30 100 1 46 95
M  V30 END BOND
M  V30 END CTAB
M  END
>  <Dataset>  (92) 
ChEMBL_Kinases

>  <Ligand_Instance>  (92) 
nan

>  <PDB_ID>  (92) 
nan

>  <Standardized_SMILES>  (92) 
C[C@H]1[C@@H]2C[C@@]3(O[C@H](CCC3(C)C)CC(=O)O[C@@H](CO)CC(=O)O2)O[C@@H]1CCCCc1cccc2cc(OCc3ccccc3)ccc12

>  <Name>  (92) 
nan

>  <Pocket>  (92) 
nan

>  <ATP_Site>  (92) 
nan

>  <Peripheral>  (92) 
nan

>  <Num_H_Atoms_ProtBoundConf>  (92) 
nan

>  <Num_Resolved_Atoms>  (92) 
nan

>  <Num_Not_Resolved_Atoms>  (92) 
nan

$$$$
CHEMBL1928678
     RDKit          3D

  0  0  0  0  0  0  0  0  0  0999 V3000
M  V30 BEGIN CTAB
M  V30 COUNTS 39 42 0 0 0
M  V30 BEGIN ATOM
M  V30 1 N 1.143664 -6.811059 -0.245643 0
M  V30 2 C 1.179527 -5.651490 -0.231226 0
M  V30 3 C 1.223413 -4.229413 -0.191237 0
M  V30 4 C 0.162949 -3.477775 0.315553 0
M  V30 5 C 0.256188 -2.103475 0.331172 0
M  V30 6 C 1.370142 -1.465346 -0.142040 0
M  V30 7 C 2.405978 -2.198244 -0.636333 0
M  V30 8 C 2.345297 -3.576348 -0.666653 0
M  V30 9 N 3.373125 -1.346618 -1.024229 0
M  V30 10 C 2.979773 -0.081195 -0.789599 0
M  V30 11 N 3.499738 1.143997 -0.952217 0
M  V30 12 C 2.830289 2.275345 -0.593659 0
M  V30 13 N 1.581921 2.182121 -0.047253 0
M  V30 14 C 1.021049 0.951907 0.132431 0
M  V30 15 N -0.290244 1.076569 0.662956 0
M  V30 16 C -1.458394 0.880412 -0.193443 0
M  V30 17 C -2.700856 1.116224 0.628486 0
M  V30 18 O -2.491279 1.810507 1.777961 0
M  V30 19 C -1.563381 1.354773 2.658141 0
M  V30 20 C -1.976897 -0.009093 3.169416 0
M  V30 21 N -0.998308 -0.527901 4.124633 0
M  V30 22 C -0.201645 1.403355 2.068965 0
M  V30 23 C 1.722733 -0.163893 -0.237581 0
M  V30 24 H -0.675897 -4.070520 0.666821 0
M  V30 25 H -0.625007 -1.662435 0.756578 0
M  V30 26 H 3.180644 -4.140538 -1.064494 0
M  V30 27 H 4.323548 -1.551584 -1.455098 0
M  V30 28 H 3.293926 3.252845 -0.744271 0
M  V30 29 H -1.474228 -0.052557 -0.746202 0
M  V30 30 H -1.475610 1.687456 -0.990827 0
M  V30 31 H -3.131486 0.124939 0.874414 0
M  V30 32 H -3.492181 1.593674 -0.023205 0
M  V30 33 H -1.643120 2.023929 3.574147 0
M  V30 34 H -2.123281 -0.753263 2.381614 0
M  V30 35 H -2.920020 0.122103 3.739793 0
M  V30 36 H -0.421762 -1.248026 3.641066 0
M  V30 37 H -0.346940 0.202178 4.475345 0
M  V30 38 H 0.147947 2.464988 2.136270 0
M  V30 39 H 0.555647 0.812647 2.605563 0
M  V30 END ATOM
M  V30 BEGIN BOND
M  V30 1 3 1 2
M  V30 2 1 2 3
M  V30 3 2 3 4
M  V30 4 1 4 5
M  V30 5 2 5 6
M  V30 6 1 6 7
M  V30 7 2 7 8
M  V30 8 1 7 9
M  V30 9 1 9 10
M  V30 10 2 10 11
M  V30 11 1 11 12
M  V30 12 2 12 13
M  V30 13 1 13 14
M  V30 14 1 14 15
M  V30 15 1 15 16
M  V30 16 1 16 17
M  V30 17 1 17 18
M  V30 18 1 18 19
M  V30 19 1 19 20
M  V30 20 1 20 21
M  V30 21 1 19 22
M  V30 22 2 14 23
M  V30 23 1 8 3
M  V30 24 1 23 10
M  V30 25 1 23 6
M  V30 26 1 22 15
M  V30 27 1 4 24
M  V30 28 1 5 25
M  V30 29 1 8 26
M  V30 30 1 9 27
M  V30 31 1 12 28
M  V30 32 1 16 29
M  V30 33 1 16 30
M  V30 34 1 17 31
M  V30 35 1 17 32
M  V30 36 1 19 33
M  V30 37 1 20 34
M  V30 38 1 20 35
M  V30 39 1 21 36
M  V30 40 1 21 37
M  V30 41 1 22 38
M  V30 42 1 22 39
M  V30 END BOND
M  V30 END CTAB
M  END
>  <Dataset>  (93) 
ChEMBL_Kinases

>  <Ligand_Instance>  (93) 
nan

>  <PDB_ID>  (93) 
nan

>  <Standardized_SMILES>  (93) 
N#Cc1ccc2c(c1)[nH]c1ncnc(N3CCOC(CN)C3)c12

>  <Name>  (93) 
nan

>  <Pocket>  (93) 
nan

>  <ATP_Site>  (93) 
nan

>  <Peripheral>  (93) 
nan

>  <Num_H_Atoms_ProtBoundConf>  (93) 
nan

>  <Num_Resolved_Atoms>  (93) 
nan

>  <Num_Not_Resolved_Atoms>  (93) 
nan

$$$$
CHEMBL1915444
     RDKit          3D

  0  0  0  0  0  0  0  0  0  0999 V3000
M  V30 BEGIN CTAB
M  V30 COUNTS 40 44 0 0 0
M  V30 BEGIN ATOM
M  V30 1 F 1.774581 -6.527649 -0.452099 0
M  V30 2 C 1.048132 -5.377569 -0.272988 0
M  V30 3 C -0.179208 -5.487371 0.336967 0
M  V30 4 C -0.843174 -4.268797 0.474057 0
M  V30 5 C -0.353132 -3.049411 0.052957 0
M  V30 6 N -1.113278 -1.835231 0.243881 0
M  V30 7 C -0.627802 -0.715294 0.971826 0
M  V30 8 N -0.140150 0.282096 0.214497 0
M  V30 9 C 0.372250 1.397813 0.747963 0
M  V30 10 C 0.863571 2.386489 -0.079366 0
M  V30 11 C 0.840648 2.328810 -1.531310 0
M  V30 12 N 1.356839 3.235936 -2.369895 0
M  V30 13 N 1.187192 2.901723 -3.623906 0
M  V30 14 C 0.521405 1.703346 -3.674348 0
M  V30 15 N 0.342980 1.414219 -2.372530 0
M  V30 16 C 1.393478 3.520707 0.508123 0
M  V30 17 C 1.443974 3.693005 1.868596 0
M  V30 18 C 0.949669 2.704470 2.718850 0
M  V30 19 C 0.436246 1.601046 2.113902 0
M  V30 20 C -0.062768 0.580917 2.888522 0
M  V30 21 C -0.061608 0.662080 4.257020 0
M  V30 22 N -0.551233 -0.330581 5.020545 0
M  V30 23 C -1.066065 -1.451436 4.465948 0
M  V30 24 C -1.093944 -1.586637 3.093232 0
M  V30 25 C -0.588394 -0.561503 2.338161 0
M  V30 26 C 0.894993 -3.055130 -0.549693 0
M  V30 27 Cl 1.626820 -1.582566 -1.112928 0
M  V30 28 C 1.630775 -4.214457 -0.730751 0
M  V30 29 H -0.595466 -6.417158 0.678398 0
M  V30 30 H -1.825761 -4.253900 0.949198 0
M  V30 31 H -2.091298 -1.623969 -0.117400 0
M  V30 32 H 0.219945 1.135399 -4.542395 0
M  V30 33 H -0.153886 0.539996 -2.122358 0
M  V30 34 H 1.788042 4.310776 -0.109081 0
M  V30 35 H 1.866556 4.594221 2.280351 0
M  V30 36 H 1.022119 2.905589 3.765255 0
M  V30 37 H 0.310071 1.483492 4.841471 0
M  V30 38 H -1.451642 -2.227462 5.114468 0
M  V30 39 H -1.501179 -2.469291 2.628996 0
M  V30 40 H 2.613180 -4.195162 -1.206308 0
M  V30 END ATOM
M  V30 BEGIN BOND
M  V30 1 1 1 2
M  V30 2 2 2 3
M  V30 3 1 3 4
M  V30 4 2 4 5
M  V30 5 1 5 6
M  V30 6 1 6 7
M  V30 7 2 7 8
M  V30 8 1 8 9
M  V30 9 2 9 10
M  V30 10 1 10 11
M  V30 11 2 11 12
M  V30 12 1 12 13
M  V30 13 2 13 14
M  V30 14 1 14 15
M  V30 15 1 10 16
M  V30 16 2 16 17
M  V30 17 1 17 18
M  V30 18 2 18 19
M  V30 19 1 19 20
M  V30 20 2 20 21
M  V30 21 1 21 22
M  V30 22 2 22 23
M  V30 23 1 23 24
M  V30 24 2 24 25
M  V30 25 1 5 26
M  V30 26 1 26 27
M  V30 27 2 26 28
M  V30 28 1 28 2
M  V30 29 1 25 7
M  V30 30 1 19 9
M  V30 31 1 25 20
M  V30 32 1 15 11
M  V30 33 1 3 29
M  V30 34 1 4 30
M  V30 35 1 6 31
M  V30 36 1 14 32
M  V30 37 1 15 33
M  V30 38 1 16 34
M  V30 39 1 17 35
M  V30 40 1 18 36
M  V30 41 1 21 37
M  V30 42 1 23 38
M  V30 43 1 24 39
M  V30 44 1 28 40
M  V30 END BOND
M  V30 END CTAB
M  END
>  <Dataset>  (94) 
ChEMBL_Kinases

>  <Ligand_Instance>  (94) 
nan

>  <PDB_ID>  (94) 
nan

>  <Standardized_SMILES>  (94) 
Fc1ccc(Nc2nc3c(-c4nnc[nH]4)cccc3c3cnccc23)c(Cl)c1

>  <Name>  (94) 
nan

>  <Pocket>  (94) 
nan

>  <ATP_Site>  (94) 
nan

>  <Peripheral>  (94) 
nan

>  <Num_H_Atoms_ProtBoundConf>  (94) 
nan

>  <Num_Resolved_Atoms>  (94) 
nan

>  <Num_Not_Resolved_Atoms>  (94) 
nan

$$$$
CHEMBL1915443
     RDKit          3D

  0  0  0  0  0  0  0  0  0  0999 V3000
M  V30 BEGIN CTAB
M  V30 COUNTS 43 47 0 0 0
M  V30 BEGIN ATOM
M  V30 1 C 0.313551 -3.076824 2.850395 0
M  V30 2 C 1.184908 -2.070538 3.469406 0
M  V30 3 C 1.250549 -1.711322 4.791748 0
M  V30 4 C 2.100928 -0.754641 5.304749 0
M  V30 5 C 2.928054 -0.145807 4.357837 0
M  V30 6 C 2.890356 -0.480462 3.020753 0
M  V30 7 C 2.004936 -1.462892 2.546167 0
M  V30 8 N 2.168031 -1.600191 1.139092 0
M  V30 9 C 1.085441 -1.367038 0.244208 0
M  V30 10 N 0.704539 -0.056451 0.211142 0
M  V30 11 C -0.316465 0.349620 -0.601613 0
M  V30 12 C -0.652753 1.694164 -0.583736 0
M  V30 13 C 0.056113 2.632327 0.278388 0
M  V30 14 N 1.061005 2.313360 1.107431 0
M  V30 15 N 1.450502 3.424343 1.728939 0
M  V30 16 C 0.720288 4.479086 1.326789 0
M  V30 17 N -0.129564 3.953679 0.432316 0
M  V30 18 C -1.683883 2.094894 -1.404771 0
M  V30 19 C -2.374328 1.205248 -2.227387 0
M  V30 20 C -2.005970 -0.139015 -2.216500 0
M  V30 21 C -0.979563 -0.555156 -1.402776 0
M  V30 22 C -0.606866 -1.870846 -1.378981 0
M  V30 23 C -1.245730 -2.797418 -2.166360 0
M  V30 24 N -0.836096 -4.084650 -2.105648 0
M  V30 25 C 0.182054 -4.459858 -1.288083 0
M  V30 26 C 0.870151 -3.567524 -0.465024 0
M  V30 27 C 0.422657 -2.273795 -0.557339 0
M  V30 28 H 0.868672 -3.935959 2.424623 0
M  V30 29 H -0.288910 -3.517053 3.699533 0
M  V30 30 H -0.451391 -2.651340 2.173152 0
M  V30 31 H 0.560440 -2.254035 5.423103 0
M  V30 32 H 2.100386 -0.521768 6.356854 0
M  V30 33 H 3.601482 0.611825 4.766935 0
M  V30 34 H 3.609431 0.100628 2.429671 0
M  V30 35 H 3.084164 -1.877040 0.702679 0
M  V30 36 H 0.829429 5.495773 1.673283 0
M  V30 37 H -0.861701 4.469478 -0.102276 0
M  V30 38 H -1.962694 3.135311 -1.407099 0
M  V30 39 H -3.176276 1.616496 -2.842521 0
M  V30 40 H -2.581699 -0.759985 -2.871911 0
M  V30 41 H -2.056580 -2.601631 -2.841980 0
M  V30 42 H 0.463223 -5.506374 -1.284993 0
M  V30 43 H 1.674150 -3.855999 0.178597 0
M  V30 END ATOM
M  V30 BEGIN BOND
M  V30 1 1 1 2
M  V30 2 2 2 3
M  V30 3 1 3 4
M  V30 4 2 4 5
M  V30 5 1 5 6
M  V30 6 2 6 7
M  V30 7 1 7 8
M  V30 8 1 8 9
M  V30 9 2 9 10
M  V30 10 1 10 11
M  V30 11 2 11 12
M  V30 12 1 12 13
M  V30 13 2 13 14
M  V30 14 1 14 15
M  V30 15 2 15 16
M  V30 16 1 16 17
M  V30 17 1 12 18
M  V30 18 2 18 19
M  V30 19 1 19 20
M  V30 20 2 20 21
M  V30 21 1 21 22
M  V30 22 2 22 23
M  V30 23 1 23 24
M  V30 24 2 24 25
M  V30 25 1 25 26
M  V30 26 2 26 27
M  V30 27 1 7 2
M  V30 28 1 27 9
M  V30 29 1 21 11
M  V30 30 1 27 22
M  V30 31 1 17 13
M  V30 32 1 1 28
M  V30 33 1 1 29
M  V30 34 1 1 30
M  V30 35 1 3 31
M  V30 36 1 4 32
M  V30 37 1 5 33
M  V30 38 1 6 34
M  V30 39 1 8 35
M  V30 40 1 16 36
M  V30 41 1 17 37
M  V30 42 1 18 38
M  V30 43 1 19 39
M  V30 44 1 20 40
M  V30 45 1 23 41
M  V30 46 1 25 42
M  V30 47 1 26 43
M  V30 END BOND
M  V30 END CTAB
M  END
>  <Dataset>  (95) 
ChEMBL_Kinases

>  <Ligand_Instance>  (95) 
nan

>  <PDB_ID>  (95) 
nan

>  <Standardized_SMILES>  (95) 
Cc1ccccc1Nc1nc2c(-c3nnc[nH]3)cccc2c2cnccc12

>  <Name>  (95) 
nan

>  <Pocket>  (95) 
nan

>  <ATP_Site>  (95) 
nan

>  <Peripheral>  (95) 
nan

>  <Num_H_Atoms_ProtBoundConf>  (95) 
nan

>  <Num_Resolved_Atoms>  (95) 
nan

>  <Num_Not_Resolved_Atoms>  (95) 
nan

$$$$
CHEMBL1915442
     RDKit          3D

  0  0  0  0  0  0  0  0  0  0999 V3000
M  V30 BEGIN CTAB
M  V30 COUNTS 40 44 0 0 0
M  V30 BEGIN ATOM
M  V30 1 F 3.016608 -3.441008 2.108601 0
M  V30 2 C 2.583372 -2.699559 3.153777 0
M  V30 3 C 3.042188 -2.698398 4.448751 0
M  V30 4 C 2.438049 -1.848427 5.384676 0
M  V30 5 C 1.396069 -0.996356 5.090536 0
M  V30 6 C 0.979393 -1.050475 3.751131 0
M  V30 7 C 1.555208 -1.887012 2.779030 0
M  V30 8 N 0.828896 -1.594877 1.657384 0
M  V30 9 C 0.038743 -1.226992 0.601828 0
M  V30 10 N 0.306387 0.010466 0.160573 0
M  V30 11 C -0.353760 0.611523 -0.842902 0
M  V30 12 C -0.023443 1.908360 -1.237692 0
M  V30 13 C 1.039227 2.670477 -0.601221 0
M  V30 14 N 1.359154 3.930441 -0.932202 0
M  V30 15 N 2.351764 4.370646 -0.184049 0
M  V30 16 C 2.713519 3.415340 0.659044 0
M  V30 17 N 1.899351 2.370855 0.392846 0
M  V30 18 C -0.767760 2.410478 -2.255068 0
M  V30 19 C -1.789170 1.719495 -2.881360 0
M  V30 20 C -2.064709 0.421363 -2.431365 0
M  V30 21 C -1.351419 -0.141757 -1.410199 0
M  V30 22 C -1.696618 -1.411425 -1.029275 0
M  V30 23 C -2.685777 -2.130318 -1.607635 0
M  V30 24 N -2.957203 -3.383276 -1.162421 0
M  V30 25 C -2.226650 -3.901892 -0.136989 0
M  V30 26 C -1.206673 -3.222024 0.495023 0
M  V30 27 C -0.973151 -1.951179 0.003813 0
M  V30 28 H 3.845849 -3.383333 4.595133 0
M  V30 29 H 2.927635 -1.985125 6.331587 0
M  V30 30 H 1.057596 -0.417248 5.925102 0
M  V30 31 H 0.144596 -0.309465 3.710248 0
M  V30 32 H 1.389013 -2.237101 0.996662 0
M  V30 33 H 3.497938 3.390215 1.437251 0
M  V30 34 H 1.951408 1.472440 0.896300 0
M  V30 35 H -0.507374 3.430927 -2.569791 0
M  V30 36 H -2.330382 2.217834 -3.696160 0
M  V30 37 H -2.875997 -0.005630 -2.995570 0
M  V30 38 H -3.293766 -1.782736 -2.417060 0
M  V30 39 H -2.436401 -4.897266 0.220121 0
M  V30 40 H -0.618228 -3.596425 1.297372 0
M  V30 END ATOM
M  V30 BEGIN BOND
M  V30 1 1 1 2
M  V30 2 2 2 3
M  V30 3 1 3 4
M  V30 4 2 4 5
M  V30 5 1 5 6
M  V30 6 2 6 7
M  V30 7 1 7 8
M  V30 8 1 8 9
M  V30 9 2 9 10
M  V30 10 1 10 11
M  V30 11 2 11 12
M  V30 12 1 12 13
M  V30 13 2 13 14
M  V30 14 1 14 15
M  V30 15 2 15 16
M  V30 16 1 16 17
M  V30 17 1 12 18
M  V30 18 2 18 19
M  V30 19 1 19 20
M  V30 20 2 20 21
M  V30 21 1 21 22
M  V30 22 2 22 23
M  V30 23 1 23 24
M  V30 24 2 24 25
M  V30 25 1 25 26
M  V30 26 2 26 27
M  V30 27 1 7 2
M  V30 28 1 27 9
M  V30 29 1 21 11
M  V30 30 1 27 22
M  V30 31 1 17 13
M  V30 32 1 3 28
M  V30 33 1 4 29
M  V30 34 1 5 30
M  V30 35 1 6 31
M  V30 36 1 8 32
M  V30 37 1 16 33
M  V30 38 1 17 34
M  V30 39 1 18 35
M  V30 40 1 19 36
M  V30 41 1 20 37
M  V30 42 1 23 38
M  V30 43 1 25 39
M  V30 44 1 26 40
M  V30 END BOND
M  V30 END CTAB
M  END
>  <Dataset>  (96) 
ChEMBL_Kinases

>  <Ligand_Instance>  (96) 
nan

>  <PDB_ID>  (96) 
nan

>  <Standardized_SMILES>  (96) 
Fc1ccccc1Nc1nc2c(-c3nnc[nH]3)cccc2c2cnccc12

>  <Name>  (96) 
nan

>  <Pocket>  (96) 
nan

>  <ATP_Site>  (96) 
nan

>  <Peripheral>  (96) 
nan

>  <Num_H_Atoms_ProtBoundConf>  (96) 
nan

>  <Num_Resolved_Atoms>  (96) 
nan

>  <Num_Not_Resolved_Atoms>  (96) 
nan

$$$$
CHEMBL1915441
     RDKit          3D

  0  0  0  0  0  0  0  0  0  0999 V3000
M  V30 BEGIN CTAB
M  V30 COUNTS 40 44 0 0 0
M  V30 BEGIN ATOM
M  V30 1 F 2.512737 -5.991943 -0.548730 0
M  V30 2 C 1.604131 -5.057763 -0.181554 0
M  V30 3 C 0.263122 -5.362252 -0.018207 0
M  V30 4 C -0.668017 -4.415803 0.356931 0
M  V30 5 C -0.285999 -3.090110 0.588878 0
M  V30 6 N -1.206705 -2.071797 0.981821 0
M  V30 7 C -0.604948 -0.769593 1.141800 0
M  V30 8 N -0.552517 0.230843 0.251074 0
M  V30 9 C 0.063672 1.388063 0.544350 0
M  V30 10 C 0.083281 2.373409 -0.417016 0
M  V30 11 C -0.499629 2.289435 -1.744141 0
M  V30 12 N -0.495315 3.242496 -2.673307 0
M  V30 13 N -1.107550 2.843658 -3.770628 0
M  V30 14 C -1.538979 1.581950 -3.574736 0
M  V30 15 N -1.155752 1.263814 -2.328547 0
M  V30 16 C 0.734102 3.559451 -0.076575 0
M  V30 17 C 1.330388 3.750116 1.151403 0
M  V30 18 C 1.278203 2.719534 2.080131 0
M  V30 19 C 0.647295 1.533326 1.787275 0
M  V30 20 C 0.611886 0.528520 2.723691 0
M  V30 21 C 1.201096 0.712180 3.935456 0
M  V30 22 N 1.162848 -0.277514 4.839288 0
M  V30 23 C 0.565357 -1.451791 4.605015 0
M  V30 24 C -0.023424 -1.619686 3.381748 0
M  V30 25 C -0.023123 -0.637910 2.394880 0
M  V30 26 C 1.061618 -2.868156 0.404478 0
M  V30 27 C 2.046876 -3.746943 0.037148 0
M  V30 28 H -0.021874 -6.408771 -0.202705 0
M  V30 29 H -1.709419 -4.677120 0.478340 0
M  V30 30 H -2.207968 -2.398664 1.108230 0
M  V30 31 H -2.064478 1.110692 -4.386710 0
M  V30 32 H -1.371943 0.330103 -1.937626 0
M  V30 33 H 0.778320 4.381385 -0.808642 0
M  V30 34 H 1.814500 4.707265 1.331758 0
M  V30 35 H 1.772049 2.979581 2.995857 0
M  V30 36 H 1.720647 1.577912 4.294294 0
M  V30 37 H 0.510369 -2.272818 5.305667 0
M  V30 38 H -0.518609 -2.549667 3.151853 0
M  V30 39 H 1.419208 -1.843030 0.575250 0
M  V30 40 H 3.078024 -3.440848 -0.071662 0
M  V30 END ATOM
M  V30 BEGIN BOND
M  V30 1 1 1 2
M  V30 2 2 2 3
M  V30 3 1 3 4
M  V30 4 2 4 5
M  V30 5 1 5 6
M  V30 6 1 6 7
M  V30 7 2 7 8
M  V30 8 1 8 9
M  V30 9 2 9 10
M  V30 10 1 10 11
M  V30 11 2 11 12
M  V30 12 1 12 13
M  V30 13 2 13 14
M  V30 14 1 14 15
M  V30 15 1 10 16
M  V30 16 2 16 17
M  V30 17 1 17 18
M  V30 18 2 18 19
M  V30 19 1 19 20
M  V30 20 2 20 21
M  V30 21 1 21 22
M  V30 22 2 22 23
M  V30 23 1 23 24
M  V30 24 2 24 25
M  V30 25 1 5 26
M  V30 26 2 26 27
M  V30 27 1 27 2
M  V30 28 1 25 7
M  V30 29 1 19 9
M  V30 30 1 25 20
M  V30 31 1 15 11
M  V30 32 1 3 28
M  V30 33 1 4 29
M  V30 34 1 6 30
M  V30 35 1 14 31
M  V30 36 1 15 32
M  V30 37 1 16 33
M  V30 38 1 17 34
M  V30 39 1 18 35
M  V30 40 1 21 36
M  V30 41 1 23 37
M  V30 42 1 24 38
M  V30 43 1 26 39
M  V30 44 1 27 40
M  V30 END BOND
M  V30 END CTAB
M  END
>  <Dataset>  (97) 
ChEMBL_Kinases

>  <Ligand_Instance>  (97) 
nan

>  <PDB_ID>  (97) 
nan

>  <Standardized_SMILES>  (97) 
Fc1ccc(Nc2nc3c(-c4nnc[nH]4)cccc3c3cnccc23)cc1

>  <Name>  (97) 
nan

>  <Pocket>  (97) 
nan

>  <ATP_Site>  (97) 
nan

>  <Peripheral>  (97) 
nan

>  <Num_H_Atoms_ProtBoundConf>  (97) 
nan

>  <Num_Resolved_Atoms>  (97) 
nan

>  <Num_Not_Resolved_Atoms>  (97) 
nan

$$$$
CHEMBL1915440
     RDKit          3D

  0  0  0  0  0  0  0  0  0  0999 V3000
M  V30 BEGIN CTAB
M  V30 COUNTS 40 44 0 0 0
M  V30 BEGIN ATOM
M  V30 1 F 0.190950 -6.262213 -1.614270 0
M  V30 2 C 0.506578 -5.106835 -0.957297 0
M  V30 3 C 1.810700 -4.924411 -0.537931 0
M  V30 4 C 2.144121 -3.750619 0.132730 0
M  V30 5 C 1.165101 -2.788777 0.367174 0
M  V30 6 C -0.142761 -2.949481 -0.042274 0
M  V30 7 N -1.133154 -1.958065 0.204125 0
M  V30 8 C -0.689649 -0.782767 0.903047 0
M  V30 9 N -0.229675 0.267696 0.205119 0
M  V30 10 C 0.189254 1.374332 0.835913 0
M  V30 11 C 0.651023 2.422245 0.078652 0
M  V30 12 C 0.728059 2.439994 -1.374042 0
M  V30 13 N 1.179866 3.465352 -2.116157 0
M  V30 14 N 1.129801 3.189286 -3.405448 0
M  V30 15 C 0.631804 1.947625 -3.528742 0
M  V30 16 N 0.393654 1.508578 -2.281236 0
M  V30 17 C 1.065149 3.526895 0.792209 0
M  V30 18 C 1.028746 3.600017 2.167554 0
M  V30 19 C 0.556300 2.521100 2.885156 0
M  V30 20 C 0.132630 1.397975 2.214088 0
M  V30 21 C -0.338413 0.322120 2.927876 0
M  V30 22 C -0.391555 0.351298 4.280554 0
M  V30 23 N -0.859353 -0.722673 4.943001 0
M  V30 24 C -1.273987 -1.821668 4.287368 0
M  V30 25 C -1.251295 -1.927308 2.922382 0
M  V30 26 C -0.764791 -0.805002 2.279012 0
M  V30 27 C -0.418482 -4.127563 -0.700561 0
M  V30 28 H 2.577283 -5.670693 -0.718077 0
M  V30 29 H 3.164852 -3.612630 0.458573 0
M  V30 30 H 1.424178 -1.869043 0.892135 0
M  V30 31 H -2.100604 -2.140720 -0.130477 0
M  V30 32 H 0.486719 1.475889 -4.493333 0
M  V30 33 H 0.008511 0.580333 -2.106078 0
M  V30 34 H 1.438229 4.379482 0.230625 0
M  V30 35 H 1.379684 4.520141 2.637236 0
M  V30 36 H 0.568143 2.675553 3.943521 0
M  V30 37 H -0.093893 1.160060 4.918653 0
M  V30 38 H -1.643618 -2.662935 4.872732 0
M  V30 39 H -1.576812 -2.794001 2.374595 0
M  V30 40 H -1.439814 -4.297013 -1.042281 0
M  V30 END ATOM
M  V30 BEGIN BOND
M  V30 1 1 1 2
M  V30 2 2 2 3
M  V30 3 1 3 4
M  V30 4 2 4 5
M  V30 5 1 5 6
M  V30 6 1 6 7
M  V30 7 1 7 8
M  V30 8 2 8 9
M  V30 9 1 9 10
M  V30 10 2 10 11
M  V30 11 1 11 12
M  V30 12 2 12 13
M  V30 13 1 13 14
M  V30 14 2 14 15
M  V30 15 1 15 16
M  V30 16 1 11 17
M  V30 17 2 17 18
M  V30 18 1 18 19
M  V30 19 2 19 20
M  V30 20 1 20 21
M  V30 21 2 21 22
M  V30 22 1 22 23
M  V30 23 2 23 24
M  V30 24 1 24 25
M  V30 25 2 25 26
M  V30 26 2 6 27
M  V30 27 1 27 2
M  V30 28 1 26 8
M  V30 29 1 20 10
M  V30 30 1 26 21
M  V30 31 1 16 12
M  V30 32 1 3 28
M  V30 33 1 4 29
M  V30 34 1 5 30
M  V30 35 1 7 31
M  V30 36 1 15 32
M  V30 37 1 16 33
M  V30 38 1 17 34
M  V30 39 1 18 35
M  V30 40 1 19 36
M  V30 41 1 22 37
M  V30 42 1 24 38
M  V30 43 1 25 39
M  V30 44 1 27 40
M  V30 END BOND
M  V30 END CTAB
M  END
>  <Dataset>  (98) 
ChEMBL_Kinases

>  <Ligand_Instance>  (98) 
nan

>  <PDB_ID>  (98) 
nan

>  <Standardized_SMILES>  (98) 
Fc1cccc(Nc2nc3c(-c4nnc[nH]4)cccc3c3cnccc23)c1

>  <Name>  (98) 
nan

>  <Pocket>  (98) 
nan

>  <ATP_Site>  (98) 
nan

>  <Peripheral>  (98) 
nan

>  <Num_H_Atoms_ProtBoundConf>  (98) 
nan

>  <Num_Resolved_Atoms>  (98) 
nan

>  <Num_Not_Resolved_Atoms>  (98) 
nan

$$$$
CHEMBL1915439
     RDKit          3D

  0  0  0  0  0  0  0  0  0  0999 V3000
M  V30 BEGIN CTAB
M  V30 COUNTS 43 47 0 0 0
M  V30 BEGIN ATOM
M  V30 1 C 1.825122 -1.785844 -1.951553 0
M  V30 2 N 1.558297 -1.334637 -0.607948 0
M  V30 3 C 2.598624 -0.837026 0.183154 0
M  V30 4 C 2.824944 -1.541760 1.371474 0
M  V30 5 C 3.826192 -1.163308 2.258306 0
M  V30 6 C 4.636890 -0.078269 2.003089 0
M  V30 7 C 4.407191 0.604115 0.838124 0
M  V30 8 C 3.423696 0.252108 -0.057655 0
M  V30 9 Cl 3.122913 1.104975 -1.532417 0
M  V30 10 C 0.307779 -1.306661 0.115852 0
M  V30 11 N -0.139763 -0.111745 0.537733 0
M  V30 12 C -1.267883 0.048229 1.208144 0
M  V30 13 C -1.631539 1.321552 1.592594 0
M  V30 14 C -0.880530 2.540497 1.329017 0
M  V30 15 N -1.240351 3.754634 1.702971 0
M  V30 16 N -0.346083 4.635311 1.310485 0
M  V30 17 C 0.658741 4.007121 0.646663 0
M  V30 18 N 0.280749 2.717828 0.686253 0
M  V30 19 C -2.829085 1.393520 2.290752 0
M  V30 20 C -3.616477 0.303320 2.593054 0
M  V30 21 C -3.203853 -0.947229 2.183602 0
M  V30 22 C -2.026382 -1.066214 1.490504 0
M  V30 23 C -1.580563 -2.294370 1.065059 0
M  V30 24 C -2.318038 -3.423923 1.333545 0
M  V30 25 N -1.863904 -4.632293 0.906340 0
M  V30 26 C -0.719349 -4.754232 0.231768 0
M  V30 27 C 0.075631 -3.670383 -0.076061 0
M  V30 28 C -0.404551 -2.461475 0.366155 0
M  V30 29 H 2.098649 -0.942477 -2.651383 0
M  V30 30 H 2.572423 -2.604585 -2.009196 0
M  V30 31 H 0.903036 -2.203357 -2.436141 0
M  V30 32 H 2.249809 -2.414419 1.681147 0
M  V30 33 H 4.015342 -1.697714 3.183223 0
M  V30 34 H 5.414443 0.225526 2.679423 0
M  V30 35 H 5.038609 1.469443 0.614067 0
M  V30 36 H 1.553947 4.424068 0.189757 0
M  V30 37 H 0.872109 1.981603 0.245116 0
M  V30 38 H -3.163368 2.375846 2.618217 0
M  V30 39 H -4.537509 0.456057 3.143422 0
M  V30 40 H -3.853746 -1.745365 2.447125 0
M  V30 41 H -3.250704 -3.467243 1.863618 0
M  V30 42 H -0.415699 -5.744590 -0.078954 0
M  V30 43 H 0.999206 -3.766015 -0.619654 0
M  V30 END ATOM
M  V30 BEGIN BOND
M  V30 1 1 1 2
M  V30 2 1 2 3
M  V30 3 2 3 4
M  V30 4 1 4 5
M  V30 5 2 5 6
M  V30 6 1 6 7
M  V30 7 2 7 8
M  V30 8 1 8 9
M  V30 9 1 2 10
M  V30 10 2 10 11
M  V30 11 1 11 12
M  V30 12 2 12 13
M  V30 13 1 13 14
M  V30 14 2 14 15
M  V30 15 1 15 16
M  V30 16 2 16 17
M  V30 17 1 17 18
M  V30 18 1 13 19
M  V30 19 2 19 20
M  V30 20 1 20 21
M  V30 21 2 21 22
M  V30 22 1 22 23
M  V30 23 2 23 24
M  V30 24 1 24 25
M  V30 25 2 25 26
M  V30 26 1 26 27
M  V30 27 2 27 28
M  V30 28 1 8 3
M  V30 29 1 28 10
M  V30 30 1 22 12
M  V30 31 1 28 23
M  V30 32 1 18 14
M  V30 33 1 1 29
M  V30 34 1 1 30
M  V30 35 1 1 31
M  V30 36 1 4 32
M  V30 37 1 5 33
M  V30 38 1 6 34
M  V30 39 1 7 35
M  V30 40 1 17 36
M  V30 41 1 18 37
M  V30 42 1 19 38
M  V30 43 1 20 39
M  V30 44 1 21 40
M  V30 45 1 24 41
M  V30 46 1 26 42
M  V30 47 1 27 43
M  V30 END BOND
M  V30 END CTAB
M  END
>  <Dataset>  (99) 
ChEMBL_Kinases

>  <Ligand_Instance>  (99) 
nan

>  <PDB_ID>  (99) 
nan

>  <Standardized_SMILES>  (99) 
CN(c1ccccc1Cl)c1nc2c(-c3nnc[nH]3)cccc2c2cnccc12

>  <Name>  (99) 
nan

>  <Pocket>  (99) 
nan

>  <ATP_Site>  (99) 
nan

>  <Peripheral>  (99) 
nan

>  <Num_H_Atoms_ProtBoundConf>  (99) 
nan

>  <Num_Resolved_Atoms>  (99) 
nan

>  <Num_Not_Resolved_Atoms>  (99) 
nan

$$$$
CHEMBL1915438
     RDKit          3D

  0  0  0  0  0  0  0  0  0  0999 V3000
M  V30 BEGIN CTAB
M  V30 COUNTS 40 44 0 0 0
M  V30 BEGIN ATOM
M  V30 1 Cl -1.241009 -1.092432 4.019178 0
M  V30 2 C 0.421841 -1.650820 4.233383 0
M  V30 3 C 0.742037 -2.286697 5.400956 0
M  V30 4 C 2.053726 -2.685327 5.473001 0
M  V30 5 C 3.072079 -2.541712 4.563229 0
M  V30 6 C 2.643474 -1.889867 3.426386 0
M  V30 7 C 1.340565 -1.419690 3.195625 0
M  V30 8 N 1.008160 -0.740957 2.009592 0
M  V30 9 C 0.263755 -0.712435 0.824104 0
M  V30 10 N 0.333661 0.404682 0.078962 0
M  V30 11 C -0.292535 0.622971 -1.066386 0
M  V30 12 C -0.100428 1.850128 -1.706778 0
M  V30 13 C 0.731748 2.917575 -1.228459 0
M  V30 14 N 0.886917 4.083606 -1.867218 0
M  V30 15 N 1.726770 4.835692 -1.146380 0
M  V30 16 C 2.118918 4.176712 -0.049677 0
M  V30 17 N 1.477740 2.975951 -0.128798 0
M  V30 18 C -0.811987 1.950254 -2.897479 0
M  V30 19 C -1.636667 0.968316 -3.435332 0
M  V30 20 C -1.754130 -0.222626 -2.705981 0
M  V30 21 C -1.084599 -0.399894 -1.521254 0
M  V30 22 C -1.243481 -1.581230 -0.865432 0
M  V30 23 C -2.018266 -2.599889 -1.312611 0
M  V30 24 N -2.137467 -3.755545 -0.633317 0
M  V30 25 C -1.446726 -3.882512 0.538574 0
M  V30 26 C -0.653352 -2.860150 1.012427 0
M  V30 27 C -0.545073 -1.700480 0.316073 0
M  V30 28 H 0.067724 -2.477504 6.212025 0
M  V30 29 H 2.339853 -3.199983 6.404078 0
M  V30 30 H 4.080404 -2.885490 4.700110 0
M  V30 31 H 3.339988 -1.694565 2.594039 0
M  V30 32 H 1.630026 0.106096 2.190643 0
M  V30 33 H 2.799704 4.496916 0.748774 0
M  V30 34 H 1.614547 2.271653 0.607074 0
M  V30 35 H -0.696183 2.898297 -3.447884 0
M  V30 36 H -2.119775 1.204168 -4.371974 0
M  V30 37 H -2.410934 -0.913422 -3.202215 0
M  V30 38 H -2.580927 -2.560716 -2.220196 0
M  V30 39 H -1.584630 -4.846390 1.052139 0
M  V30 40 H -0.131989 -3.011130 1.912828 0
M  V30 END ATOM
M  V30 BEGIN BOND
M  V30 1 1 1 2
M  V30 2 2 2 3
M  V30 3 1 3 4
M  V30 4 2 4 5
M  V30 5 1 5 6
M  V30 6 2 6 7
M  V30 7 1 7 8
M  V30 8 1 8 9
M  V30 9 2 9 10
M  V30 10 1 10 11
M  V30 11 2 11 12
M  V30 12 1 12 13
M  V30 13 2 13 14
M  V30 14 1 14 15
M  V30 15 2 15 16
M  V30 16 1 16 17
M  V30 17 1 12 18
M  V30 18 2 18 19
M  V30 19 1 19 20
M  V30 20 2 20 21
M  V30 21 1 21 22
M  V30 22 2 22 23
M  V30 23 1 23 24
M  V30 24 2 24 25
M  V30 25 1 25 26
M  V30 26 2 26 27
M  V30 27 1 7 2
M  V30 28 1 27 9
M  V30 29 1 21 11
M  V30 30 1 27 22
M  V30 31 1 17 13
M  V30 32 1 3 28
M  V30 33 1 4 29
M  V30 34 1 5 30
M  V30 35 1 6 31
M  V30 36 1 8 32
M  V30 37 1 16 33
M  V30 38 1 17 34
M  V30 39 1 18 35
M  V30 40 1 19 36
M  V30 41 1 20 37
M  V30 42 1 23 38
M  V30 43 1 25 39
M  V30 44 1 26 40
M  V30 END BOND
M  V30 END CTAB
M  END
>  <Dataset>  (100) 
ChEMBL_Kinases

>  <Ligand_Instance>  (100) 
nan

>  <PDB_ID>  (100) 
nan

>  <Standardized_SMILES>  (100) 
Clc1ccccc1Nc1nc2c(-c3nnc[nH]3)cccc2c2cnccc12

>  <Name>  (100) 
nan

>  <Pocket>  (100) 
nan

>  <ATP_Site>  (100) 
nan

>  <Peripheral>  (100) 
nan

>  <Num_H_Atoms_ProtBoundConf>  (100) 
nan

>  <Num_Resolved_Atoms>  (100) 
nan

>  <Num_Not_Resolved_Atoms>  (100) 
nan

$$$$
CHEMBL1915437
     RDKit          3D

  0  0  0  0  0  0  0  0  0  0999 V3000
M  V30 BEGIN CTAB
M  V30 COUNTS 40 44 0 0 0
M  V30 BEGIN ATOM
M  V30 1 Cl 2.870172 -6.090732 -1.364310 0
M  V30 2 C 1.687117 -4.955806 -0.710126 0
M  V30 3 C 0.366218 -5.335205 -0.513480 0
M  V30 4 C -0.530545 -4.420481 -0.000555 0
M  V30 5 C -0.151638 -3.133154 0.324376 0
M  V30 6 N -1.011389 -2.123116 0.856299 0
M  V30 7 C -0.510380 -0.824525 1.191274 0
M  V30 8 N -0.434830 0.218932 0.350348 0
M  V30 9 C 0.044512 1.413369 0.726664 0
M  V30 10 C 0.081730 2.421854 -0.208859 0
M  V30 11 C -0.356109 2.316369 -1.592029 0
M  V30 12 N -0.320303 3.289511 -2.492420 0
M  V30 13 N -0.781050 2.895083 -3.650353 0
M  V30 14 C -1.144151 1.600326 -3.529286 0
M  V30 15 N -0.872957 1.275548 -2.262351 0
M  V30 16 C 0.587411 3.619012 0.254116 0
M  V30 17 C 1.027592 3.818117 1.544940 0
M  V30 18 C 0.965786 2.765492 2.442764 0
M  V30 19 C 0.471402 1.558280 2.029080 0
M  V30 20 C 0.410780 0.515069 2.920706 0
M  V30 21 C 0.833200 0.663338 4.208421 0
M  V30 22 N 0.777318 -0.359605 5.098733 0
M  V30 23 C 0.288044 -1.558134 4.692583 0
M  V30 24 C -0.146848 -1.748833 3.407537 0
M  V30 25 C -0.086273 -0.694204 2.499815 0
M  V30 26 C 1.181678 -2.829792 0.100188 0
M  V30 27 C 2.147978 -3.680012 -0.408624 0
M  V30 28 H 0.035389 -6.343778 -0.759880 0
M  V30 29 H -1.576316 -4.679369 0.168893 0
M  V30 30 H -2.005226 -2.416399 0.972591 0
M  V30 31 H -1.550385 1.086503 -4.375615 0
M  V30 32 H -1.060309 0.327464 -1.905446 0
M  V30 33 H 0.636406 4.447950 -0.452901 0
M  V30 34 H 1.405833 4.798896 1.800805 0
M  V30 35 H 1.329806 3.022057 3.414071 0
M  V30 36 H 1.230604 1.540827 4.640203 0
M  V30 37 H 0.235342 -2.387382 5.389337 0
M  V30 38 H -0.535017 -2.705471 3.091793 0
M  V30 39 H 1.505291 -1.814877 0.350075 0
M  V30 40 H 3.157594 -3.341570 -0.543547 0
M  V30 END ATOM
M  V30 BEGIN BOND
M  V30 1 1 1 2
M  V30 2 2 2 3
M  V30 3 1 3 4
M  V30 4 2 4 5
M  V30 5 1 5 6
M  V30 6 1 6 7
M  V30 7 2 7 8
M  V30 8 1 8 9
M  V30 9 2 9 10
M  V30 10 1 10 11
M  V30 11 2 11 12
M  V30 12 1 12 13
M  V30 13 2 13 14
M  V30 14 1 14 15
M  V30 15 1 10 16
M  V30 16 2 16 17
M  V30 17 1 17 18
M  V30 18 2 18 19
M  V30 19 1 19 20
M  V30 20 2 20 21
M  V30 21 1 21 22
M  V30 22 2 22 23
M  V30 23 1 23 24
M  V30 24 2 24 25
M  V30 25 1 5 26
M  V30 26 2 26 27
M  V30 27 1 27 2
M  V30 28 1 25 7
M  V30 29 1 19 9
M  V30 30 1 25 20
M  V30 31 1 15 11
M  V30 32 1 3 28
M  V30 33 1 4 29
M  V30 34 1 6 30
M  V30 35 1 14 31
M  V30 36 1 15 32
M  V30 37 1 16 33
M  V30 38 1 17 34
M  V30 39 1 18 35
M  V30 40 1 21 36
M  V30 41 1 23 37
M  V30 42 1 24 38
M  V30 43 1 26 39
M  V30 44 1 27 40
M  V30 END BOND
M  V30 END CTAB
M  END
>  <Dataset>  (101) 
ChEMBL_Kinases

>  <Ligand_Instance>  (101) 
nan

>  <PDB_ID>  (101) 
nan

>  <Standardized_SMILES>  (101) 
Clc1ccc(Nc2nc3c(-c4nnc[nH]4)cccc3c3cnccc23)cc1

>  <Name>  (101) 
nan

>  <Pocket>  (101) 
nan

>  <ATP_Site>  (101) 
nan

>  <Peripheral>  (101) 
nan

>  <Num_H_Atoms_ProtBoundConf>  (101) 
nan

>  <Num_Resolved_Atoms>  (101) 
nan

>  <Num_Not_Resolved_Atoms>  (101) 
nan

$$$$
CHEMBL1915436
     RDKit          3D

  0  0  0  0  0  0  0  0  0  0999 V3000
M  V30 BEGIN CTAB
M  V30 COUNTS 42 46 0 0 0
M  V30 BEGIN ATOM
M  V30 1 C 6.396559 -4.615421 1.111365 0
M  V30 2 C 5.595516 -3.704129 0.984400 0
M  V30 3 C 4.644654 -2.641773 0.822602 0
M  V30 4 C 4.996259 -1.378486 1.215295 0
M  V30 5 C 4.072270 -0.387895 1.049514 0
M  V30 6 C 2.842571 -0.654579 0.510295 0
M  V30 7 C 2.435326 -1.915849 0.096563 0
M  V30 8 N 1.134876 -2.117327 -0.436280 0
M  V30 9 C -0.014457 -1.355544 -0.188542 0
M  V30 10 N -0.080449 -0.364308 0.718011 0
M  V30 11 C -1.211182 0.370833 0.932708 0
M  V30 12 C -1.216088 1.372382 1.878593 0
M  V30 13 C -0.046305 1.695462 2.707220 0
M  V30 14 N 1.171373 1.144122 2.769326 0
M  V30 15 N 1.939505 1.718898 3.652021 0
M  V30 16 C 1.230179 2.697248 4.216375 0
M  V30 17 N 0.024119 2.678165 3.638379 0
M  V30 18 C -2.368923 2.119290 2.094439 0
M  V30 19 C -3.507051 1.855061 1.361311 0
M  V30 20 C -3.480885 0.847157 0.420163 0
M  V30 21 C -2.347777 0.112494 0.206919 0
M  V30 22 C -2.331091 -0.879043 -0.720952 0
M  V30 23 C -3.452330 -1.136201 -1.440804 0
M  V30 24 N -3.495817 -2.116867 -2.385877 0
M  V30 25 C -2.383508 -2.865589 -2.620451 0
M  V30 26 C -1.260076 -2.584349 -1.876939 0
M  V30 27 C -1.164320 -1.605916 -0.911759 0
M  V30 28 C 3.399010 -2.875158 0.283973 0
M  V30 29 H 7.105669 -5.397111 1.229269 0
M  V30 30 H 5.949173 -1.162053 1.635599 0
M  V30 31 H 4.352006 0.624873 1.364631 0
M  V30 32 H 2.189999 0.192039 0.407308 0
M  V30 33 H 1.188320 -2.942117 -1.050228 0
M  V30 34 H 1.563554 3.389299 5.004203 0
M  V30 35 H -0.717709 3.360884 3.915590 0
M  V30 36 H -2.394062 2.924083 2.843850 0
M  V30 37 H -4.385653 2.481548 1.579667 0
M  V30 38 H -4.420412 0.742573 -0.077661 0
M  V30 39 H -4.399699 -0.662820 -1.396051 0
M  V30 40 H -2.401495 -3.659423 -3.379233 0
M  V30 41 H -0.432480 -3.203325 -2.111498 0
M  V30 42 H 3.145720 -3.893674 -0.021600 0
M  V30 END ATOM
M  V30 BEGIN BOND
M  V30 1 3 1 2
M  V30 2 1 2 3
M  V30 3 2 3 4
M  V30 4 1 4 5
M  V30 5 2 5 6
M  V30 6 1 6 7
M  V30 7 1 7 8
M  V30 8 1 8 9
M  V30 9 2 9 10
M  V30 10 1 10 11
M  V30 11 2 11 12
M  V30 12 1 12 13
M  V30 13 2 13 14
M  V30 14 1 14 15
M  V30 15 2 15 16
M  V30 16 1 16 17
M  V30 17 1 12 18
M  V30 18 2 18 19
M  V30 19 1 19 20
M  V30 20 2 20 21
M  V30 21 1 21 22
M  V30 22 2 22 23
M  V30 23 1 23 24
M  V30 24 2 24 25
M  V30 25 1 25 26
M  V30 26 2 26 27
M  V30 27 2 7 28
M  V30 28 1 28 3
M  V30 29 1 27 9
M  V30 30 1 21 11
M  V30 31 1 27 22
M  V30 32 1 17 13
M  V30 33 1 1 29
M  V30 34 1 4 30
M  V30 35 1 5 31
M  V30 36 1 6 32
M  V30 37 1 8 33
M  V30 38 1 16 34
M  V30 39 1 17 35
M  V30 40 1 18 36
M  V30 41 1 19 37
M  V30 42 1 20 38
M  V30 43 1 23 39
M  V30 44 1 25 40
M  V30 45 1 26 41
M  V30 46 1 28 42
M  V30 END BOND
M  V30 END CTAB
M  END
>  <Dataset>  (102) 
ChEMBL_Kinases

>  <Ligand_Instance>  (102) 
nan

>  <PDB_ID>  (102) 
nan

>  <Standardized_SMILES>  (102) 
C#Cc1cccc(Nc2nc3c(-c4nnc[nH]4)cccc3c3cnccc23)c1

>  <Name>  (102) 
nan

>  <Pocket>  (102) 
nan

>  <ATP_Site>  (102) 
nan

>  <Peripheral>  (102) 
nan

>  <Num_H_Atoms_ProtBoundConf>  (102) 
nan

>  <Num_Resolved_Atoms>  (102) 
nan

>  <Num_Not_Resolved_Atoms>  (102) 
nan

$$$$
CHEMBL1915649
     RDKit          3D

  0  0  0  0  0  0  0  0  0  0999 V3000
M  V30 BEGIN CTAB
M  V30 COUNTS 38 41 0 0 0
M  V30 BEGIN ATOM
M  V30 1 N 2.031844 -2.628849 -1.457712 0
M  V30 2 C 2.678531 -3.232703 -0.352333 0
M  V30 3 O 3.650522 -3.970855 -0.613340 0
M  V30 4 C 2.157988 -2.939938 0.966960 0
M  V30 5 C 2.785916 -3.505733 2.069074 0
M  V30 6 C 2.365994 -3.296918 3.368208 0
M  V30 7 C 1.268820 -2.485989 3.575251 0
M  V30 8 C 0.617156 -1.905862 2.511998 0
M  V30 9 C 1.070515 -2.141951 1.233719 0
M  V30 10 N 0.434334 -1.579032 0.177571 0
M  V30 11 C -0.640854 -0.788485 0.361675 0
M  V30 12 N -1.197155 -0.256919 -0.862583 0
M  V30 13 C -0.725316 1.052971 -1.159622 0
M  V30 14 C -1.564345 2.152531 -1.308924 0
M  V30 15 C -1.180724 3.435590 -1.583073 0
M  V30 16 C 0.166472 3.685419 -1.729386 0
M  V30 17 C 1.066644 2.649658 -1.596661 0
M  V30 18 C 0.627230 1.375982 -1.320681 0
M  V30 19 F 1.550186 0.395734 -1.198102 0
M  V30 20 C -1.107119 -0.543225 1.635980 0
M  V30 21 C -2.212599 0.273849 1.749384 0
M  V30 22 C -2.626154 0.477291 3.052172 0
M  V30 23 N -2.020600 -0.063447 4.138803 0
M  V30 24 C -0.937054 -0.862106 3.991401 0
M  V30 25 C -0.476871 -1.103790 2.724534 0
M  V30 26 H 1.126772 -3.135372 -1.611668 0
M  V30 27 H 1.591006 -2.167713 -2.262083 0
M  V30 28 H 3.638723 -4.129857 1.827350 0
M  V30 29 H 2.909621 -3.775547 4.198285 0
M  V30 30 H 1.006123 -2.374254 4.611974 0
M  V30 31 H -1.861501 -0.585606 -1.595095 0
M  V30 32 H -2.627649 1.888681 -1.180833 0
M  V30 33 H -1.981827 4.146309 -1.659940 0
M  V30 34 H 0.460652 4.706495 -1.945014 0
M  V30 35 H 2.143300 2.843379 -1.712034 0
M  V30 36 H -2.691658 0.698005 0.903996 0
M  V30 37 H -3.500126 1.116261 3.236975 0
M  V30 38 H -0.522078 -1.245137 4.895954 0
M  V30 END ATOM
M  V30 BEGIN BOND
M  V30 1 1 1 2
M  V30 2 2 2 3
M  V30 3 1 2 4
M  V30 4 2 4 5
M  V30 5 1 5 6
M  V30 6 2 6 7
M  V30 7 1 7 8
M  V30 8 2 8 9
M  V30 9 1 9 10
M  V30 10 2 10 11
M  V30 11 1 11 12
M  V30 12 1 12 13
M  V30 13 2 13 14
M  V30 14 1 14 15
M  V30 15 2 15 16
M  V30 16 1 16 17
M  V30 17 2 17 18
M  V30 18 1 18 19
M  V30 19 1 11 20
M  V30 20 2 20 21
M  V30 21 1 21 22
M  V30 22 2 22 23
M  V30 23 1 23 24
M  V30 24 2 24 25
M  V30 25 1 9 4
M  V30 26 1 18 13
M  V30 27 1 25 20
M  V30 28 1 25 8
M  V30 29 1 1 26
M  V30 30 1 1 27
M  V30 31 1 5 28
M  V30 32 1 6 29
M  V30 33 1 7 30
M  V30 34 1 12 31
M  V30 35 1 14 32
M  V30 36 1 15 33
M  V30 37 1 16 34
M  V30 38 1 17 35
M  V30 39 1 21 36
M  V30 40 1 22 37
M  V30 41 1 24 38
M  V30 END BOND
M  V30 END CTAB
M  END
>  <Dataset>  (103) 
ChEMBL_Kinases

>  <Ligand_Instance>  (103) 
nan

>  <PDB_ID>  (103) 
nan

>  <Standardized_SMILES>  (103) 
NC(=O)c1cccc2c1nc(Nc1ccccc1F)c1ccncc12

>  <Name>  (103) 
nan

>  <Pocket>  (103) 
nan

>  <ATP_Site>  (103) 
nan

>  <Peripheral>  (103) 
nan

>  <Num_H_Atoms_ProtBoundConf>  (103) 
nan

>  <Num_Resolved_Atoms>  (103) 
nan

>  <Num_Not_Resolved_Atoms>  (103) 
nan

$$$$
CHEMBL1915434
     RDKit          3D

  0  0  0  0  0  0  0  0  0  0999 V3000
M  V30 BEGIN CTAB
M  V30 COUNTS 44 48 0 0 0
M  V30 BEGIN ATOM
M  V30 1 C -0.963947 -3.839274 4.633296 0
M  V30 2 O -0.666994 -3.009615 3.530758 0
M  V30 3 C 0.653643 -2.890968 3.138723 0
M  V30 4 C 1.704465 -3.536997 3.755558 0
M  V30 5 C 3.024668 -3.412401 3.357118 0
M  V30 6 C 3.255760 -2.574286 2.265610 0
M  V30 7 C 2.227116 -1.901453 1.611520 0
M  V30 8 N 2.429689 -1.030162 0.509098 0
M  V30 9 C 1.393383 -0.460720 -0.277921 0
M  V30 10 N 0.795563 0.643070 0.177474 0
M  V30 11 C -0.199395 1.268373 -0.510137 0
M  V30 12 C -0.754157 2.402538 0.051127 0
M  V30 13 C -0.244878 2.878536 1.324548 0
M  V30 14 N 0.727579 2.444406 2.118544 0
M  V30 15 N 0.831819 3.238921 3.197563 0
M  V30 16 C -0.119610 4.230507 3.090627 0
M  V30 17 N -0.737595 3.956858 1.937077 0
M  V30 18 C -1.759288 3.017824 -0.653710 0
M  V30 19 C -2.200686 2.535700 -1.863817 0
M  V30 20 C -1.663780 1.406968 -2.445689 0
M  V30 21 C -0.661503 0.807195 -1.725645 0
M  V30 22 C -0.051454 -0.324441 -2.196293 0
M  V30 23 C -0.427931 -0.864641 -3.387894 0
M  V30 24 N 0.186901 -1.978084 -3.835099 0
M  V30 25 C 1.156022 -2.601568 -3.183330 0
M  V30 26 C 1.566713 -2.084424 -1.970067 0
M  V30 27 C 0.953534 -0.946847 -1.491202 0
M  V30 28 C 0.955866 -2.083063 2.071269 0
M  V30 29 H -0.707927 -3.263979 5.561581 0
M  V30 30 H -0.463053 -4.805982 4.603930 0
M  V30 31 H -2.074501 -3.995993 4.697000 0
M  V30 32 H 1.493527 -4.190569 4.611583 0
M  V30 33 H 3.854852 -3.912035 3.826812 0
M  V30 34 H 4.256911 -2.447267 1.920744 0
M  V30 35 H 3.340486 -0.685378 0.124132 0
M  V30 36 H 0.071780 4.778147 4.000747 0
M  V30 37 H -1.475243 4.657293 1.770287 0
M  V30 38 H -2.218478 3.915116 -0.235404 0
M  V30 39 H -2.994098 3.045774 -2.392708 0
M  V30 40 H -2.046098 1.076850 -3.391566 0
M  V30 41 H -1.187206 -0.502054 -4.053089 0
M  V30 42 H 1.627995 -3.497993 -3.577892 0
M  V30 43 H 2.363449 -2.563194 -1.391748 0
M  V30 44 H 0.143985 -1.571511 1.574074 0
M  V30 END ATOM
M  V30 BEGIN BOND
M  V30 1 1 1 2
M  V30 2 1 2 3
M  V30 3 2 3 4
M  V30 4 1 4 5
M  V30 5 2 5 6
M  V30 6 1 6 7
M  V30 7 1 7 8
M  V30 8 1 8 9
M  V30 9 2 9 10
M  V30 10 1 10 11
M  V30 11 2 11 12
M  V30 12 1 12 13
M  V30 13 2 13 14
M  V30 14 1 14 15
M  V30 15 2 15 16
M  V30 16 1 16 17
M  V30 17 1 12 18
M  V30 18 2 18 19
M  V30 19 1 19 20
M  V30 20 2 20 21
M  V30 21 1 21 22
M  V30 22 2 22 23
M  V30 23 1 23 24
M  V30 24 2 24 25
M  V30 25 1 25 26
M  V30 26 2 26 27
M  V30 27 2 7 28
M  V30 28 1 28 3
M  V30 29 1 27 9
M  V30 30 1 21 11
M  V30 31 1 27 22
M  V30 32 1 17 13
M  V30 33 1 1 29
M  V30 34 1 1 30
M  V30 35 1 1 31
M  V30 36 1 4 32
M  V30 37 1 5 33
M  V30 38 1 6 34
M  V30 39 1 8 35
M  V30 40 1 16 36
M  V30 41 1 17 37
M  V30 42 1 18 38
M  V30 43 1 19 39
M  V30 44 1 20 40
M  V30 45 1 23 41
M  V30 46 1 25 42
M  V30 47 1 26 43
M  V30 48 1 28 44
M  V30 END BOND
M  V30 END CTAB
M  END
>  <Dataset>  (104) 
ChEMBL_Kinases

>  <Ligand_Instance>  (104) 
nan

>  <PDB_ID>  (104) 
nan

>  <Standardized_SMILES>  (104) 
COc1cccc(Nc2nc3c(-c4nnc[nH]4)cccc3c3cnccc23)c1

>  <Name>  (104) 
nan

>  <Pocket>  (104) 
nan

>  <ATP_Site>  (104) 
nan

>  <Peripheral>  (104) 
nan

>  <Num_H_Atoms_ProtBoundConf>  (104) 
nan

>  <Num_Resolved_Atoms>  (104) 
nan

>  <Num_Not_Resolved_Atoms>  (104) 
nan

$$$$
CHEMBL1915433
     RDKit          3D

  0  0  0  0  0  0  0  0  0  0999 V3000
M  V30 BEGIN CTAB
M  V30 COUNTS 40 44 0 0 0
M  V30 BEGIN ATOM
M  V30 1 C 0.213510 -5.578306 -0.198466 0
M  V30 2 C 1.463571 -5.557008 0.407989 0
M  V30 3 C 1.902906 -4.369357 0.951223 0
M  V30 4 C 1.078677 -3.268559 0.863116 0
M  V30 5 N 1.512106 -2.024662 1.415907 0
M  V30 6 C 0.806948 -0.776656 1.437716 0
M  V30 7 N 0.857089 0.159656 0.471570 0
M  V30 8 C 0.184075 1.302398 0.542209 0
M  V30 9 C 0.292345 2.217362 -0.503773 0
M  V30 10 C 1.120711 1.958006 -1.675963 0
M  V30 11 N 1.852064 0.815867 -1.856087 0
M  V30 12 N 2.489177 0.882850 -3.010231 0
M  V30 13 C 2.203443 2.046113 -3.612413 0
M  V30 14 N 1.366330 2.676923 -2.770862 0
M  V30 15 C -0.408616 3.402162 -0.425430 0
M  V30 16 C -1.221335 3.713027 0.665981 0
M  V30 17 C -1.321787 2.797996 1.698515 0
M  V30 18 C -0.621314 1.617629 1.616796 0
M  V30 19 C -0.696883 0.687725 2.620265 0
M  V30 20 C -1.477073 0.930493 3.720384 0
M  V30 21 N -1.567780 0.024212 4.727330 0
M  V30 22 C -0.890799 -1.136840 4.666697 0
M  V30 23 C -0.099808 -1.402765 3.570262 0
M  V30 24 C 0.008702 -0.487354 2.524350 0
M  V30 25 C -0.172987 -3.292342 0.255230 0
M  V30 26 C -0.614361 -4.496948 -0.293724 0
M  V30 27 H -0.054283 -6.548537 -0.598666 0
M  V30 28 H 2.097115 -6.423788 0.469775 0
M  V30 29 H 2.871309 -4.282183 1.441058 0
M  V30 30 H 2.437168 -1.917335 1.879121 0
M  V30 31 H 2.597631 2.349684 -4.572361 0
M  V30 32 H 0.943341 3.632791 -2.943772 0
M  V30 33 H -0.311014 4.094852 -1.244058 0
M  V30 34 H -1.738559 4.663470 0.651824 0
M  V30 35 H -1.951849 3.094551 2.492235 0
M  V30 36 H -2.071359 1.800315 3.913729 0
M  V30 37 H -0.970835 -1.849207 5.473775 0
M  V30 38 H 0.462436 -2.345980 3.499828 0
M  V30 39 H -0.787697 -2.401401 0.209065 0
M  V30 40 H -1.578839 -4.557297 -0.774315 0
M  V30 END ATOM
M  V30 BEGIN BOND
M  V30 1 2 1 2
M  V30 2 1 2 3
M  V30 3 2 3 4
M  V30 4 1 4 5
M  V30 5 1 5 6
M  V30 6 2 6 7
M  V30 7 1 7 8
M  V30 8 2 8 9
M  V30 9 1 9 10
M  V30 10 2 10 11
M  V30 11 1 11 12
M  V30 12 2 12 13
M  V30 13 1 13 14
M  V30 14 1 9 15
M  V30 15 2 15 16
M  V30 16 1 16 17
M  V30 17 2 17 18
M  V30 18 1 18 19
M  V30 19 2 19 20
M  V30 20 1 20 21
M  V30 21 2 21 22
M  V30 22 1 22 23
M  V30 23 2 23 24
M  V30 24 1 4 25
M  V30 25 2 25 26
M  V30 26 1 26 1
M  V30 27 1 24 6
M  V30 28 1 18 8
M  V30 29 1 24 19
M  V30 30 1 14 10
M  V30 31 1 1 27
M  V30 32 1 2 28
M  V30 33 1 3 29
M  V30 34 1 5 30
M  V30 35 1 13 31
M  V30 36 1 14 32
M  V30 37 1 15 33
M  V30 38 1 16 34
M  V30 39 1 17 35
M  V30 40 1 20 36
M  V30 41 1 22 37
M  V30 42 1 23 38
M  V30 43 1 25 39
M  V30 44 1 26 40
M  V30 END BOND
M  V30 END CTAB
M  END
>  <Dataset>  (105) 
ChEMBL_Kinases

>  <Ligand_Instance>  (105) 
nan

>  <PDB_ID>  (105) 
nan

>  <Standardized_SMILES>  (105) 
c1ccc(Nc2nc3c(-c4nnc[nH]4)cccc3c3cnccc23)cc1

>  <Name>  (105) 
nan

>  <Pocket>  (105) 
nan

>  <ATP_Site>  (105) 
nan

>  <Peripheral>  (105) 
nan

>  <Num_H_Atoms_ProtBoundConf>  (105) 
nan

>  <Num_Resolved_Atoms>  (105) 
nan

>  <Num_Not_Resolved_Atoms>  (105) 
nan

$$$$
CHEMBL1915432
     RDKit          3D

  0  0  0  0  0  0  0  0  0  0999 V3000
M  V30 BEGIN CTAB
M  V30 COUNTS 40 44 0 0 0
M  V30 BEGIN ATOM
M  V30 1 C -0.847116 -4.357967 2.401005 0
M  V30 2 C 0.424296 -4.356140 1.869281 0
M  V30 3 C 0.994830 -3.267483 1.239967 0
M  V30 4 C 2.343129 -3.309515 0.691892 0
M  V30 5 N 3.125410 -4.404360 0.758418 0
M  V30 6 N 4.286410 -4.201717 0.200697 0
M  V30 7 C 4.293384 -2.938798 -0.255860 0
M  V30 8 N 3.092920 -2.422329 0.060036 0
M  V30 9 C 0.178120 -2.157999 1.182629 0
M  V30 10 N 0.620165 -1.034133 0.594358 0
M  V30 11 C -0.085519 0.103722 0.480470 0
M  V30 12 N 0.565777 1.193237 -0.182915 0
M  V30 13 C 0.335408 2.026653 -1.373633 0
M  V30 14 C 0.662415 3.425839 -0.902546 0
M  V30 15 C 1.456563 3.229430 0.376582 0
M  V30 16 C 1.818397 1.754405 0.335558 0
M  V30 17 C -1.367102 0.196007 0.982647 0
M  V30 18 C -2.063180 1.365177 0.853521 0
M  V30 19 C -3.329221 1.337191 1.392415 0
M  V30 20 N -3.830137 0.246463 1.993372 0
M  V30 21 C -3.121540 -0.898579 2.108607 0
M  V30 22 C -1.847432 -0.942962 1.592333 0
M  V30 23 C -1.100070 -2.092440 1.692986 0
M  V30 24 C -1.606847 -3.211328 2.306523 0
M  V30 25 H -1.215304 -5.265335 2.880687 0
M  V30 26 H 1.014595 -5.279874 1.954480 0
M  V30 27 H 5.139758 -2.516398 -0.761101 0
M  V30 28 H 2.805448 -1.452663 -0.168198 0
M  V30 29 H -0.659154 1.899515 -1.794094 0
M  V30 30 H 1.157124 1.745324 -2.064863 0
M  V30 31 H 1.195645 4.033736 -1.657818 0
M  V30 32 H -0.311804 3.944113 -0.687238 0
M  V30 33 H 2.345102 3.889663 0.413635 0
M  V30 34 H 0.847549 3.426989 1.273863 0
M  V30 35 H 2.113190 1.351307 1.302701 0
M  V30 36 H 2.593714 1.664493 -0.455842 0
M  V30 37 H -1.641179 2.211150 0.373444 0
M  V30 38 H -3.966969 2.209394 1.345570 0
M  V30 39 H -3.630966 -1.700198 2.609293 0
M  V30 40 H -2.582331 -3.292037 2.742966 0
M  V30 END ATOM
M  V30 BEGIN BOND
M  V30 1 2 1 2
M  V30 2 1 2 3
M  V30 3 1 3 4
M  V30 4 2 4 5
M  V30 5 1 5 6
M  V30 6 2 6 7
M  V30 7 1 7 8
M  V30 8 2 3 9
M  V30 9 1 9 10
M  V30 10 2 10 11
M  V30 11 1 11 12
M  V30 12 1 12 13
M  V30 13 1 13 14
M  V30 14 1 14 15
M  V30 15 1 15 16
M  V30 16 1 11 17
M  V30 17 2 17 18
M  V30 18 1 18 19
M  V30 19 2 19 20
M  V30 20 1 20 21
M  V30 21 2 21 22
M  V30 22 1 22 23
M  V30 23 2 23 24
M  V30 24 1 24 1
M  V30 25 1 8 4
M  V30 26 1 23 9
M  V30 27 1 16 12
M  V30 28 1 22 17
M  V30 29 1 1 25
M  V30 30 1 2 26
M  V30 31 1 7 27
M  V30 32 1 8 28
M  V30 33 1 13 29
M  V30 34 1 13 30
M  V30 35 1 14 31
M  V30 36 1 14 32
M  V30 37 1 15 33
M  V30 38 1 15 34
M  V30 39 1 16 35
M  V30 40 1 16 36
M  V30 41 1 18 37
M  V30 42 1 19 38
M  V30 43 1 21 39
M  V30 44 1 24 40
M  V30 END BOND
M  V30 END CTAB
M  END
>  <Dataset>  (106) 
ChEMBL_Kinases

>  <Ligand_Instance>  (106) 
nan

>  <PDB_ID>  (106) 
nan

>  <Standardized_SMILES>  (106) 
c1cc(-c2nnc[nH]2)c2nc(N3CCCC3)c3ccncc3c2c1

>  <Name>  (106) 
nan

>  <Pocket>  (106) 
nan

>  <ATP_Site>  (106) 
nan

>  <Peripheral>  (106) 
nan

>  <Num_H_Atoms_ProtBoundConf>  (106) 
nan

>  <Num_Resolved_Atoms>  (106) 
nan

>  <Num_Not_Resolved_Atoms>  (106) 
nan

$$$$
CHEMBL1915431
     RDKit          3D

  0  0  0  0  0  0  0  0  0  0999 V3000
M  V30 BEGIN CTAB
M  V30 COUNTS 37 40 0 0 0
M  V30 BEGIN ATOM
M  V30 1 O -0.810679 -1.427271 5.065414 0
M  V30 2 C -0.046162 -2.521245 4.753591 0
M  V30 3 C 1.069589 -2.149022 3.773548 0
M  V30 4 N 0.540523 -1.646313 2.568490 0
M  V30 5 C 0.129898 -1.098177 1.293845 0
M  V30 6 N 0.939547 -0.518764 0.382201 0
M  V30 7 C 0.498434 -0.002241 -0.745531 0
M  V30 8 C 1.433552 0.561094 -1.589676 0
M  V30 9 C 2.856264 0.592014 -1.264448 0
M  V30 10 N 3.392525 0.086968 -0.135315 0
M  V30 11 N 4.720952 0.281424 -0.154258 0
M  V30 12 C 4.948732 0.914853 -1.326508 0
M  V30 13 N 3.824537 1.121924 -2.034435 0
M  V30 14 C 0.978858 1.107267 -2.777007 0
M  V30 15 C -0.392599 1.060164 -3.056870 0
M  V30 16 C -1.231920 0.470149 -2.134840 0
M  V30 17 C -0.841325 -0.078489 -0.960169 0
M  V30 18 C -1.736450 -0.647537 -0.093920 0
M  V30 19 C -3.064533 -0.663549 -0.443946 0
M  V30 20 N -3.970469 -1.236612 0.402662 0
M  V30 21 C -3.553620 -1.781941 1.574436 0
M  V30 22 C -2.217193 -1.725379 1.849097 0
M  V30 23 C -1.224733 -1.174074 1.071786 0
M  V30 24 H -0.344002 -0.929674 5.787074 0
M  V30 25 H -0.680059 -3.339703 4.404384 0
M  V30 26 H 0.490836 -2.910592 5.651106 0
M  V30 27 H 1.729665 -3.077830 3.665603 0
M  V30 28 H 1.739667 -1.437751 4.366236 0
M  V30 29 H 1.582290 -1.474012 2.386483 0
M  V30 30 H 5.970972 1.205334 -1.615449 0
M  V30 31 H 3.751844 1.587430 -2.960963 0
M  V30 32 H 1.691525 1.553823 -3.453916 0
M  V30 33 H -0.649983 1.507862 -3.998817 0
M  V30 34 H -2.239573 0.517369 -2.499330 0
M  V30 35 H -3.526048 -0.276137 -1.324431 0
M  V30 36 H -4.247935 -2.241626 2.261907 0
M  V30 37 H -1.915281 -2.166159 2.754940 0
M  V30 END ATOM
M  V30 BEGIN BOND
M  V30 1 1 1 2
M  V30 2 1 2 3
M  V30 3 1 3 4
M  V30 4 1 4 5
M  V30 5 2 5 6
M  V30 6 1 6 7
M  V30 7 2 7 8
M  V30 8 1 8 9
M  V30 9 2 9 10
M  V30 10 1 10 11
M  V30 11 2 11 12
M  V30 12 1 12 13
M  V30 13 1 8 14
M  V30 14 2 14 15
M  V30 15 1 15 16
M  V30 16 2 16 17
M  V30 17 1 17 18
M  V30 18 2 18 19
M  V30 19 1 19 20
M  V30 20 2 20 21
M  V30 21 1 21 22
M  V30 22 2 22 23
M  V30 23 1 23 5
M  V30 24 1 17 7
M  V30 25 1 23 18
M  V30 26 1 13 9
M  V30 27 1 1 24
M  V30 28 1 2 25
M  V30 29 1 2 26
M  V30 30 1 3 27
M  V30 31 1 3 28
M  V30 32 1 4 29
M  V30 33 1 12 30
M  V30 34 1 13 31
M  V30 35 1 14 32
M  V30 36 1 15 33
M  V30 37 1 16 34
M  V30 38 1 19 35
M  V30 39 1 21 36
M  V30 40 1 22 37
M  V30 END BOND
M  V30 END CTAB
M  END
>  <Dataset>  (107) 
ChEMBL_Kinases

>  <Ligand_Instance>  (107) 
nan

>  <PDB_ID>  (107) 
nan

>  <Standardized_SMILES>  (107) 
OCCNc1nc2c(-c3nnc[nH]3)cccc2c2cnccc12

>  <Name>  (107) 
nan

>  <Pocket>  (107) 
nan

>  <ATP_Site>  (107) 
nan

>  <Peripheral>  (107) 
nan

>  <Num_H_Atoms_ProtBoundConf>  (107) 
nan

>  <Num_Resolved_Atoms>  (107) 
nan

>  <Num_Not_Resolved_Atoms>  (107) 
nan

$$$$
CHEMBL1915430
     RDKit          3D

  0  0  0  0  0  0  0  0  0  0999 V3000
M  V30 BEGIN CTAB
M  V30 COUNTS 43 47 0 0 0
M  V30 BEGIN ATOM
M  V30 1 C -0.149823 -5.223994 1.598963 0
M  V30 2 C 1.115351 -4.768970 1.905093 0
M  V30 3 C 1.531715 -3.457768 1.679869 0
M  V30 4 C 2.880164 -3.043402 2.025966 0
M  V30 5 N 3.794218 -3.862278 2.569152 0
M  V30 6 N 4.902660 -3.192812 2.761366 0
M  V30 7 C 4.746349 -1.925401 2.352140 0
M  V30 8 N 3.492349 -1.860432 1.903936 0
M  V30 9 C 0.551277 -2.667204 1.121795 0
M  V30 10 N 0.866907 -1.399532 0.874628 0
M  V30 11 C 0.041789 -0.505963 0.341181 0
M  V30 12 N 0.438909 0.846281 0.095231 0
M  V30 13 C 0.230499 2.174605 -0.332503 0
M  V30 14 C 1.442059 3.089131 -0.339913 0
M  V30 15 C 1.448134 3.885330 0.918196 0
M  V30 16 C 0.451826 3.170443 1.789120 0
M  V30 17 C -0.632305 2.856934 0.748218 0
M  V30 18 C -1.224051 -0.919952 0.022549 0
M  V30 19 C -2.194280 -0.120662 -0.540956 0
M  V30 20 C -3.464029 -0.517280 -0.870381 0
M  V30 21 N -3.803612 -1.815955 -0.621472 0
M  V30 22 C -2.897701 -2.643664 -0.072857 0
M  V30 23 C -1.633567 -2.217360 0.246094 0
M  V30 24 C -0.721330 -3.052614 0.793568 0
M  V30 25 C -1.062963 -4.350445 1.040671 0
M  V30 26 H -0.351713 -6.270789 1.823526 0
M  V30 27 H 1.841300 -5.453501 2.346138 0
M  V30 28 H 5.529053 -1.156511 2.404768 0
M  V30 29 H 3.083054 -0.988674 1.518995 0
M  V30 30 H 1.447104 0.941131 0.387531 0
M  V30 31 H -0.258702 2.303143 -1.325040 0
M  V30 32 H 2.389762 2.514409 -0.380239 0
M  V30 33 H 1.447980 3.749399 -1.228224 0
M  V30 34 H 1.103594 4.942921 0.775038 0
M  V30 35 H 2.469010 3.913131 1.388311 0
M  V30 36 H 0.900258 2.259491 2.198389 0
M  V30 37 H 0.045124 3.814811 2.591626 0
M  V30 38 H -1.016079 3.804421 0.364155 0
M  V30 39 H -1.361419 2.162461 1.163292 0
M  V30 40 H -1.972262 0.897619 -0.758331 0
M  V30 41 H -4.187377 0.157956 -1.312707 0
M  V30 42 H -3.278182 -3.615704 0.069414 0
M  V30 43 H -2.006084 -4.832131 0.852491 0
M  V30 END ATOM
M  V30 BEGIN BOND
M  V30 1 2 1 2
M  V30 2 1 2 3
M  V30 3 1 3 4
M  V30 4 2 4 5
M  V30 5 1 5 6
M  V30 6 2 6 7
M  V30 7 1 7 8
M  V30 8 2 3 9
M  V30 9 1 9 10
M  V30 10 2 10 11
M  V30 11 1 11 12
M  V30 12 1 12 13
M  V30 13 1 13 14
M  V30 14 1 14 15
M  V30 15 1 15 16
M  V30 16 1 16 17
M  V30 17 1 11 18
M  V30 18 2 18 19
M  V30 19 1 19 20
M  V30 20 2 20 21
M  V30 21 1 21 22
M  V30 22 2 22 23
M  V30 23 1 23 24
M  V30 24 2 24 25
M  V30 25 1 25 1
M  V30 26 1 8 4
M  V30 27 1 24 9
M  V30 28 1 17 13
M  V30 29 1 23 18
M  V30 30 1 1 26
M  V30 31 1 2 27
M  V30 32 1 7 28
M  V30 33 1 8 29
M  V30 34 1 12 30
M  V30 35 1 13 31
M  V30 36 1 14 32
M  V30 37 1 14 33
M  V30 38 1 15 34
M  V30 39 1 15 35
M  V30 40 1 16 36
M  V30 41 1 16 37
M  V30 42 1 17 38
M  V30 43 1 17 39
M  V30 44 1 19 40
M  V30 45 1 20 41
M  V30 46 1 22 42
M  V30 47 1 25 43
M  V30 END BOND
M  V30 END CTAB
M  END
>  <Dataset>  (108) 
ChEMBL_Kinases

>  <Ligand_Instance>  (108) 
nan

>  <PDB_ID>  (108) 
nan

>  <Standardized_SMILES>  (108) 
c1cc(-c2nnc[nH]2)c2nc(NC3CCCC3)c3ccncc3c2c1

>  <Name>  (108) 
nan

>  <Pocket>  (108) 
nan

>  <ATP_Site>  (108) 
nan

>  <Peripheral>  (108) 
nan

>  <Num_H_Atoms_ProtBoundConf>  (108) 
nan

>  <Num_Resolved_Atoms>  (108) 
nan

>  <Num_Not_Resolved_Atoms>  (108) 
nan

$$$$
CHEMBL4756660
     RDKit          3D

  0  0  0  0  0  0  0  0  0  0999 V3000
M  V30 BEGIN CTAB
M  V30 COUNTS 43 46 0 0 0
M  V30 BEGIN ATOM
M  V30 1 C -0.897010 -4.780628 1.497595 0
M  V30 2 C 0.411471 -4.146622 1.047367 0 CFG=1
M  V30 3 N 0.202512 -2.737522 0.990969 0
M  V30 4 C 0.270694 -1.864988 -0.127930 0
M  V30 5 O 0.561569 -2.485505 -1.195426 0
M  V30 6 C 0.025684 -0.427380 -0.009442 0
M  V30 7 C -0.289164 0.211003 1.175973 0
M  V30 8 C -0.495138 1.579129 1.140696 0
M  V30 9 C -0.387606 2.275046 -0.043825 0
M  V30 10 C -0.072490 1.629066 -1.224167 0
M  V30 11 C 0.140601 0.260522 -1.227598 0
M  V30 12 O 0.041264 2.310248 -2.430166 0
M  V30 13 C -0.151535 3.704788 -2.563195 0
M  V30 14 C -0.487322 4.370997 -1.286099 0
M  V30 15 C -0.687914 5.734772 -1.349483 0
M  V30 16 N -0.994105 6.384257 -0.222214 0
M  V30 17 C -1.122401 5.789861 0.990796 0
M  V30 18 C -0.921636 4.403044 1.072901 0
M  V30 19 C -0.604987 3.714726 -0.078736 0
M  V30 20 C 1.424529 -4.525123 2.093037 0
M  V30 21 C 1.306189 -5.558327 3.009422 0
M  V30 22 C 2.300320 -5.798606 3.909252 0
M  V30 23 C 3.407861 -4.973775 3.858660 0
M  V30 24 C 3.583337 -3.941803 2.981891 0
M  V30 25 C 2.555000 -3.705738 2.063103 0
M  V30 26 H -1.024621 -4.635033 2.608189 0
M  V30 27 H -1.771284 -4.288789 1.047991 0
M  V30 28 H -0.912784 -5.875541 1.297145 0
M  V30 29 H 0.659660 -4.591735 0.066394 0
M  V30 30 H -0.027058 -2.376757 1.942785 0
M  V30 31 H -0.361225 -0.370997 2.068840 0
M  V30 32 H -0.736184 2.016801 2.090986 0
M  V30 33 H 0.385624 -0.228232 -2.157326 0
M  V30 34 H -1.053918 3.870555 -3.221147 0
M  V30 35 H 0.709262 4.149611 -3.091280 0
M  V30 36 H -0.610653 6.309675 -2.265447 0
M  V30 37 H -1.372682 6.357491 1.880054 0
M  V30 38 H -1.028980 3.954432 2.046609 0
M  V30 39 H 0.383147 -6.121044 2.931442 0
M  V30 40 H 2.201118 -6.596480 4.611590 0
M  V30 41 H 4.224755 -5.146191 4.573781 0
M  V30 42 H 4.483223 -3.340709 3.007257 0
M  V30 43 H 2.707844 -2.887881 1.377546 0
M  V30 END ATOM
M  V30 BEGIN BOND
M  V30 1 1 1 2
M  V30 2 1 2 3
M  V30 3 1 3 4
M  V30 4 2 4 5
M  V30 5 1 4 6
M  V30 6 2 6 7
M  V30 7 1 7 8
M  V30 8 2 8 9
M  V30 9 1 9 10
M  V30 10 2 10 11
M  V30 11 1 10 12
M  V30 12 1 12 13
M  V30 13 1 13 14
M  V30 14 2 14 15
M  V30 15 1 15 16
M  V30 16 2 16 17
M  V30 17 1 17 18
M  V30 18 2 18 19
M  V30 19 1 2 20
M  V30 20 2 20 21
M  V30 21 1 21 22
M  V30 22 2 22 23
M  V30 23 1 23 24
M  V30 24 2 24 25
M  V30 25 1 11 6
M  V30 26 1 19 14
M  V30 27 1 25 20
M  V30 28 1 19 9
M  V30 29 1 1 26
M  V30 30 1 1 27
M  V30 31 1 1 28
M  V30 32 1 2 29 CFG=3
M  V30 33 1 3 30
M  V30 34 1 7 31
M  V30 35 1 8 32
M  V30 36 1 11 33
M  V30 37 1 13 34
M  V30 38 1 13 35
M  V30 39 1 15 36
M  V30 40 1 17 37
M  V30 41 1 18 38
M  V30 42 1 21 39
M  V30 43 1 22 40
M  V30 44 1 23 41
M  V30 45 1 24 42
M  V30 46 1 25 43
M  V30 END BOND
M  V30 END CTAB
M  END
>  <Dataset>  (109) 
ChEMBL_Kinases

>  <Ligand_Instance>  (109) 
nan

>  <PDB_ID>  (109) 
nan

>  <Standardized_SMILES>  (109) 
C[C@@H](NC(=O)c1ccc2c(c1)OCc1cnccc1-2)c1ccccc1

>  <Name>  (109) 
nan

>  <Pocket>  (109) 
nan

>  <ATP_Site>  (109) 
nan

>  <Peripheral>  (109) 
nan

>  <Num_H_Atoms_ProtBoundConf>  (109) 
nan

>  <Num_Resolved_Atoms>  (109) 
nan

>  <Num_Not_Resolved_Atoms>  (109) 
nan

$$$$
CHEMBL1915429
     RDKit          3D

  0  0  0  0  0  0  0  0  0  0999 V3000
M  V30 BEGIN CTAB
M  V30 COUNTS 40 44 0 0 0
M  V30 BEGIN ATOM
M  V30 1 C -0.815533 -2.964009 -2.935591 0
M  V30 2 C 0.176030 -3.565049 -2.192530 0
M  V30 3 C 0.638622 -3.030905 -1.005924 0
M  V30 4 C 1.689833 -3.690394 -0.242977 0
M  V30 5 N 2.277626 -4.842575 -0.627681 0
M  V30 6 N 3.183970 -5.216526 0.230010 0
M  V30 7 C 3.232911 -4.329995 1.214215 0
M  V30 8 N 2.311911 -3.399318 0.912341 0
M  V30 9 C 0.026184 -1.854403 -0.634506 0
M  V30 10 N 0.411473 -1.269673 0.496595 0
M  V30 11 C -0.066746 -0.127074 1.016300 0
M  V30 12 N 0.388218 0.427284 2.222746 0
M  V30 13 C 0.414400 1.409389 3.212514 0
M  V30 14 C 0.939017 2.793033 2.886968 0
M  V30 15 C 2.208315 2.429774 3.634515 0
M  V30 16 C 1.427497 1.337201 4.328975 0
M  V30 17 C -1.060898 0.472944 0.271090 0
M  V30 18 C -1.679771 1.645748 0.652414 0
M  V30 19 C -2.680375 2.271526 -0.059326 0
M  V30 20 N -3.101457 1.718508 -1.211266 0
M  V30 21 C -2.539019 0.569024 -1.643289 0
M  V30 22 C -1.545982 -0.031751 -0.915371 0
M  V30 23 C -0.963594 -1.203999 -1.324323 0
M  V30 24 C -1.381303 -1.785216 -2.497790 0
M  V30 25 H -1.093590 -3.480926 -3.850649 0
M  V30 26 H 0.634354 -4.505939 -2.532978 0
M  V30 27 H 3.854220 -4.298726 2.098067 0
M  V30 28 H 2.103931 -2.567868 1.486557 0
M  V30 29 H 1.100224 -0.248335 2.636738 0
M  V30 30 H -0.598499 1.524128 3.708638 0
M  V30 31 H 1.173874 2.966060 1.822475 0
M  V30 32 H 0.425771 3.610372 3.427476 0
M  V30 33 H 2.610934 3.213822 4.307397 0
M  V30 34 H 3.028287 2.065317 2.977277 0
M  V30 35 H 1.066755 1.622246 5.330681 0
M  V30 36 H 2.002146 0.390965 4.379992 0
M  V30 37 H -1.390101 2.121408 1.567930 0
M  V30 38 H -3.131173 3.192549 0.287298 0
M  V30 39 H -2.935158 0.211195 -2.556880 0
M  V30 40 H -2.139825 -1.428258 -3.172302 0
M  V30 END ATOM
M  V30 BEGIN BOND
M  V30 1 2 1 2
M  V30 2 1 2 3
M  V30 3 1 3 4
M  V30 4 2 4 5
M  V30 5 1 5 6
M  V30 6 2 6 7
M  V30 7 1 7 8
M  V30 8 2 3 9
M  V30 9 1 9 10
M  V30 10 2 10 11
M  V30 11 1 11 12
M  V30 12 1 12 13
M  V30 13 1 13 14
M  V30 14 1 14 15
M  V30 15 1 15 16
M  V30 16 1 11 17
M  V30 17 2 17 18
M  V30 18 1 18 19
M  V30 19 2 19 20
M  V30 20 1 20 21
M  V30 21 2 21 22
M  V30 22 1 22 23
M  V30 23 2 23 24
M  V30 24 1 24 1
M  V30 25 1 8 4
M  V30 26 1 23 9
M  V30 27 1 16 13
M  V30 28 1 22 17
M  V30 29 1 1 25
M  V30 30 1 2 26
M  V30 31 1 7 27
M  V30 32 1 8 28
M  V30 33 1 12 29
M  V30 34 1 13 30
M  V30 35 1 14 31
M  V30 36 1 14 32
M  V30 37 1 15 33
M  V30 38 1 15 34
M  V30 39 1 16 35
M  V30 40 1 16 36
M  V30 41 1 18 37
M  V30 42 1 19 38
M  V30 43 1 21 39
M  V30 44 1 24 40
M  V30 END BOND
M  V30 END CTAB
M  END
>  <Dataset>  (110) 
ChEMBL_Kinases

>  <Ligand_Instance>  (110) 
nan

>  <PDB_ID>  (110) 
nan

>  <Standardized_SMILES>  (110) 
c1cc(-c2nnc[nH]2)c2nc(NC3CCC3)c3ccncc3c2c1

>  <Name>  (110) 
nan

>  <Pocket>  (110) 
nan

>  <ATP_Site>  (110) 
nan

>  <Peripheral>  (110) 
nan

>  <Num_H_Atoms_ProtBoundConf>  (110) 
nan

>  <Num_Resolved_Atoms>  (110) 
nan

>  <Num_Not_Resolved_Atoms>  (110) 
nan

$$$$
CHEMBL1355387
     RDKit          3D

  0  0  0  0  0  0  0  0  0  0999 V3000
M  V30 BEGIN CTAB
M  V30 COUNTS 39 41 0 0 0
M  V30 BEGIN ATOM
M  V30 1 C 0.494938 -2.444488 4.299137 0
M  V30 2 O 1.602505 -3.103745 3.762739 0
M  V30 3 C 2.245730 -2.783506 2.582034 0
M  V30 4 C 3.320870 -3.559285 2.229866 0
M  V30 5 C 3.991544 -3.261280 1.042943 0
M  V30 6 C 3.543746 -2.205933 0.284032 0
M  V30 7 C 2.470014 -1.406324 0.605001 0
M  V30 8 C 2.088467 -0.314495 -0.282648 0
M  V30 9 N 2.811035 -0.110561 -1.401247 0
M  V30 10 C 2.533640 0.855973 -2.257553 0
M  V30 11 C 1.465962 1.671805 -1.979509 0
M  V30 12 C 0.673781 1.517437 -0.838311 0
M  V30 13 N -0.419625 2.384130 -0.584038 0
M  V30 14 C -1.347454 2.379169 0.499091 0
M  V30 15 C -2.172675 1.155084 0.611487 0
M  V30 16 C -1.903427 0.020113 1.345675 0
M  V30 17 C -2.767338 -1.054386 1.351779 0
M  V30 18 C -3.933491 -1.014084 0.613748 0
M  V30 19 C -4.228038 0.112023 -0.131236 0
M  V30 20 C -3.359585 1.185497 -0.134154 0
M  V30 21 N 1.050679 0.502612 -0.042077 0
M  V30 22 C 1.852429 -1.744172 1.776333 0
M  V30 23 H -0.396221 -2.568201 3.659101 0
M  V30 24 H 0.308151 -2.864873 5.318724 0
M  V30 25 H 0.743865 -1.377118 4.473391 0
M  V30 26 H 3.664127 -4.384923 2.832219 0
M  V30 27 H 4.837075 -3.880986 0.778578 0
M  V30 28 H 4.130827 -2.058627 -0.614619 0
M  V30 29 H 3.113741 1.018102 -3.154015 0
M  V30 30 H 1.229882 2.466402 -2.673415 0
M  V30 31 H -0.562371 3.148242 -1.314912 0
M  V30 32 H -0.741592 2.492860 1.448007 0
M  V30 33 H -2.007466 3.249016 0.467580 0
M  V30 34 H -0.962749 0.147714 1.864808 0
M  V30 35 H -2.408706 -1.862607 1.977182 0
M  V30 36 H -4.561597 -1.901453 0.671462 0
M  V30 37 H -5.140638 0.104382 -0.688957 0
M  V30 38 H -3.679079 2.013582 -0.745389 0
M  V30 39 H 1.006011 -1.163896 2.093277 0
M  V30 END ATOM
M  V30 BEGIN BOND
M  V30 1 1 1 2
M  V30 2 1 2 3
M  V30 3 2 3 4
M  V30 4 1 4 5
M  V30 5 2 5 6
M  V30 6 1 6 7
M  V30 7 1 7 8
M  V30 8 2 8 9
M  V30 9 1 9 10
M  V30 10 2 10 11
M  V30 11 1 11 12
M  V30 12 1 12 13
M  V30 13 1 13 14
M  V30 14 1 14 15
M  V30 15 2 15 16
M  V30 16 1 16 17
M  V30 17 2 17 18
M  V30 18 1 18 19
M  V30 19 2 19 20
M  V30 20 2 12 21
M  V30 21 2 7 22
M  V30 22 1 22 3
M  V30 23 1 21 8
M  V30 24 1 20 15
M  V30 25 1 1 23
M  V30 26 1 1 24
M  V30 27 1 1 25
M  V30 28 1 4 26
M  V30 29 1 5 27
M  V30 30 1 6 28
M  V30 31 1 10 29
M  V30 32 1 11 30
M  V30 33 1 13 31
M  V30 34 1 14 32
M  V30 35 1 14 33
M  V30 36 1 16 34
M  V30 37 1 17 35
M  V30 38 1 18 36
M  V30 39 1 19 37
M  V30 40 1 20 38
M  V30 41 1 22 39
M  V30 END BOND
M  V30 END CTAB
M  END
>  <Dataset>  (111) 
ChEMBL_Kinases

>  <Ligand_Instance>  (111) 
nan

>  <PDB_ID>  (111) 
nan

>  <Standardized_SMILES>  (111) 
COc1cccc(-c2nccc(NCc3ccccc3)n2)c1

>  <Name>  (111) 
nan

>  <Pocket>  (111) 
nan

>  <ATP_Site>  (111) 
nan

>  <Peripheral>  (111) 
nan

>  <Num_H_Atoms_ProtBoundConf>  (111) 
nan

>  <Num_Resolved_Atoms>  (111) 
nan

>  <Num_Not_Resolved_Atoms>  (111) 
nan

$$$$
CHEMBL1915428
     RDKit          3D

  0  0  0  0  0  0  0  0  0  0999 V3000
M  V30 BEGIN CTAB
M  V30 COUNTS 37 41 0 0 0
M  V30 BEGIN ATOM
M  V30 1 C 0.918712 -4.567227 0.115394 0
M  V30 2 C 1.934999 -4.021802 0.908257 0
M  V30 3 C 1.899820 -2.676136 1.210691 0
M  V30 4 C 2.953128 -2.095351 2.036153 0
M  V30 5 N 3.054875 -0.808260 2.413503 0
M  V30 6 N 4.140816 -0.664509 3.154522 0
M  V30 7 C 4.708357 -1.902304 3.224377 0
M  V30 8 N 3.976829 -2.816949 2.527481 0
M  V30 9 C 0.853156 -1.929358 0.710458 0
M  V30 10 N 0.869296 -0.658870 1.029079 0
M  V30 11 C -0.099606 0.194181 0.605940 0
M  V30 12 N -0.140879 1.587681 0.912022 0
M  V30 13 C -0.327010 2.968406 1.135383 0
M  V30 14 C -0.584665 3.801145 -0.073297 0
M  V30 15 C -1.616399 3.704204 1.017238 0
M  V30 16 C -1.130699 -0.303501 -0.187072 0
M  V30 17 C -2.185183 0.406147 -0.719119 0
M  V30 18 C -3.185227 -0.092240 -1.504110 0
M  V30 19 N -3.142650 -1.416634 -1.793670 0
M  V30 20 C -2.160215 -2.209042 -1.330918 0
M  V30 21 C -1.194641 -1.631994 -0.550264 0
M  V30 22 C -0.163712 -2.392227 -0.062862 0
M  V30 23 C -0.084060 -3.733224 -0.335220 0
M  V30 24 H 1.014465 -5.621396 -0.077151 0
M  V30 25 H 2.739862 -4.644552 1.281201 0
M  V30 26 H 5.628322 -2.190756 3.752952 0
M  V30 27 H 4.211878 -3.828259 2.435851 0
M  V30 28 H 0.800926 1.665267 1.394439 0
M  V30 29 H 0.363378 3.509519 1.870979 0
M  V30 30 H -0.883058 3.345249 -1.035991 0
M  V30 31 H -0.052421 4.770190 -0.220479 0
M  V30 32 H -2.569655 3.192120 0.897410 0
M  V30 33 H -1.738962 4.634751 1.637752 0
M  V30 34 H -2.225991 1.451811 -0.513841 0
M  V30 35 H -3.973774 0.542300 -1.876458 0
M  V30 36 H -2.224601 -3.236553 -1.620709 0
M  V30 37 H -0.787760 -4.288251 -0.926947 0
M  V30 END ATOM
M  V30 BEGIN BOND
M  V30 1 2 1 2
M  V30 2 1 2 3
M  V30 3 1 3 4
M  V30 4 2 4 5
M  V30 5 1 5 6
M  V30 6 2 6 7
M  V30 7 1 7 8
M  V30 8 2 3 9
M  V30 9 1 9 10
M  V30 10 2 10 11
M  V30 11 1 11 12
M  V30 12 1 12 13
M  V30 13 1 13 14
M  V30 14 1 14 15
M  V30 15 1 11 16
M  V30 16 2 16 17
M  V30 17 1 17 18
M  V30 18 2 18 19
M  V30 19 1 19 20
M  V30 20 2 20 21
M  V30 21 1 21 22
M  V30 22 2 22 23
M  V30 23 1 23 1
M  V30 24 1 8 4
M  V30 25 1 22 9
M  V30 26 1 15 13
M  V30 27 1 21 16
M  V30 28 1 1 24
M  V30 29 1 2 25
M  V30 30 1 7 26
M  V30 31 1 8 27
M  V30 32 1 12 28
M  V30 33 1 13 29
M  V30 34 1 14 30
M  V30 35 1 14 31
M  V30 36 1 15 32
M  V30 37 1 15 33
M  V30 38 1 17 34
M  V30 39 1 18 35
M  V30 40 1 20 36
M  V30 41 1 23 37
M  V30 END BOND
M  V30 END CTAB
M  END
>  <Dataset>  (112) 
ChEMBL_Kinases

>  <Ligand_Instance>  (112) 
nan

>  <PDB_ID>  (112) 
nan

>  <Standardized_SMILES>  (112) 
c1cc(-c2nnc[nH]2)c2nc(NC3CC3)c3ccncc3c2c1

>  <Name>  (112) 
nan

>  <Pocket>  (112) 
nan

>  <ATP_Site>  (112) 
nan

>  <Peripheral>  (112) 
nan

>  <Num_H_Atoms_ProtBoundConf>  (112) 
nan

>  <Num_Resolved_Atoms>  (112) 
nan

>  <Num_Not_Resolved_Atoms>  (112) 
nan

$$$$
CHEMBL1915435
     RDKit          3D

  0  0  0  0  0  0  0  0  0  0999 V3000
M  V30 BEGIN CTAB
M  V30 COUNTS 44 48 0 0 0
M  V30 BEGIN ATOM
M  V30 1 C 0.297149 -1.867760 3.806473 0
M  V30 2 O 0.962137 -1.738394 2.589282 0
M  V30 3 C 2.224515 -1.261131 2.368802 0
M  V30 4 C 2.973225 -0.843540 3.453236 0
M  V30 5 C 4.265049 -0.345235 3.317029 0
M  V30 6 C 4.842609 -0.254928 2.059218 0
M  V30 7 C 4.089778 -0.672720 0.987982 0
M  V30 8 C 2.805778 -1.170904 1.097252 0
M  V30 9 N 1.953095 -1.630037 0.059271 0
M  V30 10 C 0.686351 -1.171599 -0.357273 0
M  V30 11 N 0.096611 -0.123012 0.228094 0
M  V30 12 C -1.106779 0.332428 -0.143546 0
M  V30 13 C -1.648330 1.417789 0.508871 0
M  V30 14 C -1.006103 2.141265 1.595334 0
M  V30 15 N -1.538795 3.187179 2.240038 0
M  V30 16 N -0.724395 3.632101 3.177378 0
M  V30 17 C 0.386410 2.881227 3.178498 0
M  V30 18 N 0.178463 1.986310 2.204003 0
M  V30 19 C -2.890372 1.817658 0.062043 0
M  V30 20 C -3.564576 1.191657 -0.964929 0
M  V30 21 C -2.974592 0.108985 -1.583329 0
M  V30 22 C -1.736110 -0.331274 -1.176255 0
M  V30 23 C -1.171340 -1.405422 -1.801861 0
M  V30 24 C -1.805681 -2.045441 -2.815636 0
M  V30 25 N -1.270484 -3.112948 -3.454323 0
M  V30 26 C -0.052737 -3.579052 -3.083279 0
M  V30 27 C 0.578388 -2.926027 -2.059594 0
M  V30 28 C 0.069429 -1.840279 -1.386607 0
M  V30 29 H 0.675943 -1.269342 4.634714 0
M  V30 30 H -0.810032 -1.700469 3.710803 0
M  V30 31 H 0.361811 -2.954014 4.109751 0
M  V30 32 H 2.664122 -0.853620 4.473470 0
M  V30 33 H 4.885735 -0.008284 4.131830 0
M  V30 34 H 5.836621 0.120625 1.882512 0
M  V30 35 H 4.467430 -0.636872 -0.045328 0
M  V30 36 H 2.536268 -2.389979 -0.289012 0
M  V30 37 H 1.270859 2.956636 3.812699 0
M  V30 38 H 0.882384 1.256549 1.963585 0
M  V30 39 H -3.355068 2.674373 0.552798 0
M  V30 40 H -4.543035 1.591167 -1.238406 0
M  V30 41 H -3.585241 -0.301946 -2.368471 0
M  V30 42 H -2.753364 -1.808226 -3.220997 0
M  V30 43 H 0.407943 -4.426279 -3.566277 0
M  V30 44 H 1.536817 -3.298033 -1.772255 0
M  V30 END ATOM
M  V30 BEGIN BOND
M  V30 1 1 1 2
M  V30 2 1 2 3
M  V30 3 2 3 4
M  V30 4 1 4 5
M  V30 5 2 5 6
M  V30 6 1 6 7
M  V30 7 2 7 8
M  V30 8 1 8 9
M  V30 9 1 9 10
M  V30 10 2 10 11
M  V30 11 1 11 12
M  V30 12 2 12 13
M  V30 13 1 13 14
M  V30 14 2 14 15
M  V30 15 1 15 16
M  V30 16 2 16 17
M  V30 17 1 17 18
M  V30 18 1 13 19
M  V30 19 2 19 20
M  V30 20 1 20 21
M  V30 21 2 21 22
M  V30 22 1 22 23
M  V30 23 2 23 24
M  V30 24 1 24 25
M  V30 25 2 25 26
M  V30 26 1 26 27
M  V30 27 2 27 28
M  V30 28 1 8 3
M  V30 29 1 28 10
M  V30 30 1 22 12
M  V30 31 1 28 23
M  V30 32 1 18 14
M  V30 33 1 1 29
M  V30 34 1 1 30
M  V30 35 1 1 31
M  V30 36 1 4 32
M  V30 37 1 5 33
M  V30 38 1 6 34
M  V30 39 1 7 35
M  V30 40 1 9 36
M  V30 41 1 17 37
M  V30 42 1 18 38
M  V30 43 1 19 39
M  V30 44 1 20 40
M  V30 45 1 21 41
M  V30 46 1 24 42
M  V30 47 1 26 43
M  V30 48 1 27 44
M  V30 END BOND
M  V30 END CTAB
M  END
>  <Dataset>  (113) 
ChEMBL_Kinases

>  <Ligand_Instance>  (113) 
nan

>  <PDB_ID>  (113) 
nan

>  <Standardized_SMILES>  (113) 
COc1ccccc1Nc1nc2c(-c3nnc[nH]3)cccc2c2cnccc12

>  <Name>  (113) 
nan

>  <Pocket>  (113) 
nan

>  <ATP_Site>  (113) 
nan

>  <Peripheral>  (113) 
nan

>  <Num_H_Atoms_ProtBoundConf>  (113) 
nan

>  <Num_Resolved_Atoms>  (113) 
nan

>  <Num_Not_Resolved_Atoms>  (113) 
nan

$$$$
CHEMBL1915648
     RDKit          3D

  0  0  0  0  0  0  0  0  0  0999 V3000
M  V30 BEGIN CTAB
M  V30 COUNTS 50 53 0 0 0
M  V30 BEGIN ATOM
M  V30 1 C 0.253546 -1.541182 3.948576 0
M  V30 2 C 1.499277 -0.882494 4.531095 0
M  V30 3 C 2.604010 -1.890200 4.525108 0
M  V30 4 C 1.851562 0.353674 3.724697 0
M  V30 5 N 2.117633 0.027970 2.343699 0
M  V30 6 C 2.458640 1.119282 1.466361 0
M  V30 7 O 2.511874 2.284856 1.917969 0
M  V30 8 C 2.702010 0.634332 0.091824 0
M  V30 9 C 3.862059 0.854996 -0.619747 0
M  V30 10 C 4.046494 0.376531 -1.909467 0
M  V30 11 C 3.015302 -0.342328 -2.474808 0
M  V30 12 C 1.847982 -0.577785 -1.790862 0
M  V30 13 C 1.673036 -0.099181 -0.511542 0
M  V30 14 N 0.530003 -0.325037 0.167544 0
M  V30 15 C -0.510356 -1.020154 -0.334989 0
M  V30 16 N -1.649271 -1.180760 0.475189 0
M  V30 17 C -2.852695 -0.396702 0.462281 0
M  V30 18 C -4.078553 -1.009666 0.212930 0
M  V30 19 C -5.303673 -0.394199 0.161456 0
M  V30 20 C -5.310155 0.958125 0.377962 0
M  V30 21 C -4.124052 1.636721 0.633035 0
M  V30 22 C -2.914011 0.979091 0.676133 0
M  V30 23 Cl -1.391335 1.802925 0.995256 0
M  V30 24 C -0.337812 -1.499222 -1.611596 0
M  V30 25 C -1.374658 -2.211917 -2.172039 0
M  V30 26 C -1.233472 -2.698826 -3.446383 0
M  V30 27 N -0.091394 -2.490544 -4.164358 0
M  V30 28 C 0.939831 -1.786292 -3.618008 0
M  V30 29 C 0.812504 -1.292461 -2.342170 0
M  V30 30 H -0.266901 -2.185667 4.683749 0
M  V30 31 H -0.447507 -0.736950 3.657287 0
M  V30 32 H 0.501480 -2.209950 3.095315 0
M  V30 33 H 1.232331 -0.607387 5.569239 0
M  V30 34 H 2.923263 -2.144425 3.506478 0
M  V30 35 H 3.453319 -1.455577 5.128633 0
M  V30 36 H 2.309067 -2.815831 5.026918 0
M  V30 37 H 2.761201 0.794153 4.210866 0
M  V30 38 H 1.031793 1.090289 3.821946 0
M  V30 39 H 2.045546 -0.992132 2.058687 0
M  V30 40 H 4.585712 1.422728 -0.078992 0
M  V30 41 H 5.000834 0.595287 -2.411173 0
M  V30 42 H 3.208069 -0.686237 -3.467229 0
M  V30 43 H -1.797799 -1.915069 1.229996 0
M  V30 44 H -4.032959 -2.080637 0.046237 0
M  V30 45 H -6.193282 -0.984779 -0.043020 0
M  V30 46 H -6.259094 1.485068 0.345998 0
M  V30 47 H -4.160440 2.705462 0.800101 0
M  V30 48 H -2.278078 -2.374249 -1.598588 0
M  V30 49 H -2.056627 -3.250111 -3.855559 0
M  V30 50 H 1.787270 -1.684979 -4.272772 0
M  V30 END ATOM
M  V30 BEGIN BOND
M  V30 1 1 1 2
M  V30 2 1 2 3
M  V30 3 1 2 4
M  V30 4 1 4 5
M  V30 5 1 5 6
M  V30 6 2 6 7
M  V30 7 1 6 8
M  V30 8 2 8 9
M  V30 9 1 9 10
M  V30 10 2 10 11
M  V30 11 1 11 12
M  V30 12 2 12 13
M  V30 13 1 13 14
M  V30 14 2 14 15
M  V30 15 1 15 16
M  V30 16 1 16 17
M  V30 17 2 17 18
M  V30 18 1 18 19
M  V30 19 2 19 20
M  V30 20 1 20 21
M  V30 21 2 21 22
M  V30 22 1 22 23
M  V30 23 1 15 24
M  V30 24 2 24 25
M  V30 25 1 25 26
M  V30 26 2 26 27
M  V30 27 1 27 28
M  V30 28 2 28 29
M  V30 29 1 13 8
M  V30 30 1 22 17
M  V30 31 1 29 24
M  V30 32 1 29 12
M  V30 33 1 1 30
M  V30 34 1 1 31
M  V30 35 1 1 32
M  V30 36 1 2 33
M  V30 37 1 3 34
M  V30 38 1 3 35
M  V30 39 1 3 36
M  V30 40 1 4 37
M  V30 41 1 4 38
M  V30 42 1 5 39
M  V30 43 1 9 40
M  V30 44 1 10 41
M  V30 45 1 11 42
M  V30 46 1 16 43
M  V30 47 1 18 44
M  V30 48 1 19 45
M  V30 49 1 20 46
M  V30 50 1 21 47
M  V30 51 1 25 48
M  V30 52 1 26 49
M  V30 53 1 28 50
M  V30 END BOND
M  V30 END CTAB
M  END
>  <Dataset>  (114) 
ChEMBL_Kinases

>  <Ligand_Instance>  (114) 
nan

>  <PDB_ID>  (114) 
nan

>  <Standardized_SMILES>  (114) 
CC(C)CNC(=O)c1cccc2c1nc(Nc1ccccc1Cl)c1ccncc12

>  <Name>  (114) 
nan

>  <Pocket>  (114) 
nan

>  <ATP_Site>  (114) 
nan

>  <Peripheral>  (114) 
nan

>  <Num_H_Atoms_ProtBoundConf>  (114) 
nan

>  <Num_Resolved_Atoms>  (114) 
nan

>  <Num_Not_Resolved_Atoms>  (114) 
nan

$$$$
CHEMBL1915647
     RDKit          3D

  0  0  0  0  0  0  0  0  0  0999 V3000
M  V30 BEGIN CTAB
M  V30 COUNTS 47 50 0 0 0
M  V30 BEGIN ATOM
M  V30 1 C 4.818549 -2.759244 2.658549 0
M  V30 2 C 4.157317 -1.647878 3.463883 0
M  V30 3 C 4.333785 -1.977195 4.925894 0
M  V30 4 N 2.751618 -1.558540 3.100741 0
M  V30 5 C 1.736825 -0.657833 2.620105 0
M  V30 6 O 2.293643 0.456879 2.464269 0
M  V30 7 C 0.413744 -1.313345 2.475364 0
M  V30 8 C -0.007078 -2.095480 3.528502 0
M  V30 9 C -1.224350 -2.726294 3.394072 0
M  V30 10 C -1.971254 -2.569060 2.249076 0
M  V30 11 C -1.561751 -1.799106 1.209555 0
M  V30 12 C -0.346499 -1.150066 1.306337 0
M  V30 13 N 0.077094 -0.374004 0.286987 0
M  V30 14 C -0.694165 -0.241720 -0.821171 0
M  V30 15 N -0.173806 0.619092 -1.861621 0
M  V30 16 C -0.641662 1.967852 -1.829186 0
M  V30 17 C -1.552844 2.383323 -0.882223 0
M  V30 18 C -2.022627 3.682657 -0.811003 0
M  V30 19 C -1.551087 4.590123 -1.732812 0
M  V30 20 C -0.626022 4.257243 -2.727832 0
M  V30 21 C -0.212919 2.924941 -2.717684 0
M  V30 22 Cl 0.950878 2.459078 -3.947714 0
M  V30 23 C -1.906896 -0.886590 -0.926478 0
M  V30 24 C -2.681695 -0.754516 -2.042264 0
M  V30 25 C -3.879033 -1.412236 -2.105196 0
M  V30 26 N -4.308385 -2.186268 -1.092602 0
M  V30 27 C -3.546085 -2.331653 0.031794 0
M  V30 28 C -2.357930 -1.679302 0.096866 0
M  V30 29 H 5.300771 -3.510611 3.341569 0
M  V30 30 H 5.596462 -2.380977 1.983292 0
M  V30 31 H 4.020778 -3.321847 2.104994 0
M  V30 32 H 4.696438 -0.695186 3.288189 0
M  V30 33 H 4.870607 -2.937634 5.031440 0
M  V30 34 H 3.323459 -2.133531 5.403144 0
M  V30 35 H 4.925843 -1.233297 5.464469 0
M  V30 36 H 2.482648 -2.572625 3.315278 0
M  V30 37 H 0.621052 -2.187740 4.406729 0
M  V30 38 H -1.487493 -3.327931 4.266255 0
M  V30 39 H -2.882043 -3.135928 2.333286 0
M  V30 40 H 0.510057 0.381134 -2.641632 0
M  V30 41 H -1.958771 1.724122 -0.138886 0
M  V30 42 H -2.751374 4.027741 -0.059737 0
M  V30 43 H -1.855387 5.633825 -1.766559 0
M  V30 44 H -0.242478 4.939257 -3.452876 0
M  V30 45 H -2.339947 -0.141504 -2.848164 0
M  V30 46 H -4.526949 -1.326715 -2.989656 0
M  V30 47 H -3.980956 -2.965678 0.766250 0
M  V30 END ATOM
M  V30 BEGIN BOND
M  V30 1 1 1 2
M  V30 2 1 2 3
M  V30 3 1 2 4
M  V30 4 1 4 5
M  V30 5 2 5 6
M  V30 6 1 5 7
M  V30 7 2 7 8
M  V30 8 1 8 9
M  V30 9 2 9 10
M  V30 10 1 10 11
M  V30 11 2 11 12
M  V30 12 1 12 13
M  V30 13 2 13 14
M  V30 14 1 14 15
M  V30 15 1 15 16
M  V30 16 2 16 17
M  V30 17 1 17 18
M  V30 18 2 18 19
M  V30 19 1 19 20
M  V30 20 2 20 21
M  V30 21 1 21 22
M  V30 22 1 14 23
M  V30 23 2 23 24
M  V30 24 1 24 25
M  V30 25 2 25 26
M  V30 26 1 26 27
M  V30 27 2 27 28
M  V30 28 1 12 7
M  V30 29 1 21 16
M  V30 30 1 28 23
M  V30 31 1 28 11
M  V30 32 1 1 29
M  V30 33 1 1 30
M  V30 34 1 1 31
M  V30 35 1 2 32
M  V30 36 1 3 33
M  V30 37 1 3 34
M  V30 38 1 3 35
M  V30 39 1 4 36
M  V30 40 1 8 37
M  V30 41 1 9 38
M  V30 42 1 10 39
M  V30 43 1 15 40
M  V30 44 1 17 41
M  V30 45 1 18 42
M  V30 46 1 19 43
M  V30 47 1 20 44
M  V30 48 1 24 45
M  V30 49 1 25 46
M  V30 50 1 27 47
M  V30 END BOND
M  V30 END CTAB
M  END
>  <Dataset>  (115) 
ChEMBL_Kinases

>  <Ligand_Instance>  (115) 
nan

>  <PDB_ID>  (115) 
nan

>  <Standardized_SMILES>  (115) 
CC(C)NC(=O)c1cccc2c1nc(Nc1ccccc1Cl)c1ccncc12

>  <Name>  (115) 
nan

>  <Pocket>  (115) 
nan

>  <ATP_Site>  (115) 
nan

>  <Peripheral>  (115) 
nan

>  <Num_H_Atoms_ProtBoundConf>  (115) 
nan

>  <Num_Resolved_Atoms>  (115) 
nan

>  <Num_Not_Resolved_Atoms>  (115) 
nan

$$$$
CHEMBL1915646
     RDKit          3D

  0  0  0  0  0  0  0  0  0  0999 V3000
M  V30 BEGIN CTAB
M  V30 COUNTS 44 47 0 0 0
M  V30 BEGIN ATOM
M  V30 1 C 1.939765 -1.559635 4.466487 0
M  V30 2 C 2.298037 -2.666849 3.512224 0
M  V30 3 N 2.145983 -2.311154 2.119621 0
M  V30 4 C 2.877718 -1.211252 1.538339 0
M  V30 5 O 3.616635 -0.650804 2.409664 0
M  V30 6 C 2.685345 -0.913474 0.126060 0
M  V30 7 C 3.875635 -1.120673 -0.585658 0
M  V30 8 C 3.931219 -0.911541 -1.963802 0
M  V30 9 C 2.783188 -0.490380 -2.637998 0
M  V30 10 C 1.650718 -0.298203 -1.927578 0
M  V30 11 C 1.578535 -0.499238 -0.567739 0
M  V30 12 N 0.493950 -0.329696 0.190492 0
M  V30 13 C -0.661029 0.070641 -0.362722 0
M  V30 14 N -1.847625 0.294342 0.356886 0
M  V30 15 C -2.027223 0.317818 1.758254 0
M  V30 16 C -1.043178 0.146836 2.688409 0
M  V30 17 C -1.222197 0.174773 4.052808 0
M  V30 18 C -2.478792 0.389145 4.576886 0
M  V30 19 C -3.500982 0.566494 3.696330 0
M  V30 20 C -3.271797 0.530080 2.346701 0
M  V30 21 Cl -4.683037 0.772805 1.305544 0
M  V30 22 C -0.649579 0.287161 -1.721585 0
M  V30 23 C -1.742887 0.703259 -2.453175 0
M  V30 24 C -1.798999 0.941068 -3.814064 0
M  V30 25 N -0.635387 0.738032 -4.500355 0
M  V30 26 C 0.476683 0.332568 -3.860939 0
M  V30 27 C 0.476093 0.110460 -2.501111 0
M  V30 28 H 2.784460 -1.366694 5.172942 0
M  V30 29 H 1.771574 -0.625873 3.870178 0
M  V30 30 H 1.038137 -1.828456 5.060780 0
M  V30 31 H 3.329078 -3.035437 3.762928 0
M  V30 32 H 1.600617 -3.526054 3.694525 0
M  V30 33 H 1.493761 -2.837925 1.463190 0
M  V30 34 H 4.821494 -1.448187 -0.152208 0
M  V30 35 H 4.862323 -1.073667 -2.515857 0
M  V30 36 H 2.889828 -0.352514 -3.666801 0
M  V30 37 H -2.742268 0.463240 -0.135015 0
M  V30 38 H -0.030577 -0.024682 2.415391 0
M  V30 39 H -0.431718 0.041019 4.774289 0
M  V30 40 H -2.662922 0.417627 5.631100 0
M  V30 41 H -4.493017 0.736461 4.086585 0
M  V30 42 H -2.677555 0.881356 -1.967803 0
M  V30 43 H -2.696566 1.266962 -4.317635 0
M  V30 44 H 1.274440 0.229422 -4.546978 0
M  V30 END ATOM
M  V30 BEGIN BOND
M  V30 1 1 1 2
M  V30 2 1 2 3
M  V30 3 1 3 4
M  V30 4 2 4 5
M  V30 5 1 4 6
M  V30 6 2 6 7
M  V30 7 1 7 8
M  V30 8 2 8 9
M  V30 9 1 9 10
M  V30 10 2 10 11
M  V30 11 1 11 12
M  V30 12 2 12 13
M  V30 13 1 13 14
M  V30 14 1 14 15
M  V30 15 2 15 16
M  V30 16 1 16 17
M  V30 17 2 17 18
M  V30 18 1 18 19
M  V30 19 2 19 20
M  V30 20 1 20 21
M  V30 21 1 13 22
M  V30 22 2 22 23
M  V30 23 1 23 24
M  V30 24 2 24 25
M  V30 25 1 25 26
M  V30 26 2 26 27
M  V30 27 1 11 6
M  V30 28 1 20 15
M  V30 29 1 27 22
M  V30 30 1 27 10
M  V30 31 1 1 28
M  V30 32 1 1 29
M  V30 33 1 1 30
M  V30 34 1 2 31
M  V30 35 1 2 32
M  V30 36 1 3 33
M  V30 37 1 7 34
M  V30 38 1 8 35
M  V30 39 1 9 36
M  V30 40 1 14 37
M  V30 41 1 16 38
M  V30 42 1 17 39
M  V30 43 1 18 40
M  V30 44 1 19 41
M  V30 45 1 23 42
M  V30 46 1 24 43
M  V30 47 1 26 44
M  V30 END BOND
M  V30 END CTAB
M  END
>  <Dataset>  (116) 
ChEMBL_Kinases

>  <Ligand_Instance>  (116) 
nan

>  <PDB_ID>  (116) 
nan

>  <Standardized_SMILES>  (116) 
CCNC(=O)c1cccc2c1nc(Nc1ccccc1Cl)c1ccncc12

>  <Name>  (116) 
nan

>  <Pocket>  (116) 
nan

>  <ATP_Site>  (116) 
nan

>  <Peripheral>  (116) 
nan

>  <Num_H_Atoms_ProtBoundConf>  (116) 
nan

>  <Num_Resolved_Atoms>  (116) 
nan

>  <Num_Not_Resolved_Atoms>  (116) 
nan

$$$$
CHEMBL1915645
     RDKit          3D

  0  0  0  0  0  0  0  0  0  0999 V3000
M  V30 BEGIN CTAB
M  V30 COUNTS 45 48 0 0 0
M  V30 BEGIN ATOM
M  V30 1 C 3.496812 -4.361346 1.523194 0
M  V30 2 N 2.387086 -4.320950 0.607157 0
M  V30 3 C 1.062266 -3.883543 0.443944 0
M  V30 4 O 0.442088 -3.256672 1.377295 0
M  V30 5 C 0.207337 -4.042227 -0.714720 0
M  V30 6 C -0.084186 -5.311081 -1.164096 0
M  V30 7 C -0.886609 -5.611004 -2.270094 0
M  V30 8 C -1.413481 -4.518428 -2.942902 0
M  V30 9 C -1.137556 -3.241149 -2.513461 0
M  V30 10 C -0.344681 -2.971818 -1.421968 0
M  V30 11 N -0.082630 -1.717114 -1.015496 0
M  V30 12 C -0.582406 -0.644224 -1.655218 0
M  V30 13 N -0.357064 0.690533 -1.283255 0
M  V30 14 C -1.007463 1.695370 -0.560094 0
M  V30 15 C -2.242625 1.509442 0.012615 0
M  V30 16 C -2.904287 2.483153 0.729171 0
M  V30 17 C -2.230974 3.708469 0.846549 0
M  V30 18 C -0.987714 3.895043 0.270087 0
M  V30 19 O -0.310817 5.111881 0.384885 0
M  V30 20 C -0.814139 6.235577 1.071253 0
M  V30 21 C -0.357335 2.901778 -0.437800 0
M  V30 22 Cl 1.210512 3.163573 -1.157526 0
M  V30 23 C -1.377086 -0.907537 -2.749788 0
M  V30 24 C -1.914687 0.148311 -3.443613 0
M  V30 25 C -2.729614 -0.051829 -4.565301 0
M  V30 26 N -2.994507 -1.303665 -4.975816 0
M  V30 27 C -2.468241 -2.347109 -4.296121 0
M  V30 28 C -1.666285 -2.170805 -3.193334 0
M  V30 29 H 3.719421 -5.442756 1.740191 0
M  V30 30 H 4.346150 -3.849758 1.048545 0
M  V30 31 H 3.268454 -3.820457 2.476942 0
M  V30 32 H 2.685033 -4.810341 -0.290185 0
M  V30 33 H 0.348153 -6.154747 -0.609806 0
M  V30 34 H -1.032312 -6.654131 -2.511227 0
M  V30 35 H -2.021352 -4.799688 -3.783946 0
M  V30 36 H 0.569252 0.799906 -1.744330 0
M  V30 37 H -2.679456 0.533899 -0.134494 0
M  V30 38 H -3.865150 2.331917 1.172349 0
M  V30 39 H -2.754636 4.461056 1.405235 0
M  V30 40 H -1.328409 6.851760 0.272978 0
M  V30 41 H -1.586848 6.035155 1.811264 0
M  V30 42 H 0.007630 6.906103 1.418789 0
M  V30 43 H -1.735617 1.191131 -3.157753 0
M  V30 44 H -3.125926 0.805995 -5.075417 0
M  V30 45 H -2.748681 -3.289754 -4.715317 0
M  V30 END ATOM
M  V30 BEGIN BOND
M  V30 1 1 1 2
M  V30 2 1 2 3
M  V30 3 2 3 4
M  V30 4 1 3 5
M  V30 5 2 5 6
M  V30 6 1 6 7
M  V30 7 2 7 8
M  V30 8 1 8 9
M  V30 9 2 9 10
M  V30 10 1 10 11
M  V30 11 2 11 12
M  V30 12 1 12 13
M  V30 13 1 13 14
M  V30 14 2 14 15
M  V30 15 1 15 16
M  V30 16 2 16 17
M  V30 17 1 17 18
M  V30 18 1 18 19
M  V30 19 1 19 20
M  V30 20 2 18 21
M  V30 21 1 21 22
M  V30 22 1 12 23
M  V30 23 2 23 24
M  V30 24 1 24 25
M  V30 25 2 25 26
M  V30 26 1 26 27
M  V30 27 2 27 28
M  V30 28 1 10 5
M  V30 29 1 21 14
M  V30 30 1 28 23
M  V30 31 1 28 9
M  V30 32 1 1 29
M  V30 33 1 1 30
M  V30 34 1 1 31
M  V30 35 1 2 32
M  V30 36 1 6 33
M  V30 37 1 7 34
M  V30 38 1 8 35
M  V30 39 1 13 36
M  V30 40 1 15 37
M  V30 41 1 16 38
M  V30 42 1 17 39
M  V30 43 1 20 40
M  V30 44 1 20 41
M  V30 45 1 20 42
M  V30 46 1 24 43
M  V30 47 1 25 44
M  V30 48 1 27 45
M  V30 END BOND
M  V30 END CTAB
M  END
>  <Dataset>  (117) 
ChEMBL_Kinases

>  <Ligand_Instance>  (117) 
nan

>  <PDB_ID>  (117) 
nan

>  <Standardized_SMILES>  (117) 
CNC(=O)c1cccc2c1nc(Nc1cccc(OC)c1Cl)c1ccncc12

>  <Name>  (117) 
nan

>  <Pocket>  (117) 
nan

>  <ATP_Site>  (117) 
nan

>  <Peripheral>  (117) 
nan

>  <Num_H_Atoms_ProtBoundConf>  (117) 
nan

>  <Num_Resolved_Atoms>  (117) 
nan

>  <Num_Not_Resolved_Atoms>  (117) 
nan

$$$$
CHEMBL1915644
     RDKit          3D

  0  0  0  0  0  0  0  0  0  0999 V3000
M  V30 BEGIN CTAB
M  V30 COUNTS 41 44 0 0 0
M  V30 BEGIN ATOM
M  V30 1 C 3.667747 -2.895530 1.804669 0
M  V30 2 N 2.622010 -2.747818 0.848433 0
M  V30 3 C 2.384255 -2.011985 -0.356856 0
M  V30 4 O 3.243121 -1.236048 -0.843456 0
M  V30 5 C 1.107203 -2.137261 -1.073732 0
M  V30 6 C 0.693243 -3.082992 -1.985500 0
M  V30 7 C -0.558797 -3.027724 -2.553810 0
M  V30 8 C -1.435022 -2.017154 -2.221652 0
M  V30 9 C -1.046258 -1.068583 -1.319813 0
M  V30 10 C 0.213401 -1.109035 -0.736817 0
M  V30 11 N 0.529872 -0.145507 0.139503 0
M  V30 12 C -0.322558 0.835311 0.460309 0
M  V30 13 N 0.296062 1.717244 1.413266 0
M  V30 14 C 0.752108 1.141214 2.645088 0
M  V30 15 C 2.129711 1.309093 2.800154 0
M  V30 16 C 2.806818 0.840690 3.908088 0
M  V30 17 C 2.115405 0.178054 4.913201 0
M  V30 18 C 0.751500 0.020086 4.742762 0
M  V30 19 C 0.067691 0.482781 3.643505 0
M  V30 20 Cl -1.644064 0.332121 3.334134 0
M  V30 21 C -1.580594 0.907984 -0.096948 0
M  V30 22 C -2.340873 1.968552 0.331462 0
M  V30 23 C -3.603852 1.976692 -0.274706 0
M  V30 24 N -3.992057 1.047960 -1.160275 0
M  V30 25 C -3.196918 0.032142 -1.537938 0
M  V30 26 C -1.933214 -0.066197 -0.999181 0
M  V30 27 H 3.990596 -3.958576 1.816534 0
M  V30 28 H 4.502765 -2.191302 1.578072 0
M  V30 29 H 3.252493 -2.676479 2.820663 0
M  V30 30 H 1.808406 -3.370138 1.132197 0
M  V30 31 H 1.439516 -3.830420 -2.185025 0
M  V30 32 H -0.770598 -3.833268 -3.263059 0
M  V30 33 H -2.379248 -2.074323 -2.723836 0
M  V30 34 H 0.466589 2.747520 1.324763 0
M  V30 35 H 2.804483 1.806057 2.101396 0
M  V30 36 H 3.871722 0.948457 4.068465 0
M  V30 37 H 2.580038 -0.216602 5.811174 0
M  V30 38 H 0.110228 -0.483368 5.462676 0
M  V30 39 H -1.984309 2.692894 1.047489 0
M  V30 40 H -4.288248 2.775117 -0.008772 0
M  V30 41 H -3.577541 -0.675710 -2.251548 0
M  V30 END ATOM
M  V30 BEGIN BOND
M  V30 1 1 1 2
M  V30 2 1 2 3
M  V30 3 2 3 4
M  V30 4 1 3 5
M  V30 5 2 5 6
M  V30 6 1 6 7
M  V30 7 2 7 8
M  V30 8 1 8 9
M  V30 9 2 9 10
M  V30 10 1 10 11
M  V30 11 2 11 12
M  V30 12 1 12 13
M  V30 13 1 13 14
M  V30 14 2 14 15
M  V30 15 1 15 16
M  V30 16 2 16 17
M  V30 17 1 17 18
M  V30 18 2 18 19
M  V30 19 1 19 20
M  V30 20 1 12 21
M  V30 21 2 21 22
M  V30 22 1 22 23
M  V30 23 2 23 24
M  V30 24 1 24 25
M  V30 25 2 25 26
M  V30 26 1 10 5
M  V30 27 1 19 14
M  V30 28 1 26 21
M  V30 29 1 26 9
M  V30 30 1 1 27
M  V30 31 1 1 28
M  V30 32 1 1 29
M  V30 33 1 2 30
M  V30 34 1 6 31
M  V30 35 1 7 32
M  V30 36 1 8 33
M  V30 37 1 13 34
M  V30 38 1 15 35
M  V30 39 1 16 36
M  V30 40 1 17 37
M  V30 41 1 18 38
M  V30 42 1 22 39
M  V30 43 1 23 40
M  V30 44 1 25 41
M  V30 END BOND
M  V30 END CTAB
M  END
>  <Dataset>  (118) 
ChEMBL_Kinases

>  <Ligand_Instance>  (118) 
nan

>  <PDB_ID>  (118) 
nan

>  <Standardized_SMILES>  (118) 
CNC(=O)c1cccc2c1nc(Nc1ccccc1Cl)c1ccncc12

>  <Name>  (118) 
nan

>  <Pocket>  (118) 
nan

>  <ATP_Site>  (118) 
nan

>  <Peripheral>  (118) 
nan

>  <Num_H_Atoms_ProtBoundConf>  (118) 
nan

>  <Num_Resolved_Atoms>  (118) 
nan

>  <Num_Not_Resolved_Atoms>  (118) 
nan

$$$$
CHEMBL1915643
     RDKit          3D

  0  0  0  0  0  0  0  0  0  0999 V3000
M  V30 BEGIN CTAB
M  V30 COUNTS 38 41 0 0 0
M  V30 BEGIN ATOM
M  V30 1 N 2.371983 -2.688209 -1.512249 0
M  V30 2 C 2.783617 -3.284213 -0.299839 0
M  V30 3 O 3.760534 -4.017617 -0.557559 0
M  V30 4 C 2.149493 -3.046451 0.964423 0
M  V30 5 C 2.706809 -3.743334 2.012849 0
M  V30 6 C 2.203210 -3.623228 3.291429 0
M  V30 7 C 1.126821 -2.804550 3.566286 0
M  V30 8 C 0.586432 -2.117942 2.503398 0
M  V30 9 C 1.083325 -2.232401 1.224960 0
M  V30 10 N 0.557157 -1.557838 0.181401 0
M  V30 11 C -0.502843 -0.733850 0.393588 0
M  V30 12 N -1.022813 -0.026985 -0.752201 0
M  V30 13 C -0.706061 1.315503 -1.114362 0
M  V30 14 C -1.650319 2.310690 -1.243538 0
M  V30 15 C -1.401535 3.616614 -1.579714 0
M  V30 16 C -0.092622 4.002535 -1.817559 0
M  V30 17 C 0.895845 3.055753 -1.704743 0
M  V30 18 C 0.574016 1.764519 -1.363766 0
M  V30 19 Cl 1.912676 0.653173 -1.245708 0
M  V30 20 C -1.045477 -0.583871 1.675377 0
M  V30 21 C -2.119084 0.257470 1.867772 0
M  V30 22 C -2.635122 0.393112 3.129862 0
M  V30 23 N -2.084319 -0.297197 4.158492 0
M  V30 24 C -1.036608 -1.115425 3.958435 0
M  V30 25 C -0.484357 -1.285410 2.712837 0
M  V30 26 H 1.405010 -2.877453 -1.860092 0
M  V30 27 H 2.287749 -2.161419 -2.395906 0
M  V30 28 H 3.552343 -4.400678 1.860172 0
M  V30 29 H 2.664637 -4.189349 4.115080 0
M  V30 30 H 0.795089 -2.766172 4.588734 0
M  V30 31 H -1.637300 -0.715151 -1.196420 0
M  V30 32 H -2.707403 2.073796 -1.072449 0
M  V30 33 H -2.154787 4.383138 -1.677794 0
M  V30 34 H 0.134367 5.017933 -2.081410 0
M  V30 35 H 1.923404 3.370746 -1.891934 0
M  V30 36 H -2.542898 0.792665 1.052339 0
M  V30 37 H -3.477826 1.040728 3.338090 0
M  V30 38 H -0.698423 -1.600769 4.853899 0
M  V30 END ATOM
M  V30 BEGIN BOND
M  V30 1 1 1 2
M  V30 2 2 2 3
M  V30 3 1 2 4
M  V30 4 2 4 5
M  V30 5 1 5 6
M  V30 6 2 6 7
M  V30 7 1 7 8
M  V30 8 2 8 9
M  V30 9 1 9 10
M  V30 10 2 10 11
M  V30 11 1 11 12
M  V30 12 1 12 13
M  V30 13 2 13 14
M  V30 14 1 14 15
M  V30 15 2 15 16
M  V30 16 1 16 17
M  V30 17 2 17 18
M  V30 18 1 18 19
M  V30 19 1 11 20
M  V30 20 2 20 21
M  V30 21 1 21 22
M  V30 22 2 22 23
M  V30 23 1 23 24
M  V30 24 2 24 25
M  V30 25 1 9 4
M  V30 26 1 18 13
M  V30 27 1 25 20
M  V30 28 1 25 8
M  V30 29 1 1 26
M  V30 30 1 1 27
M  V30 31 1 5 28
M  V30 32 1 6 29
M  V30 33 1 7 30
M  V30 34 1 12 31
M  V30 35 1 14 32
M  V30 36 1 15 33
M  V30 37 1 16 34
M  V30 38 1 17 35
M  V30 39 1 21 36
M  V30 40 1 22 37
M  V30 41 1 24 38
M  V30 END BOND
M  V30 END CTAB
M  END
>  <Dataset>  (119) 
ChEMBL_Kinases

>  <Ligand_Instance>  (119) 
nan

>  <PDB_ID>  (119) 
nan

>  <Standardized_SMILES>  (119) 
NC(=O)c1cccc2c1nc(Nc1ccccc1Cl)c1ccncc12

>  <Name>  (119) 
nan

>  <Pocket>  (119) 
nan

>  <ATP_Site>  (119) 
nan

>  <Peripheral>  (119) 
nan

>  <Num_H_Atoms_ProtBoundConf>  (119) 
nan

>  <Num_Resolved_Atoms>  (119) 
nan

>  <Num_Not_Resolved_Atoms>  (119) 
nan

$$$$
CHEMBL1915642
     RDKit          3D

  0  0  0  0  0  0  0  0  0  0999 V3000
M  V30 BEGIN CTAB
M  V30 COUNTS 55 59 0 0 0
M  V30 BEGIN ATOM
M  V30 1 C 5.952023 1.812516 2.718410 0
M  V30 2 N 5.467533 0.861665 1.791339 0
M  V30 3 C 4.284600 0.203240 2.211609 0
M  V30 4 C 5.607944 1.136103 0.408360 0
M  V30 5 C 4.791676 2.268214 -0.105161 0
M  V30 6 O 3.419561 2.136628 0.044907 0
M  V30 7 C 2.543537 1.218775 -0.452173 0
M  V30 8 C 2.587599 0.105556 -1.260784 0
M  V30 9 C 1.473072 -0.634270 -1.582586 0
M  V30 10 C 0.240730 -0.267641 -1.087557 0
M  V30 11 N -0.885879 -1.067400 -1.448309 0
M  V30 12 C -1.800945 -1.800032 -0.629934 0
M  V30 13 N -2.944874 -1.267056 -0.168857 0
M  V30 14 C -3.829126 -1.883961 0.587905 0
M  V30 15 C -4.969657 -1.227484 0.997997 0
M  V30 16 C -5.289948 0.143466 0.651232 0
M  V30 17 N -6.394022 0.809428 1.040191 0
M  V30 18 N -6.402826 2.041792 0.564963 0
M  V30 19 C -5.269980 2.224580 -0.171526 0
M  V30 20 N -4.624450 1.043132 -0.090185 0
M  V30 21 C -5.845009 -1.944983 1.788310 0
M  V30 22 C -5.651249 -3.250869 2.182860 0
M  V30 23 C -4.508534 -3.903875 1.769798 0
M  V30 24 C -3.626802 -3.199878 0.981853 0
M  V30 25 C -2.468311 -3.791610 0.534605 0
M  V30 26 C -2.176399 -5.092580 0.869855 0
M  V30 27 N -1.059850 -5.722401 0.462061 0
M  V30 28 C -0.153352 -5.069401 -0.321525 0
M  V30 29 C -0.460578 -3.766916 -0.648310 0
M  V30 30 C -1.578909 -3.101257 -0.253587 0
M  V30 31 C 0.124536 0.839172 -0.270759 0
M  V30 32 F -1.134195 1.099358 0.153094 0
M  V30 33 C 1.276923 1.577034 0.043155 0
M  V30 34 H 5.223125 1.860277 3.581263 0
M  V30 35 H 6.912079 1.507401 3.181437 0
M  V30 36 H 5.973459 2.850739 2.335887 0
M  V30 37 H 3.946603 -0.503197 1.396596 0
M  V30 38 H 3.467663 0.917130 2.359989 0
M  V30 39 H 4.401150 -0.379836 3.150809 0
M  V30 40 H 5.391797 0.204065 -0.145679 0
M  V30 41 H 6.683769 1.379398 0.154681 0
M  V30 42 H 5.113032 3.258051 0.288636 0
M  V30 43 H 4.968290 2.372716 -1.222024 0
M  V30 44 H 3.591364 -0.074787 -1.589595 0
M  V30 45 H 1.678114 -1.475822 -2.225906 0
M  V30 46 H -1.088683 -1.139842 -2.475100 0
M  V30 47 H -4.956438 3.115759 -0.704002 0
M  V30 48 H -3.728701 0.905542 -0.562588 0
M  V30 49 H -6.758810 -1.453051 2.130410 0
M  V30 50 H -6.384827 -3.741894 2.800780 0
M  V30 51 H -4.391347 -4.910058 2.091514 0
M  V30 52 H -2.778195 -5.743816 1.475457 0
M  V30 53 H 0.744027 -5.563230 -0.654093 0
M  V30 54 H 0.271706 -3.265589 -1.271226 0
M  V30 55 H 0.971069 2.410068 0.698747 0
M  V30 END ATOM
M  V30 BEGIN BOND
M  V30 1 1 1 2
M  V30 2 1 2 3
M  V30 3 1 2 4
M  V30 4 1 4 5
M  V30 5 1 5 6
M  V30 6 1 6 7
M  V30 7 2 7 8
M  V30 8 1 8 9
M  V30 9 2 9 10
M  V30 10 1 10 11
M  V30 11 1 11 12
M  V30 12 2 12 13
M  V30 13 1 13 14
M  V30 14 2 14 15
M  V30 15 1 15 16
M  V30 16 2 16 17
M  V30 17 1 17 18
M  V30 18 2 18 19
M  V30 19 1 19 20
M  V30 20 1 15 21
M  V30 21 2 21 22
M  V30 22 1 22 23
M  V30 23 2 23 24
M  V30 24 1 24 25
M  V30 25 2 25 26
M  V30 26 1 26 27
M  V30 27 2 27 28
M  V30 28 1 28 29
M  V30 29 2 29 30
M  V30 30 1 10 31
M  V30 31 1 31 32
M  V30 32 2 31 33
M  V30 33 1 33 7
M  V30 34 1 30 12
M  V30 35 1 24 14
M  V30 36 1 30 25
M  V30 37 1 20 16
M  V30 38 1 1 34
M  V30 39 1 1 35
M  V30 40 1 1 36
M  V30 41 1 3 37
M  V30 42 1 3 38
M  V30 43 1 3 39
M  V30 44 1 4 40
M  V30 45 1 4 41
M  V30 46 1 5 42
M  V30 47 1 5 43
M  V30 48 1 8 44
M  V30 49 1 9 45
M  V30 50 1 11 46
M  V30 51 1 19 47
M  V30 52 1 20 48
M  V30 53 1 21 49
M  V30 54 1 22 50
M  V30 55 1 23 51
M  V30 56 1 26 52
M  V30 57 1 28 53
M  V30 58 1 29 54
M  V30 59 1 33 55
M  V30 END BOND
M  V30 END CTAB
M  END
>  <Dataset>  (120) 
ChEMBL_Kinases

>  <Ligand_Instance>  (120) 
nan

>  <PDB_ID>  (120) 
nan

>  <Standardized_SMILES>  (120) 
CN(C)CCOc1ccc(Nc2nc3c(-c4nnc[nH]4)cccc3c3cnccc23)c(F)c1

>  <Name>  (120) 
nan

>  <Pocket>  (120) 
nan

>  <ATP_Site>  (120) 
nan

>  <Peripheral>  (120) 
nan

>  <Num_H_Atoms_ProtBoundConf>  (120) 
nan

>  <Num_Resolved_Atoms>  (120) 
nan

>  <Num_Not_Resolved_Atoms>  (120) 
nan

$$$$
CHEMBL1915641
     RDKit          3D

  0  0  0  0  0  0  0  0  0  0999 V3000
M  V30 BEGIN CTAB
M  V30 COUNTS 59 64 0 0 0
M  V30 BEGIN ATOM
M  V30 1 F 3.730611 0.721729 2.905446 0
M  V30 2 C 2.523959 0.147640 2.585638 0
M  V30 3 C 1.606800 -0.276691 3.556565 0
M  V30 4 C 0.368746 -0.864158 3.246114 0
M  V30 5 O -0.255289 -1.150207 4.417466 0
M  V30 6 C -1.497989 -1.713750 4.664908 0
M  V30 7 C -2.626741 -0.861729 4.150035 0
M  V30 8 N -3.919418 -1.466731 4.421463 0
M  V30 9 C -4.949586 -0.562133 3.884491 0
M  V30 10 C -6.218403 -0.978204 4.553065 0
M  V30 11 C -5.762221 -1.816417 5.749096 0
M  V30 12 C -4.264694 -1.521908 5.808172 0
M  V30 13 C 0.107425 -1.000543 1.904815 0
M  V30 14 C 1.004668 -0.584771 0.953576 0
M  V30 15 C 2.213171 -0.011319 1.254313 0
M  V30 16 N 3.090148 0.374166 0.210842 0
M  V30 17 C 2.981543 0.207644 -1.191807 0
M  V30 18 N 2.166161 -0.677100 -1.805270 0
M  V30 19 C 2.086759 -0.768585 -3.137907 0
M  V30 20 C 1.249354 -1.684243 -3.770153 0
M  V30 21 C 0.436512 -2.620794 -3.007917 0
M  V30 22 N 0.329991 -2.857788 -1.693944 0
M  V30 23 N -0.528428 -3.820558 -1.417715 0
M  V30 24 C -1.037880 -4.270819 -2.574410 0
M  V30 25 N -0.429810 -3.520965 -3.506324 0
M  V30 26 C 1.168933 -1.777909 -5.164976 0
M  V30 27 C 1.933809 -0.949294 -5.963185 0
M  V30 28 C 2.759836 -0.048737 -5.349282 0
M  V30 29 C 2.826714 0.030517 -3.980121 0
M  V30 30 C 3.666880 0.942484 -3.390045 0
M  V30 31 C 4.417674 1.759353 -4.178169 0
M  V30 32 N 5.270058 2.690888 -3.670919 0
M  V30 33 C 5.390573 2.826637 -2.315905 0
M  V30 34 C 4.611947 1.979459 -1.556078 0
M  V30 35 C 3.737766 1.023557 -2.020128 0
M  V30 36 H 2.020453 -0.073591 4.558702 0
M  V30 37 H -1.623942 -2.708620 4.131743 0
M  V30 38 H -1.621317 -1.863118 5.763207 0
M  V30 39 H -2.585506 0.163393 4.623269 0
M  V30 40 H -2.554363 -0.788176 3.057881 0
M  V30 41 H -4.973287 -0.591162 2.777772 0
M  V30 42 H -4.642586 0.454055 4.269380 0
M  V30 43 H -6.755180 -0.056630 4.917369 0
M  V30 44 H -6.837623 -1.554051 3.846018 0
M  V30 45 H -6.287465 -1.516087 6.677905 0
M  V30 46 H -5.956826 -2.878870 5.491828 0
M  V30 47 H -4.152179 -0.515508 6.274936 0
M  V30 48 H -3.737094 -2.310194 6.375249 0
M  V30 49 H -0.839610 -1.465814 1.713194 0
M  V30 50 H 0.635007 -0.750523 -0.036123 0
M  V30 51 H 3.940609 0.839063 0.587069 0
M  V30 52 H -1.767378 -5.056598 -2.683365 0
M  V30 53 H -0.687500 -3.709973 -4.520398 0
M  V30 54 H 0.497673 -2.510043 -5.633041 0
M  V30 55 H 1.818744 -1.078995 -7.029423 0
M  V30 56 H 3.300919 0.534998 -6.062804 0
M  V30 57 H 4.466621 1.810377 -5.247785 0
M  V30 58 H 6.066822 3.565445 -1.897577 0
M  V30 59 H 4.754294 2.146968 -0.517207 0
M  V30 END ATOM
M  V30 BEGIN BOND
M  V30 1 1 1 2
M  V30 2 2 2 3
M  V30 3 1 3 4
M  V30 4 1 4 5
M  V30 5 1 5 6
M  V30 6 1 6 7
M  V30 7 1 7 8
M  V30 8 1 8 9
M  V30 9 1 9 10
M  V30 10 1 10 11
M  V30 11 1 11 12
M  V30 12 2 4 13
M  V30 13 1 13 14
M  V30 14 2 14 15
M  V30 15 1 15 16
M  V30 16 1 16 17
M  V30 17 2 17 18
M  V30 18 1 18 19
M  V30 19 2 19 20
M  V30 20 1 20 21
M  V30 21 2 21 22
M  V30 22 1 22 23
M  V30 23 2 23 24
M  V30 24 1 24 25
M  V30 25 1 20 26
M  V30 26 2 26 27
M  V30 27 1 27 28
M  V30 28 2 28 29
M  V30 29 1 29 30
M  V30 30 2 30 31
M  V30 31 1 31 32
M  V30 32 2 32 33
M  V30 33 1 33 34
M  V30 34 2 34 35
M  V30 35 1 15 2
M  V30 36 1 35 17
M  V30 37 1 12 8
M  V30 38 1 29 19
M  V30 39 1 35 30
M  V30 40 1 25 21
M  V30 41 1 3 36
M  V30 42 1 6 37
M  V30 43 1 6 38
M  V30 44 1 7 39
M  V30 45 1 7 40
M  V30 46 1 9 41
M  V30 47 1 9 42
M  V30 48 1 10 43
M  V30 49 1 10 44
M  V30 50 1 11 45
M  V30 51 1 11 46
M  V30 52 1 12 47
M  V30 53 1 12 48
M  V30 54 1 13 49
M  V30 55 1 14 50
M  V30 56 1 16 51
M  V30 57 1 24 52
M  V30 58 1 25 53
M  V30 59 1 26 54
M  V30 60 1 27 55
M  V30 61 1 28 56
M  V30 62 1 31 57
M  V30 63 1 33 58
M  V30 64 1 34 59
M  V30 END BOND
M  V30 END CTAB
M  END
>  <Dataset>  (121) 
ChEMBL_Kinases

>  <Ligand_Instance>  (121) 
nan

>  <PDB_ID>  (121) 
nan

>  <Standardized_SMILES>  (121) 
Fc1cc(OCCN2CCCC2)ccc1Nc1nc2c(-c3nnc[nH]3)cccc2c2cnccc12

>  <Name>  (121) 
nan

>  <Pocket>  (121) 
nan

>  <ATP_Site>  (121) 
nan

>  <Peripheral>  (121) 
nan

>  <Num_H_Atoms_ProtBoundConf>  (121) 
nan

>  <Num_Resolved_Atoms>  (121) 
nan

>  <Num_Not_Resolved_Atoms>  (121) 
nan

$$$$
CHEMBL1915640
     RDKit          3D

  0  0  0  0  0  0  0  0  0  0999 V3000
M  V30 BEGIN CTAB
M  V30 COUNTS 51 55 0 0 0
M  V30 BEGIN ATOM
M  V30 1 C 0.636434 -0.114463 6.061837 0
M  V30 2 O 1.849356 -0.058668 5.377921 0
M  V30 3 C 2.384913 -1.322514 5.141550 0
M  V30 4 C 3.687894 -1.265095 4.407979 0
M  V30 5 O 3.681863 -0.675000 3.166397 0
M  V30 6 C 3.008501 -1.012512 2.018675 0
M  V30 7 C 3.339943 -0.077048 1.027289 0
M  V30 8 C 2.799396 -0.166599 -0.260840 0
M  V30 9 C 1.914068 -1.199508 -0.577156 0
M  V30 10 N 1.392311 -1.232167 -1.906656 0
M  V30 11 C -0.022856 -1.134120 -1.764722 0
M  V30 12 N -0.599800 -0.071445 -1.200751 0
M  V30 13 C -1.919129 0.107503 -1.030426 0
M  V30 14 C -2.363580 1.261927 -0.427845 0
M  V30 15 C -1.512672 2.334960 0.055863 0
M  V30 16 N -1.964649 3.456949 0.642593 0
M  V30 17 N -0.944590 4.232030 0.968115 0
M  V30 18 C 0.211900 3.650415 0.608844 0
M  V30 19 N -0.179006 2.484929 0.051030 0
M  V30 20 C -3.733671 1.345105 -0.301397 0
M  V30 21 C -4.606447 0.369349 -0.733200 0
M  V30 22 C -4.088088 -0.754967 -1.325170 0
M  V30 23 C -2.731966 -0.906849 -1.485065 0
M  V30 24 C -2.199006 -2.027350 -2.075419 0
M  V30 25 C -3.029189 -3.025633 -2.524338 0
M  V30 26 N -2.521306 -4.126204 -3.106431 0
M  V30 27 C -1.195843 -4.287313 -3.268269 0
M  V30 28 C -0.320591 -3.309778 -2.832393 0
M  V30 29 C -0.836300 -2.164457 -2.227417 0
M  V30 30 C 1.611948 -2.094636 0.410921 0
M  V30 31 F 0.767714 -3.100196 0.150678 0
M  V30 32 C 2.137575 -2.012519 1.672436 0
M  V30 33 H -0.105404 -0.685956 5.478973 0
M  V30 34 H 0.710301 -0.579130 7.063412 0
M  V30 35 H 0.289518 0.921143 6.223122 0
M  V30 36 H 1.619787 -1.976999 4.697118 0
M  V30 37 H 2.564222 -1.771380 6.166022 0
M  V30 38 H 4.447048 -0.711809 5.034469 0
M  V30 39 H 4.112655 -2.309099 4.332955 0
M  V30 40 H 4.015548 0.790775 1.107452 0
M  V30 41 H 3.041435 0.550345 -1.054987 0
M  V30 42 H 2.000641 -1.312070 -2.730382 0
M  V30 43 H 1.230244 3.998197 0.721436 0
M  V30 44 H 0.509681 1.802615 -0.330937 0
M  V30 45 H -4.156415 2.242005 0.172235 0
M  V30 46 H -5.677622 0.517301 -0.592927 0
M  V30 47 H -4.823227 -1.473393 -1.636646 0
M  V30 48 H -4.100569 -3.038328 -2.465135 0
M  V30 49 H -0.785898 -5.170925 -3.735542 0
M  V30 50 H 0.753607 -3.348716 -2.917388 0
M  V30 51 H 1.947021 -2.675409 2.476775 0
M  V30 END ATOM
M  V30 BEGIN BOND
M  V30 1 1 1 2
M  V30 2 1 2 3
M  V30 3 1 3 4
M  V30 4 1 4 5
M  V30 5 1 5 6
M  V30 6 2 6 7
M  V30 7 1 7 8
M  V30 8 2 8 9
M  V30 9 1 9 10
M  V30 10 1 10 11
M  V30 11 2 11 12
M  V30 12 1 12 13
M  V30 13 2 13 14
M  V30 14 1 14 15
M  V30 15 2 15 16
M  V30 16 1 16 17
M  V30 17 2 17 18
M  V30 18 1 18 19
M  V30 19 1 14 20
M  V30 20 2 20 21
M  V30 21 1 21 22
M  V30 22 2 22 23
M  V30 23 1 23 24
M  V30 24 2 24 25
M  V30 25 1 25 26
M  V30 26 2 26 27
M  V30 27 1 27 28
M  V30 28 2 28 29
M  V30 29 1 9 30
M  V30 30 1 30 31
M  V30 31 2 30 32
M  V30 32 1 32 6
M  V30 33 1 29 11
M  V30 34 1 23 13
M  V30 35 1 29 24
M  V30 36 1 19 15
M  V30 37 1 1 33
M  V30 38 1 1 34
M  V30 39 1 1 35
M  V30 40 1 3 36
M  V30 41 1 3 37
M  V30 42 1 4 38
M  V30 43 1 4 39
M  V30 44 1 7 40
M  V30 45 1 8 41
M  V30 46 1 10 42
M  V30 47 1 18 43
M  V30 48 1 19 44
M  V30 49 1 20 45
M  V30 50 1 21 46
M  V30 51 1 22 47
M  V30 52 1 25 48
M  V30 53 1 27 49
M  V30 54 1 28 50
M  V30 55 1 32 51
M  V30 END BOND
M  V30 END CTAB
M  END
>  <Dataset>  (122) 
ChEMBL_Kinases

>  <Ligand_Instance>  (122) 
nan

>  <PDB_ID>  (122) 
nan

>  <Standardized_SMILES>  (122) 
COCCOc1ccc(Nc2nc3c(-c4nnc[nH]4)cccc3c3cnccc23)c(F)c1

>  <Name>  (122) 
nan

>  <Pocket>  (122) 
nan

>  <ATP_Site>  (122) 
nan

>  <Peripheral>  (122) 
nan

>  <Num_H_Atoms_ProtBoundConf>  (122) 
nan

>  <Num_Resolved_Atoms>  (122) 
nan

>  <Num_Not_Resolved_Atoms>  (122) 
nan

$$$$
CHEMBL1915445
     RDKit          3D

  0  0  0  0  0  0  0  0  0  0999 V3000
M  V30 BEGIN CTAB
M  V30 COUNTS 41 45 0 0 0
M  V30 BEGIN ATOM
M  V30 1 O 1.192240 -7.327848 1.524585 0
M  V30 2 C 0.954708 -5.998831 1.191845 0
M  V30 3 C -0.063694 -5.697812 0.314763 0
M  V30 4 C -0.336281 -4.394829 -0.044281 0
M  V30 5 C 0.449432 -3.372637 0.506173 0
M  V30 6 N 0.361505 -1.993239 0.257098 0
M  V30 7 C 0.088750 -0.724662 0.799394 0
M  V30 8 N 0.448003 0.351475 0.037128 0
M  V30 9 C 0.226032 1.596784 0.469352 0
M  V30 10 C 0.627735 2.629593 -0.376620 0
M  V30 11 C 1.254275 2.358877 -1.661342 0
M  V30 12 N 1.515870 1.145316 -2.177435 0
M  V30 13 N 2.090042 1.291788 -3.360203 0
M  V30 14 C 2.202403 2.623970 -3.614651 0
M  V30 15 N 1.683172 3.274204 -2.558956 0
M  V30 16 C 0.417239 3.918681 0.033673 0
M  V30 17 C -0.178728 4.162503 1.255727 0
M  V30 18 C -0.560447 3.100681 2.061109 0
M  V30 19 C -0.368649 1.808713 1.689906 0
M  V30 20 C -0.751095 0.788822 2.496290 0
M  V30 21 C -1.351147 1.057863 3.695776 0
M  V30 22 N -1.716410 -0.003115 4.433335 0
M  V30 23 C -1.495979 -1.274561 3.998564 0
M  V30 24 C -0.895345 -1.526584 2.798161 0
M  V30 25 C -0.503784 -0.469389 2.011369 0
M  V30 26 C 1.477984 -3.724371 1.396885 0
M  V30 27 Cl 2.514436 -2.523120 2.139434 0
M  V30 28 C 1.761600 -5.021762 1.763739 0
M  V30 29 H 1.627697 -7.533893 2.435402 0
M  V30 30 H -0.694781 -6.454281 -0.133078 0
M  V30 31 H -1.091795 -4.049057 -0.709956 0
M  V30 32 H 0.623998 -2.052026 -0.769365 0
M  V30 33 H 2.622508 3.132096 -4.485287 0
M  V30 34 H 1.606322 4.308915 -2.419689 0
M  V30 35 H 0.725964 4.721226 -0.618010 0
M  V30 36 H -0.308789 5.227599 1.501853 0
M  V30 37 H -1.005930 3.457407 2.973024 0
M  V30 38 H -1.562192 2.003833 4.117156 0
M  V30 39 H -1.822122 -2.079167 4.655216 0
M  V30 40 H -0.755644 -2.538856 2.485861 0
M  V30 41 H 2.543731 -5.296357 2.441136 0
M  V30 END ATOM
M  V30 BEGIN BOND
M  V30 1 1 1 2
M  V30 2 2 2 3
M  V30 3 1 3 4
M  V30 4 2 4 5
M  V30 5 1 5 6
M  V30 6 1 6 7
M  V30 7 2 7 8
M  V30 8 1 8 9
M  V30 9 2 9 10
M  V30 10 1 10 11
M  V30 11 2 11 12
M  V30 12 1 12 13
M  V30 13 2 13 14
M  V30 14 1 14 15
M  V30 15 1 10 16
M  V30 16 2 16 17
M  V30 17 1 17 18
M  V30 18 2 18 19
M  V30 19 1 19 20
M  V30 20 2 20 21
M  V30 21 1 21 22
M  V30 22 2 22 23
M  V30 23 1 23 24
M  V30 24 2 24 25
M  V30 25 1 5 26
M  V30 26 1 26 27
M  V30 27 2 26 28
M  V30 28 1 28 2
M  V30 29 1 25 7
M  V30 30 1 19 9
M  V30 31 1 25 20
M  V30 32 1 15 11
M  V30 33 1 1 29
M  V30 34 1 3 30
M  V30 35 1 4 31
M  V30 36 1 6 32
M  V30 37 1 14 33
M  V30 38 1 15 34
M  V30 39 1 16 35
M  V30 40 1 17 36
M  V30 41 1 18 37
M  V30 42 1 21 38
M  V30 43 1 23 39
M  V30 44 1 24 40
M  V30 45 1 28 41
M  V30 END BOND
M  V30 END CTAB
M  END
>  <Dataset>  (123) 
ChEMBL_Kinases

>  <Ligand_Instance>  (123) 
nan

>  <PDB_ID>  (123) 
nan

>  <Standardized_SMILES>  (123) 
Oc1ccc(Nc2nc3c(-c4nnc[nH]4)cccc3c3cnccc23)c(Cl)c1

>  <Name>  (123) 
nan

>  <Pocket>  (123) 
nan

>  <ATP_Site>  (123) 
nan

>  <Peripheral>  (123) 
nan

>  <Num_H_Atoms_ProtBoundConf>  (123) 
nan

>  <Num_Resolved_Atoms>  (123) 
nan

>  <Num_Not_Resolved_Atoms>  (123) 
nan

$$$$
CHEMBL1915638
     RDKit          3D

  0  0  0  0  0  0  0  0  0  0999 V3000
M  V30 BEGIN CTAB
M  V30 COUNTS 40 44 0 0 0
M  V30 BEGIN ATOM
M  V30 1 F 1.732512 -6.276292 -0.565869 0
M  V30 2 C 0.981082 -5.165891 -0.370682 0
M  V30 3 C -0.234842 -5.263474 0.324347 0
M  V30 4 C -0.959180 -4.106484 0.497750 0
M  V30 5 C -0.592155 -2.832834 0.041736 0
M  V30 6 N -1.412695 -1.696006 0.283619 0
M  V30 7 C -0.746710 -0.649860 1.023078 0
M  V30 8 N -0.198491 0.294098 0.239547 0
M  V30 9 C 0.467148 1.335943 0.750370 0
M  V30 10 C 1.012690 2.285707 -0.084106 0
M  V30 11 C 0.920740 2.251174 -1.534530 0
M  V30 12 N 1.433073 3.151420 -2.373125 0
M  V30 13 N 1.195428 2.866897 -3.628836 0
M  V30 14 C 0.483848 1.713525 -3.667694 0
M  V30 15 N 0.333143 1.361859 -2.357770 0
M  V30 16 C 1.689350 3.342804 0.513013 0
M  V30 17 C 1.822799 3.459355 1.893815 0
M  V30 18 C 1.261876 2.488243 2.693704 0
M  V30 19 C 0.597760 1.449316 2.118079 0
M  V30 20 C 0.033262 0.478803 2.911374 0
M  V30 21 C 0.129279 0.539905 4.281623 0
M  V30 22 N -0.424193 -0.406807 5.048975 0
M  V30 23 C -1.085777 -1.438642 4.499292 0
M  V30 24 C -1.239509 -1.593267 3.125027 0
M  V30 25 C -0.653018 -0.595427 2.393941 0
M  V30 26 C 0.613259 -2.820591 -0.630751 0
M  V30 27 F 1.058300 -1.651031 -1.108148 0
M  V30 28 C 1.391499 -3.936727 -0.842223 0
M  V30 29 H -0.599714 -6.204232 0.710531 0
M  V30 30 H -1.910829 -4.187679 1.041450 0
M  V30 31 H -2.401966 -1.646367 -0.052819 0
M  V30 32 H 0.090852 1.146348 -4.519854 0
M  V30 33 H -0.175036 0.517590 -2.088268 0
M  V30 34 H 2.119572 4.089394 -0.123567 0
M  V30 35 H 2.378940 4.335475 2.250725 0
M  V30 36 H 1.416467 2.663922 3.737824 0
M  V30 37 H 0.626404 1.304379 4.842411 0
M  V30 38 H -1.526222 -2.196387 5.156768 0
M  V30 39 H -1.768187 -2.408905 2.660895 0
M  V30 40 H 2.342720 -3.847698 -1.385823 0
M  V30 END ATOM
M  V30 BEGIN BOND
M  V30 1 1 1 2
M  V30 2 2 2 3
M  V30 3 1 3 4
M  V30 4 2 4 5
M  V30 5 1 5 6
M  V30 6 1 6 7
M  V30 7 2 7 8
M  V30 8 1 8 9
M  V30 9 2 9 10
M  V30 10 1 10 11
M  V30 11 2 11 12
M  V30 12 1 12 13
M  V30 13 2 13 14
M  V30 14 1 14 15
M  V30 15 1 10 16
M  V30 16 2 16 17
M  V30 17 1 17 18
M  V30 18 2 18 19
M  V30 19 1 19 20
M  V30 20 2 20 21
M  V30 21 1 21 22
M  V30 22 2 22 23
M  V30 23 1 23 24
M  V30 24 2 24 25
M  V30 25 1 5 26
M  V30 26 1 26 27
M  V30 27 2 26 28
M  V30 28 1 28 2
M  V30 29 1 25 7
M  V30 30 1 19 9
M  V30 31 1 25 20
M  V30 32 1 15 11
M  V30 33 1 3 29
M  V30 34 1 4 30
M  V30 35 1 6 31
M  V30 36 1 14 32
M  V30 37 1 15 33
M  V30 38 1 16 34
M  V30 39 1 17 35
M  V30 40 1 18 36
M  V30 41 1 21 37
M  V30 42 1 23 38
M  V30 43 1 24 39
M  V30 44 1 28 40
M  V30 END BOND
M  V30 END CTAB
M  END
>  <Dataset>  (124) 
ChEMBL_Kinases

>  <Ligand_Instance>  (124) 
nan

>  <PDB_ID>  (124) 
nan

>  <Standardized_SMILES>  (124) 
Fc1ccc(Nc2nc3c(-c4nnc[nH]4)cccc3c3cnccc23)c(F)c1

>  <Name>  (124) 
nan

>  <Pocket>  (124) 
nan

>  <ATP_Site>  (124) 
nan

>  <Peripheral>  (124) 
nan

>  <Num_H_Atoms_ProtBoundConf>  (124) 
nan

>  <Num_Resolved_Atoms>  (124) 
nan

>  <Num_Not_Resolved_Atoms>  (124) 
nan

$$$$
CHEMBL1915637
     RDKit          3D

  0  0  0  0  0  0  0  0  0  0999 V3000
M  V30 BEGIN CTAB
M  V30 COUNTS 44 48 0 0 0
M  V30 BEGIN ATOM
M  V30 1 C 2.116835 -2.335130 4.196893 0
M  V30 2 O 2.058186 -2.047135 2.810972 0
M  V30 3 C 2.797421 -1.052344 2.213264 0
M  V30 4 C 3.688461 -0.195980 2.831565 0
M  V30 5 C 4.377254 0.768934 2.126185 0
M  V30 6 C 4.182649 0.895355 0.766693 0
M  V30 7 C 3.282086 0.030772 0.138146 0
M  V30 8 F 3.182310 0.261809 -1.208209 0
M  V30 9 C 2.596468 -0.933625 0.855622 0
M  V30 10 N 1.745466 -1.686647 0.011752 0
M  V30 11 C 0.411326 -1.366113 -0.275595 0
M  V30 12 N -0.101933 -0.262457 0.290191 0
M  V30 13 C -1.351589 0.133375 0.086984 0
M  V30 14 C -1.799637 1.279580 0.706970 0
M  V30 15 C -1.010655 2.126081 1.591682 0
M  V30 16 N -1.451553 3.227132 2.183128 0
M  V30 17 N -0.492228 3.760601 2.916814 0
M  V30 18 C 0.629820 3.001625 2.820988 0
M  V30 19 N 0.263449 2.014550 2.000432 0
M  V30 20 C -3.111852 1.609323 0.434314 0
M  V30 21 C -3.942407 0.877519 -0.387113 0
M  V30 22 C -3.434637 -0.260910 -0.978972 0
M  V30 23 C -2.134172 -0.638877 -0.744063 0
M  V30 24 C -1.620623 -1.770918 -1.329321 0
M  V30 25 C -2.403588 -2.538536 -2.157321 0
M  V30 26 N -1.932231 -3.668958 -2.757551 0
M  V30 27 C -0.648112 -4.053183 -2.533202 0
M  V30 28 C 0.169246 -3.308935 -1.708215 0
M  V30 29 C -0.331634 -2.169890 -1.113289 0
M  V30 30 H 2.324882 -1.406676 4.792934 0
M  V30 31 H 2.868967 -3.107413 4.455610 0
M  V30 32 H 1.082991 -2.638806 4.514277 0
M  V30 33 H 3.813373 -0.325510 3.893188 0
M  V30 34 H 5.068845 1.428738 2.625120 0
M  V30 35 H 4.742399 1.666038 0.246045 0
M  V30 36 H 2.363071 -2.468250 -0.292101 0
M  V30 37 H 1.602091 3.150282 3.294160 0
M  V30 38 H 0.932649 1.265166 1.738610 0
M  V30 39 H -3.519540 2.512756 0.902196 0
M  V30 40 H -4.947253 1.219197 -0.534381 0
M  V30 41 H -4.140210 -0.777024 -1.603957 0
M  V30 42 H -3.425210 -2.352850 -2.418598 0
M  V30 43 H -0.279522 -4.951609 -3.012545 0
M  V30 44 H 1.176228 -3.581876 -1.512713 0
M  V30 END ATOM
M  V30 BEGIN BOND
M  V30 1 1 1 2
M  V30 2 1 2 3
M  V30 3 2 3 4
M  V30 4 1 4 5
M  V30 5 2 5 6
M  V30 6 1 6 7
M  V30 7 1 7 8
M  V30 8 2 7 9
M  V30 9 1 9 10
M  V30 10 1 10 11
M  V30 11 2 11 12
M  V30 12 1 12 13
M  V30 13 2 13 14
M  V30 14 1 14 15
M  V30 15 2 15 16
M  V30 16 1 16 17
M  V30 17 2 17 18
M  V30 18 1 18 19
M  V30 19 1 14 20
M  V30 20 2 20 21
M  V30 21 1 21 22
M  V30 22 2 22 23
M  V30 23 1 23 24
M  V30 24 2 24 25
M  V30 25 1 25 26
M  V30 26 2 26 27
M  V30 27 1 27 28
M  V30 28 2 28 29
M  V30 29 1 9 3
M  V30 30 1 29 11
M  V30 31 1 23 13
M  V30 32 1 29 24
M  V30 33 1 19 15
M  V30 34 1 1 30
M  V30 35 1 1 31
M  V30 36 1 1 32
M  V30 37 1 4 33
M  V30 38 1 5 34
M  V30 39 1 6 35
M  V30 40 1 10 36
M  V30 41 1 18 37
M  V30 42 1 19 38
M  V30 43 1 20 39
M  V30 44 1 21 40
M  V30 45 1 22 41
M  V30 46 1 25 42
M  V30 47 1 27 43
M  V30 48 1 28 44
M  V30 END BOND
M  V30 END CTAB
M  END
>  <Dataset>  (125) 
ChEMBL_Kinases

>  <Ligand_Instance>  (125) 
nan

>  <PDB_ID>  (125) 
nan

>  <Standardized_SMILES>  (125) 
COc1cccc(F)c1Nc1nc2c(-c3nnc[nH]3)cccc2c2cnccc12

>  <Name>  (125) 
nan

>  <Pocket>  (125) 
nan

>  <ATP_Site>  (125) 
nan

>  <Peripheral>  (125) 
nan

>  <Num_H_Atoms_ProtBoundConf>  (125) 
nan

>  <Num_Resolved_Atoms>  (125) 
nan

>  <Num_Not_Resolved_Atoms>  (125) 
nan

$$$$
CHEMBL1915636
     RDKit          3D

  0  0  0  0  0  0  0  0  0  0999 V3000
M  V30 BEGIN CTAB
M  V30 COUNTS 40 44 0 0 0
M  V30 BEGIN ATOM
M  V30 1 F 1.660802 -0.487850 2.423356 0
M  V30 2 C 2.463012 -1.496304 2.031974 0
M  V30 3 C 2.947168 -2.289508 3.062342 0
M  V30 4 C 3.773116 -3.341148 2.732233 0
M  V30 5 C 4.101738 -3.588134 1.419499 0
M  V30 6 C 3.591632 -2.768159 0.445940 0
M  V30 7 F 3.955651 -3.028365 -0.842360 0
M  V30 8 C 2.758387 -1.696133 0.690566 0
M  V30 9 N 2.225363 -0.815071 -0.320195 0
M  V30 10 C 0.805616 -0.763117 -0.288438 0
M  V30 11 N 0.370074 0.405987 0.263144 0
M  V30 12 C -0.937509 0.695302 0.426106 0
M  V30 13 C -1.328352 1.904636 0.977342 0
M  V30 14 C -0.333431 2.891909 1.426729 0
M  V30 15 N 0.992674 2.714518 1.432599 0
M  V30 16 N 1.554017 3.838580 1.927356 0
M  V30 17 C 0.511039 4.676908 2.209354 0
M  V30 18 N -0.689379 4.105379 1.902861 0
M  V30 19 C -2.691988 2.145031 1.100547 0
M  V30 20 C -3.670026 1.241455 0.703419 0
M  V30 21 C -3.255016 0.037198 0.155465 0
M  V30 22 C -1.905290 -0.200899 0.032030 0
M  V30 23 C -1.502903 -1.390136 -0.528768 0
M  V30 24 C -2.362609 -2.369216 -0.964795 0
M  V30 25 N -1.946783 -3.536019 -1.516487 0
M  V30 26 C -0.601792 -3.734460 -1.639299 0
M  V30 27 C 0.335208 -2.809433 -1.230052 0
M  V30 28 C -0.163903 -1.651889 -0.679705 0
M  V30 29 H 2.719466 -2.139786 4.091967 0
M  V30 30 H 4.192502 -4.009697 3.451573 0
M  V30 31 H 4.742128 -4.400121 1.141049 0
M  V30 32 H 2.897888 -0.334970 -0.932703 0
M  V30 33 H 0.680985 5.680923 2.629865 0
M  V30 34 H -1.581267 4.591419 2.043509 0
M  V30 35 H -3.002381 3.095664 1.533089 0
M  V30 36 H -4.697703 1.536207 0.848377 0
M  V30 37 H -4.052193 -0.624451 -0.133420 0
M  V30 38 H -3.431242 -2.269231 -0.891360 0
M  V30 39 H -0.293835 -4.670302 -2.081305 0
M  V30 40 H 1.372613 -2.995162 -1.347575 0
M  V30 END ATOM
M  V30 BEGIN BOND
M  V30 1 1 1 2
M  V30 2 2 2 3
M  V30 3 1 3 4
M  V30 4 2 4 5
M  V30 5 1 5 6
M  V30 6 1 6 7
M  V30 7 2 6 8
M  V30 8 1 8 9
M  V30 9 1 9 10
M  V30 10 2 10 11
M  V30 11 1 11 12
M  V30 12 2 12 13
M  V30 13 1 13 14
M  V30 14 2 14 15
M  V30 15 1 15 16
M  V30 16 2 16 17
M  V30 17 1 17 18
M  V30 18 1 13 19
M  V30 19 2 19 20
M  V30 20 1 20 21
M  V30 21 2 21 22
M  V30 22 1 22 23
M  V30 23 2 23 24
M  V30 24 1 24 25
M  V30 25 2 25 26
M  V30 26 1 26 27
M  V30 27 2 27 28
M  V30 28 1 8 2
M  V30 29 1 28 10
M  V30 30 1 22 12
M  V30 31 1 28 23
M  V30 32 1 18 14
M  V30 33 1 3 29
M  V30 34 1 4 30
M  V30 35 1 5 31
M  V30 36 1 9 32
M  V30 37 1 17 33
M  V30 38 1 18 34
M  V30 39 1 19 35
M  V30 40 1 20 36
M  V30 41 1 21 37
M  V30 42 1 24 38
M  V30 43 1 26 39
M  V30 44 1 27 40
M  V30 END BOND
M  V30 END CTAB
M  END
>  <Dataset>  (126) 
ChEMBL_Kinases

>  <Ligand_Instance>  (126) 
nan

>  <PDB_ID>  (126) 
nan

>  <Standardized_SMILES>  (126) 
Fc1cccc(F)c1Nc1nc2c(-c3nnc[nH]3)cccc2c2cnccc12

>  <Name>  (126) 
nan

>  <Pocket>  (126) 
nan

>  <ATP_Site>  (126) 
nan

>  <Peripheral>  (126) 
nan

>  <Num_H_Atoms_ProtBoundConf>  (126) 
nan

>  <Num_Resolved_Atoms>  (126) 
nan

>  <Num_Not_Resolved_Atoms>  (126) 
nan

$$$$
CHEMBL1915635
     RDKit          3D

  0  0  0  0  0  0  0  0  0  0999 V3000
M  V30 BEGIN CTAB
M  V30 COUNTS 43 47 0 0 0
M  V30 BEGIN ATOM
M  V30 1 C 1.466206 -3.157799 2.175356 0
M  V30 2 C 2.569084 -3.091979 1.184884 0
M  V30 3 C 3.400497 -4.161252 1.122297 0
M  V30 4 C 4.413572 -4.067182 0.189564 0
M  V30 5 C 4.624298 -2.994331 -0.648884 0
M  V30 6 F 5.632611 -2.939069 -1.551386 0
M  V30 7 C 3.725298 -1.962547 -0.503736 0
M  V30 8 C 2.660827 -1.950018 0.406265 0
M  V30 9 N 1.763236 -0.914299 0.585216 0
M  V30 10 C 0.444726 -0.499869 0.492042 0
M  V30 11 N 0.085501 0.664883 1.058952 0
M  V30 12 C -1.133729 1.198310 1.052514 0
M  V30 13 C -1.314617 2.404668 1.690550 0
M  V30 14 C -0.291361 3.173312 2.382326 0
M  V30 15 N -0.508753 4.350561 2.994176 0
M  V30 16 N 0.632981 4.765444 3.513892 0
M  V30 17 C 1.592525 3.896168 3.262129 0
M  V30 18 N 1.020349 2.885034 2.546781 0
M  V30 19 C -2.610394 2.895300 1.642311 0
M  V30 20 C -3.639579 2.229584 1.006325 0
M  V30 21 C -3.385419 1.013942 0.381341 0
M  V30 22 C -2.125534 0.498479 0.406601 0
M  V30 23 C -1.883167 -0.703035 -0.212201 0
M  V30 24 C -2.870976 -1.371597 -0.855530 0
M  V30 25 N -2.549566 -2.548647 -1.458958 0
M  V30 26 C -1.311144 -3.044045 -1.429607 0
M  V30 27 C -0.329161 -2.344520 -0.769045 0
M  V30 28 C -0.587714 -1.150564 -0.138188 0
M  V30 29 H 1.957003 -3.372510 3.167313 0
M  V30 30 H 0.816602 -4.045801 2.000755 0
M  V30 31 H 0.926792 -2.222207 2.311695 0
M  V30 32 H 3.283464 -5.026911 1.755723 0
M  V30 33 H 5.107117 -4.904366 0.101739 0
M  V30 34 H 3.821446 -1.070621 -1.132108 0
M  V30 35 H 2.469128 -0.200633 0.942021 0
M  V30 36 H 2.634592 3.989339 3.573645 0
M  V30 37 H 1.551797 2.058860 2.211857 0
M  V30 38 H -2.827712 3.849847 2.129914 0
M  V30 39 H -4.627433 2.705942 1.025795 0
M  V30 40 H -4.251915 0.604589 -0.068390 0
M  V30 41 H -3.893648 -1.070620 -0.943754 0
M  V30 42 H -1.141627 -3.988530 -1.937073 0
M  V30 43 H 0.658762 -2.760691 -0.776331 0
M  V30 END ATOM
M  V30 BEGIN BOND
M  V30 1 1 1 2
M  V30 2 2 2 3
M  V30 3 1 3 4
M  V30 4 2 4 5
M  V30 5 1 5 6
M  V30 6 1 5 7
M  V30 7 2 7 8
M  V30 8 1 8 9
M  V30 9 1 9 10
M  V30 10 2 10 11
M  V30 11 1 11 12
M  V30 12 2 12 13
M  V30 13 1 13 14
M  V30 14 2 14 15
M  V30 15 1 15 16
M  V30 16 2 16 17
M  V30 17 1 17 18
M  V30 18 1 13 19
M  V30 19 2 19 20
M  V30 20 1 20 21
M  V30 21 2 21 22
M  V30 22 1 22 23
M  V30 23 2 23 24
M  V30 24 1 24 25
M  V30 25 2 25 26
M  V30 26 1 26 27
M  V30 27 2 27 28
M  V30 28 1 8 2
M  V30 29 1 28 10
M  V30 30 1 22 12
M  V30 31 1 28 23
M  V30 32 1 18 14
M  V30 33 1 1 29
M  V30 34 1 1 30
M  V30 35 1 1 31
M  V30 36 1 3 32
M  V30 37 1 4 33
M  V30 38 1 7 34
M  V30 39 1 9 35
M  V30 40 1 17 36
M  V30 41 1 18 37
M  V30 42 1 19 38
M  V30 43 1 20 39
M  V30 44 1 21 40
M  V30 45 1 24 41
M  V30 46 1 26 42
M  V30 47 1 27 43
M  V30 END BOND
M  V30 END CTAB
M  END
>  <Dataset>  (127) 
ChEMBL_Kinases

>  <Ligand_Instance>  (127) 
nan

>  <PDB_ID>  (127) 
nan

>  <Standardized_SMILES>  (127) 
Cc1ccc(F)cc1Nc1nc2c(-c3nnc[nH]3)cccc2c2cnccc12

>  <Name>  (127) 
nan

>  <Pocket>  (127) 
nan

>  <ATP_Site>  (127) 
nan

>  <Peripheral>  (127) 
nan

>  <Num_H_Atoms_ProtBoundConf>  (127) 
nan

>  <Num_Resolved_Atoms>  (127) 
nan

>  <Num_Not_Resolved_Atoms>  (127) 
nan

$$$$
CHEMBL1915634
     RDKit          3D

  0  0  0  0  0  0  0  0  0  0999 V3000
M  V30 BEGIN CTAB
M  V30 COUNTS 43 47 0 0 0
M  V30 BEGIN ATOM
M  V30 1 C 1.182632 -1.678651 2.900144 0
M  V30 2 C 2.491248 -1.464142 2.234108 0
M  V30 3 C 3.515607 -1.066652 3.092439 0
M  V30 4 C 4.794139 -0.823155 2.645283 0
M  V30 5 F 5.785502 -0.441033 3.459860 0
M  V30 6 C 5.031190 -0.988604 1.296996 0
M  V30 7 C 4.019731 -1.385289 0.424302 0
M  V30 8 C 2.725796 -1.633171 0.867558 0
M  V30 9 N 1.581293 -2.036386 0.178576 0
M  V30 10 C 0.329435 -1.443735 -0.002383 0
M  V30 11 N 0.087875 -0.237893 0.535751 0
M  V30 12 C -1.112720 0.340931 0.371778 0
M  V30 13 C -1.299293 1.578645 0.948764 0
M  V30 14 C -0.320995 2.335510 1.718469 0
M  V30 15 N -0.540705 3.522319 2.271925 0
M  V30 16 N 0.547915 3.925578 2.895313 0
M  V30 17 C 1.522333 3.007317 2.768014 0
M  V30 18 N 0.935736 2.046355 2.033768 0
M  V30 19 C -2.568554 2.134799 0.747628 0
M  V30 20 C -3.569317 1.515565 0.033791 0
M  V30 21 C -3.338150 0.277329 -0.526477 0
M  V30 22 C -2.106261 -0.290280 -0.345804 0
M  V30 23 C -1.850288 -1.509155 -0.885272 0
M  V30 24 C -2.800164 -2.163267 -1.598086 0
M  V30 25 N -2.597115 -3.372291 -2.153045 0
M  V30 26 C -1.417056 -4.022834 -2.034864 0
M  V30 27 C -0.450528 -3.358477 -1.310195 0
M  V30 28 C -0.626461 -2.120771 -0.729560 0
M  V30 29 H 1.386808 -2.253678 3.834323 0
M  V30 30 H 0.528563 -2.369556 2.292668 0
M  V30 31 H 0.676017 -0.764696 3.220942 0
M  V30 32 H 3.359633 -0.927189 4.162812 0
M  V30 33 H 6.001122 -0.824477 0.834800 0
M  V30 34 H 4.115719 -1.538887 -0.642118 0
M  V30 35 H 1.963702 -2.941526 -0.166052 0
M  V30 36 H 2.545041 3.027822 3.161669 0
M  V30 37 H 1.468039 1.190820 1.773196 0
M  V30 38 H -2.786220 3.123997 1.182232 0
M  V30 39 H -4.527009 2.040831 -0.062362 0
M  V30 40 H -4.168148 -0.114379 -1.054678 0
M  V30 41 H -3.800589 -1.837690 -1.816818 0
M  V30 42 H -1.239116 -4.994391 -2.475038 0
M  V30 43 H 0.498579 -3.844943 -1.195567 0
M  V30 END ATOM
M  V30 BEGIN BOND
M  V30 1 1 1 2
M  V30 2 2 2 3
M  V30 3 1 3 4
M  V30 4 1 4 5
M  V30 5 2 4 6
M  V30 6 1 6 7
M  V30 7 2 7 8
M  V30 8 1 8 9
M  V30 9 1 9 10
M  V30 10 2 10 11
M  V30 11 1 11 12
M  V30 12 2 12 13
M  V30 13 1 13 14
M  V30 14 2 14 15
M  V30 15 1 15 16
M  V30 16 2 16 17
M  V30 17 1 17 18
M  V30 18 1 13 19
M  V30 19 2 19 20
M  V30 20 1 20 21
M  V30 21 2 21 22
M  V30 22 1 22 23
M  V30 23 2 23 24
M  V30 24 1 24 25
M  V30 25 2 25 26
M  V30 26 1 26 27
M  V30 27 2 27 28
M  V30 28 1 8 2
M  V30 29 1 28 10
M  V30 30 1 22 12
M  V30 31 1 28 23
M  V30 32 1 18 14
M  V30 33 1 1 29
M  V30 34 1 1 30
M  V30 35 1 1 31
M  V30 36 1 3 32
M  V30 37 1 6 33
M  V30 38 1 7 34
M  V30 39 1 9 35
M  V30 40 1 17 36
M  V30 41 1 18 37
M  V30 42 1 19 38
M  V30 43 1 20 39
M  V30 44 1 21 40
M  V30 45 1 24 41
M  V30 46 1 26 42
M  V30 47 1 27 43
M  V30 END BOND
M  V30 END CTAB
M  END
>  <Dataset>  (128) 
ChEMBL_Kinases

>  <Ligand_Instance>  (128) 
nan

>  <PDB_ID>  (128) 
nan

>  <Standardized_SMILES>  (128) 
Cc1cc(F)ccc1Nc1nc2c(-c3nnc[nH]3)cccc2c2cnccc12

>  <Name>  (128) 
nan

>  <Pocket>  (128) 
nan

>  <ATP_Site>  (128) 
nan

>  <Peripheral>  (128) 
nan

>  <Num_H_Atoms_ProtBoundConf>  (128) 
nan

>  <Num_Resolved_Atoms>  (128) 
nan

>  <Num_Not_Resolved_Atoms>  (128) 
nan

$$$$
CHEMBL1915633
     RDKit          3D

  0  0  0  0  0  0  0  0  0  0999 V3000
M  V30 BEGIN CTAB
M  V30 COUNTS 44 48 0 0 0
M  V30 BEGIN ATOM
M  V30 1 C 0.512362 -0.705660 6.097956 0
M  V30 2 O 0.329716 -1.172273 4.761220 0
M  V30 3 C 1.373216 -1.224166 3.854844 0
M  V30 4 C 2.650731 -0.820447 4.214494 0
M  V30 5 C 3.685522 -0.882785 3.281638 0
M  V30 6 C 3.457838 -1.341438 2.001695 0
M  V30 7 C 2.187056 -1.747097 1.631133 0
M  V30 8 N 1.916072 -2.226739 0.319896 0
M  V30 9 C 0.973395 -1.577307 -0.521025 0
M  V30 10 N 0.358956 -0.496931 -0.027940 0
M  V30 11 C -0.563306 0.195965 -0.759083 0
M  V30 12 C -1.194903 1.310512 -0.246295 0
M  V30 13 C -0.908837 1.794150 1.085047 0
M  V30 14 N -0.063282 1.326452 2.017381 0
M  V30 15 N -0.093986 2.049279 3.100135 0
M  V30 16 C -0.974180 3.051500 2.944933 0
M  V30 17 N -1.448965 2.865140 1.711172 0
M  V30 18 C -2.121806 1.988230 -1.010837 0
M  V30 19 C -2.429302 1.562495 -2.294824 0
M  V30 20 C -1.768953 0.429799 -2.779398 0
M  V30 21 C -0.843449 -0.255721 -2.030001 0
M  V30 22 C -0.216211 -1.356181 -2.529483 0
M  V30 23 C -0.502356 -1.790195 -3.784324 0
M  V30 24 N 0.116647 -2.892486 -4.303054 0
M  V30 25 C 1.026951 -3.575703 -3.580388 0
M  V30 26 C 1.343989 -3.165534 -2.302078 0
M  V30 27 C 0.713103 -2.051684 -1.788575 0
M  V30 28 C 1.164438 -1.684936 2.554781 0
M  V30 29 Cl -0.486289 -2.183327 2.163413 0
M  V30 30 H 1.182462 0.193723 6.094884 0
M  V30 31 H -0.440871 -0.384590 6.546574 0
M  V30 32 H 1.012264 -1.458737 6.735649 0
M  V30 33 H 2.886630 -0.458583 5.184410 0
M  V30 34 H 4.677741 -0.562023 3.583570 0
M  V30 35 H 4.286119 -1.376203 1.302616 0
M  V30 36 H 2.506299 -3.051797 0.174977 0
M  V30 37 H -1.233581 3.819750 3.647194 0
M  V30 38 H -2.178926 3.509740 1.287307 0
M  V30 39 H -2.632743 2.872961 -0.622641 0
M  V30 40 H -3.162190 2.120847 -2.863619 0
M  V30 41 H -2.075924 0.184112 -3.777149 0
M  V30 42 H -1.193942 -1.367989 -4.486785 0
M  V30 43 H 1.506015 -4.445949 -4.009048 0
M  V30 44 H 2.064365 -3.688994 -1.702787 0
M  V30 END ATOM
M  V30 BEGIN BOND
M  V30 1 1 1 2
M  V30 2 1 2 3
M  V30 3 2 3 4
M  V30 4 1 4 5
M  V30 5 2 5 6
M  V30 6 1 6 7
M  V30 7 1 7 8
M  V30 8 1 8 9
M  V30 9 2 9 10
M  V30 10 1 10 11
M  V30 11 2 11 12
M  V30 12 1 12 13
M  V30 13 2 13 14
M  V30 14 1 14 15
M  V30 15 2 15 16
M  V30 16 1 16 17
M  V30 17 1 12 18
M  V30 18 2 18 19
M  V30 19 1 19 20
M  V30 20 2 20 21
M  V30 21 1 21 22
M  V30 22 2 22 23
M  V30 23 1 23 24
M  V30 24 2 24 25
M  V30 25 1 25 26
M  V30 26 2 26 27
M  V30 27 2 7 28
M  V30 28 1 28 29
M  V30 29 1 28 3
M  V30 30 1 27 9
M  V30 31 1 21 11
M  V30 32 1 27 22
M  V30 33 1 17 13
M  V30 34 1 1 30
M  V30 35 1 1 31
M  V30 36 1 1 32
M  V30 37 1 4 33
M  V30 38 1 5 34
M  V30 39 1 6 35
M  V30 40 1 8 36
M  V30 41 1 16 37
M  V30 42 1 17 38
M  V30 43 1 18 39
M  V30 44 1 19 40
M  V30 45 1 20 41
M  V30 46 1 23 42
M  V30 47 1 25 43
M  V30 48 1 26 44
M  V30 END BOND
M  V30 END CTAB
M  END
>  <Dataset>  (129) 
ChEMBL_Kinases

>  <Ligand_Instance>  (129) 
nan

>  <PDB_ID>  (129) 
nan

>  <Standardized_SMILES>  (129) 
COc1cccc(Nc2nc3c(-c4nnc[nH]4)cccc3c3cnccc23)c1Cl

>  <Name>  (129) 
nan

>  <Pocket>  (129) 
nan

>  <ATP_Site>  (129) 
nan

>  <Peripheral>  (129) 
nan

>  <Num_H_Atoms_ProtBoundConf>  (129) 
nan

>  <Num_Resolved_Atoms>  (129) 
nan

>  <Num_Not_Resolved_Atoms>  (129) 
nan

$$$$
CHEMBL1915449
     RDKit          3D

  0  0  0  0  0  0  0  0  0  0999 V3000
M  V30 BEGIN CTAB
M  V30 COUNTS 57 62 0 0 0
M  V30 BEGIN ATOM
M  V30 1 C 3.778584 -0.873443 6.478529 0
M  V30 2 N 2.604948 -0.716311 5.680616 0
M  V30 3 C 2.612286 0.366779 4.765650 0
M  V30 4 C 3.076016 0.065703 3.372501 0
M  V30 5 N 2.674727 -1.194558 2.841403 0
M  V30 6 C 2.088576 -1.473229 1.576789 0
M  V30 7 C 1.712918 -2.725855 1.139969 0
M  V30 8 C 1.149719 -2.914449 -0.104885 0
M  V30 9 C 0.931562 -1.866670 -0.978497 0
M  V30 10 N 0.348160 -2.126149 -2.249288 0
M  V30 11 C -0.883172 -1.536663 -2.641523 0
M  V30 12 N -1.484414 -0.722074 -1.756085 0
M  V30 13 C -2.652904 -0.159130 -2.121510 0
M  V30 14 C -3.281681 0.689287 -1.202539 0
M  V30 15 C -2.734387 0.994218 0.131906 0
M  V30 16 N -1.579744 0.491689 0.603767 0
M  V30 17 N -1.360051 0.947041 1.820361 0
M  V30 18 C -2.408550 1.756846 2.114813 0
M  V30 19 N -3.273331 1.800906 1.081761 0
M  V30 20 C -4.497419 1.295431 -1.540840 0
M  V30 21 C -5.092080 1.072401 -2.768776 0
M  V30 22 C -4.442794 0.221143 -3.666935 0
M  V30 23 C -3.248906 -0.379026 -3.344766 0
M  V30 24 C -2.625589 -1.213066 -4.241320 0
M  V30 25 C -3.181124 -1.452883 -5.452801 0
M  V30 26 N -2.576111 -2.269654 -6.337857 0
M  V30 27 C -1.396122 -2.859403 -6.012344 0
M  V30 28 C -0.837128 -2.612614 -4.782102 0
M  V30 29 C -1.436653 -1.781124 -3.859823 0
M  V30 30 C 1.313890 -0.620078 -0.524169 0
M  V30 31 Cl 1.025216 0.699807 -1.661078 0
M  V30 32 C 1.878698 -0.414504 0.718562 0
M  V30 33 C 2.986764 -2.162886 3.861325 0
M  V30 34 C 2.162274 -1.963828 5.128271 0
M  V30 35 H 3.779460 -1.902561 6.904346 0
M  V30 36 H 3.772640 -0.088527 7.268779 0
M  V30 37 H 4.664033 -0.776161 5.816147 0
M  V30 38 H 1.612054 0.857785 4.781022 0
M  V30 39 H 3.311473 1.150282 5.173926 0
M  V30 40 H 2.798270 0.951821 2.767319 0
M  V30 41 H 4.205834 0.065699 3.338035 0
M  V30 42 H 1.860541 -3.570161 1.778894 0
M  V30 43 H 0.877757 -3.905006 -0.391879 0
M  V30 44 H 0.973494 -2.767211 -2.739055 0
M  V30 45 H -2.540317 2.293795 3.041894 0
M  V30 46 H -4.160696 2.322335 0.995659 0
M  V30 47 H -4.983441 1.949768 -0.833451 0
M  V30 48 H -6.032793 1.570075 -2.972060 0
M  V30 49 H -4.979418 0.110619 -4.589480 0
M  V30 50 H -4.094083 -1.061473 -5.837338 0
M  V30 51 H -0.896784 -3.516037 -6.707116 0
M  V30 52 H 0.091068 -3.084777 -4.542886 0
M  V30 53 H 2.108786 0.604855 0.897317 0
M  V30 54 H 4.061215 -2.123381 4.196582 0
M  V30 55 H 2.777309 -3.206840 3.542273 0
M  V30 56 H 2.426178 -2.778306 5.816485 0
M  V30 57 H 1.077256 -1.974001 4.916592 0
M  V30 END ATOM
M  V30 BEGIN BOND
M  V30 1 1 1 2
M  V30 2 1 2 3
M  V30 3 1 3 4
M  V30 4 1 4 5
M  V30 5 1 5 6
M  V30 6 2 6 7
M  V30 7 1 7 8
M  V30 8 2 8 9
M  V30 9 1 9 10
M  V30 10 1 10 11
M  V30 11 2 11 12
M  V30 12 1 12 13
M  V30 13 2 13 14
M  V30 14 1 14 15
M  V30 15 2 15 16
M  V30 16 1 16 17
M  V30 17 2 17 18
M  V30 18 1 18 19
M  V30 19 1 14 20
M  V30 20 2 20 21
M  V30 21 1 21 22
M  V30 22 2 22 23
M  V30 23 1 23 24
M  V30 24 2 24 25
M  V30 25 1 25 26
M  V30 26 2 26 27
M  V30 27 1 27 28
M  V30 28 2 28 29
M  V30 29 1 9 30
M  V30 30 1 30 31
M  V30 31 2 30 32
M  V30 32 1 5 33
M  V30 33 1 33 34
M  V30 34 1 34 2
M  V30 35 1 32 6
M  V30 36 1 29 11
M  V30 37 1 23 13
M  V30 38 1 29 24
M  V30 39 1 19 15
M  V30 40 1 1 35
M  V30 41 1 1 36
M  V30 42 1 1 37
M  V30 43 1 3 38
M  V30 44 1 3 39
M  V30 45 1 4 40
M  V30 46 1 4 41
M  V30 47 1 7 42
M  V30 48 1 8 43
M  V30 49 1 10 44
M  V30 50 1 18 45
M  V30 51 1 19 46
M  V30 52 1 20 47
M  V30 53 1 21 48
M  V30 54 1 22 49
M  V30 55 1 25 50
M  V30 56 1 27 51
M  V30 57 1 28 52
M  V30 58 1 32 53
M  V30 59 1 33 54
M  V30 60 1 33 55
M  V30 61 1 34 56
M  V30 62 1 34 57
M  V30 END BOND
M  V30 END CTAB
M  END
>  <Dataset>  (130) 
ChEMBL_Kinases

>  <Ligand_Instance>  (130) 
nan

>  <PDB_ID>  (130) 
nan

>  <Standardized_SMILES>  (130) 
CN1CCN(c2ccc(Nc3nc4c(-c5nnc[nH]5)cccc4c4cnccc34)c(Cl)c2)CC1

>  <Name>  (130) 
nan

>  <Pocket>  (130) 
nan

>  <ATP_Site>  (130) 
nan

>  <Peripheral>  (130) 
nan

>  <Num_H_Atoms_ProtBoundConf>  (130) 
nan

>  <Num_Resolved_Atoms>  (130) 
nan

>  <Num_Not_Resolved_Atoms>  (130) 
nan

$$$$
CHEMBL1915448
     RDKit          3D

  0  0  0  0  0  0  0  0  0  0999 V3000
M  V30 BEGIN CTAB
M  V30 COUNTS 60 65 0 0 0
M  V30 BEGIN ATOM
M  V30 1 Cl 2.098664 -2.835748 2.264759 0
M  V30 2 C 1.202682 -1.340943 2.119597 0
M  V30 3 C 1.567419 -0.143963 2.749899 0
M  V30 4 C 0.778017 0.994294 2.564522 0
M  V30 5 O 1.316805 2.022003 3.260752 0
M  V30 6 C 0.936696 3.356166 3.380571 0
M  V30 7 C 1.043837 4.055552 2.072124 0
M  V30 8 N 0.641555 5.459432 2.153315 0
M  V30 9 C 0.856457 5.976285 0.796426 0
M  V30 10 C -0.333416 5.682859 -0.094816 0
M  V30 11 O -1.397513 6.491812 0.312195 0
M  V30 12 C -1.467518 6.648239 1.687094 0
M  V30 13 C -0.796654 5.475490 2.362688 0
M  V30 14 C -0.352984 1.020235 1.794384 0
M  V30 15 C -0.640296 -0.184261 1.215381 0
M  V30 16 C 0.064313 -1.365851 1.326342 0
M  V30 17 N -0.338824 -2.535557 0.709238 0
M  V30 18 C -0.013261 -3.478536 -0.255066 0
M  V30 19 N -0.728996 -4.614321 -0.294862 0
M  V30 20 C -0.581741 -5.622714 -1.146348 0
M  V30 21 C -1.424991 -6.717658 -1.030313 0
M  V30 22 C -2.460024 -6.845737 -0.031893 0
M  V30 23 N -3.285269 -7.928785 0.043101 0
M  V30 24 N -4.119286 -7.727587 1.064733 0
M  V30 25 C -3.880464 -6.560036 1.666933 0
M  V30 26 N -2.866794 -6.073789 0.958110 0
M  V30 27 C -1.188465 -7.702507 -1.963985 0
M  V30 28 C -0.210692 -7.634527 -2.936104 0
M  V30 29 C 0.597969 -6.504403 -2.991278 0
M  V30 30 C 0.410311 -5.488574 -2.087246 0
M  V30 31 C 1.216495 -4.381118 -2.160718 0
M  V30 32 C 2.194362 -4.263154 -3.115815 0
M  V30 33 N 2.944490 -3.122245 -3.130216 0
M  V30 34 C 2.718675 -2.141214 -2.220933 0
M  V30 35 C 1.735635 -2.275741 -1.270145 0
M  V30 36 C 0.961690 -3.409624 -1.223593 0
M  V30 37 H 2.455194 -0.256318 3.327340 0
M  V30 38 H 1.536215 3.887364 4.162077 0
M  V30 39 H -0.112812 3.444363 3.743805 0
M  V30 40 H 2.132201 4.041226 1.787449 0
M  V30 41 H 0.411850 3.593154 1.319556 0
M  V30 42 H 1.771918 5.542348 0.346551 0
M  V30 43 H 0.965748 7.075445 0.858608 0
M  V30 44 H -0.058127 5.996286 -1.122668 0
M  V30 45 H -0.593681 4.612406 -0.124732 0
M  V30 46 H -2.558041 6.577623 1.970047 0
M  V30 47 H -1.032510 7.601812 1.999662 0
M  V30 48 H -1.053721 5.420499 3.440159 0
M  V30 49 H -1.191637 4.565353 1.823639 0
M  V30 50 H -0.978284 1.858542 1.651921 0
M  V30 51 H -1.536240 -0.248666 0.580390 0
M  V30 52 H -1.243371 -2.694508 1.249639 0
M  V30 53 H -4.402866 -6.134514 2.524106 0
M  V30 54 H -2.450470 -5.135736 1.207114 0
M  V30 55 H -1.830311 -8.595468 -1.918834 0
M  V30 56 H -0.135079 -8.489333 -3.610955 0
M  V30 57 H 1.324297 -6.555034 -3.782410 0
M  V30 58 H 2.425861 -4.997731 -3.862612 0
M  V30 59 H 3.327698 -1.252825 -2.259367 0
M  V30 60 H 1.583960 -1.485028 -0.594446 0
M  V30 END ATOM
M  V30 BEGIN BOND
M  V30 1 1 1 2
M  V30 2 2 2 3
M  V30 3 1 3 4
M  V30 4 1 4 5
M  V30 5 1 5 6
M  V30 6 1 6 7
M  V30 7 1 7 8
M  V30 8 1 8 9
M  V30 9 1 9 10
M  V30 10 1 10 11
M  V30 11 1 11 12
M  V30 12 1 12 13
M  V30 13 2 4 14
M  V30 14 1 14 15
M  V30 15 2 15 16
M  V30 16 1 16 17
M  V30 17 1 17 18
M  V30 18 2 18 19
M  V30 19 1 19 20
M  V30 20 2 20 21
M  V30 21 1 21 22
M  V30 22 2 22 23
M  V30 23 1 23 24
M  V30 24 2 24 25
M  V30 25 1 25 26
M  V30 26 1 21 27
M  V30 27 2 27 28
M  V30 28 1 28 29
M  V30 29 2 29 30
M  V30 30 1 30 31
M  V30 31 2 31 32
M  V30 32 1 32 33
M  V30 33 2 33 34
M  V30 34 1 34 35
M  V30 35 2 35 36
M  V30 36 1 16 2
M  V30 37 1 36 18
M  V30 38 1 13 8
M  V30 39 1 30 20
M  V30 40 1 36 31
M  V30 41 1 26 22
M  V30 42 1 3 37
M  V30 43 1 6 38
M  V30 44 1 6 39
M  V30 45 1 7 40
M  V30 46 1 7 41
M  V30 47 1 9 42
M  V30 48 1 9 43
M  V30 49 1 10 44
M  V30 50 1 10 45
M  V30 51 1 12 46
M  V30 52 1 12 47
M  V30 53 1 13 48
M  V30 54 1 13 49
M  V30 55 1 14 50
M  V30 56 1 15 51
M  V30 57 1 17 52
M  V30 58 1 25 53
M  V30 59 1 26 54
M  V30 60 1 27 55
M  V30 61 1 28 56
M  V30 62 1 29 57
M  V30 63 1 32 58
M  V30 64 1 34 59
M  V30 65 1 35 60
M  V30 END BOND
M  V30 END CTAB
M  END
>  <Dataset>  (131) 
ChEMBL_Kinases

>  <Ligand_Instance>  (131) 
nan

>  <PDB_ID>  (131) 
nan

>  <Standardized_SMILES>  (131) 
Clc1cc(OCCN2CCOCC2)ccc1Nc1nc2c(-c3nnc[nH]3)cccc2c2cnccc12

>  <Name>  (131) 
nan

>  <Pocket>  (131) 
nan

>  <ATP_Site>  (131) 
nan

>  <Peripheral>  (131) 
nan

>  <Num_H_Atoms_ProtBoundConf>  (131) 
nan

>  <Num_Resolved_Atoms>  (131) 
nan

>  <Num_Not_Resolved_Atoms>  (131) 
nan

$$$$
CHEMBL1915447
     RDKit          3D

  0  0  0  0  0  0  0  0  0  0999 V3000
M  V30 BEGIN CTAB
M  V30 COUNTS 44 48 0 0 0
M  V30 BEGIN ATOM
M  V30 1 F 5.628298 3.711348 3.190821 0
M  V30 2 C 4.758095 2.711312 2.766064 0
M  V30 3 F 3.549430 2.889655 3.442665 0
M  V30 4 F 5.323996 1.486238 3.056778 0
M  V30 5 O 4.571338 2.896022 1.372812 0
M  V30 6 C 3.742623 2.042547 0.645807 0
M  V30 7 C 4.269113 0.901290 0.066224 0
M  V30 8 C 3.410371 0.090078 -0.641843 0
M  V30 9 C 2.059706 0.349459 -0.805746 0
M  V30 10 N 1.175778 -0.479906 -1.531653 0
M  V30 11 C 0.050570 -1.081816 -0.935194 0
M  V30 12 N -0.152764 -0.836410 0.367916 0
M  V30 13 C -1.235567 -1.418915 0.930148 0
M  V30 14 C -1.454056 -1.172195 2.273205 0
M  V30 15 C -0.602395 -0.333555 3.116743 0
M  V30 16 N 0.497579 0.291325 2.661279 0
M  V30 17 N 1.087723 0.983722 3.621437 0
M  V30 18 C 0.356238 0.810499 4.741584 0
M  V30 19 N -0.670949 0.004660 4.417156 0
M  V30 20 C -2.537951 -1.723185 2.944358 0
M  V30 21 C -3.429497 -2.540337 2.267893 0
M  V30 22 C -3.201643 -2.784066 0.913123 0
M  V30 23 C -2.124537 -2.232229 0.260696 0
M  V30 24 C -1.897647 -2.471005 -1.075038 0
M  V30 25 C -2.764753 -3.277924 -1.773996 0
M  V30 26 N -2.476336 -3.466672 -3.084581 0
M  V30 27 C -1.404878 -2.897796 -3.666302 0
M  V30 28 C -0.517941 -2.084358 -2.991639 0
M  V30 29 C -0.797993 -1.885521 -1.666536 0
M  V30 30 C 1.589784 1.499930 -0.206879 0
M  V30 31 Cl -0.098426 1.975089 -0.318347 0
M  V30 32 C 2.403705 2.351274 0.515255 0
M  V30 33 H 5.322212 0.677151 0.180464 0
M  V30 34 H 3.791384 -0.824492 -1.116113 0
M  V30 35 H 1.571106 -0.487759 -2.476003 0
M  V30 36 H 0.549268 1.233597 5.718721 0
M  V30 37 H -1.447301 -0.344835 5.047379 0
M  V30 38 H -2.733363 -1.542303 4.011247 0
M  V30 39 H -4.275211 -2.958653 2.830690 0
M  V30 40 H -3.927182 -3.417094 0.470576 0
M  V30 41 H -3.640229 -3.770821 -1.393494 0
M  V30 42 H -1.275643 -3.121772 -4.724132 0
M  V30 43 H 0.301976 -1.678753 -3.537111 0
M  V30 44 H 2.053854 3.256359 0.991156 0
M  V30 END ATOM
M  V30 BEGIN BOND
M  V30 1 1 1 2
M  V30 2 1 2 3
M  V30 3 1 2 4
M  V30 4 1 2 5
M  V30 5 1 5 6
M  V30 6 2 6 7
M  V30 7 1 7 8
M  V30 8 2 8 9
M  V30 9 1 9 10
M  V30 10 1 10 11
M  V30 11 2 11 12
M  V30 12 1 12 13
M  V30 13 2 13 14
M  V30 14 1 14 15
M  V30 15 2 15 16
M  V30 16 1 16 17
M  V30 17 2 17 18
M  V30 18 1 18 19
M  V30 19 1 14 20
M  V30 20 2 20 21
M  V30 21 1 21 22
M  V30 22 2 22 23
M  V30 23 1 23 24
M  V30 24 2 24 25
M  V30 25 1 25 26
M  V30 26 2 26 27
M  V30 27 1 27 28
M  V30 28 2 28 29
M  V30 29 1 9 30
M  V30 30 1 30 31
M  V30 31 2 30 32
M  V30 32 1 32 6
M  V30 33 1 29 11
M  V30 34 1 23 13
M  V30 35 1 29 24
M  V30 36 1 19 15
M  V30 37 1 7 33
M  V30 38 1 8 34
M  V30 39 1 10 35
M  V30 40 1 18 36
M  V30 41 1 19 37
M  V30 42 1 20 38
M  V30 43 1 21 39
M  V30 44 1 22 40
M  V30 45 1 25 41
M  V30 46 1 27 42
M  V30 47 1 28 43
M  V30 48 1 32 44
M  V30 END BOND
M  V30 END CTAB
M  END
>  <Dataset>  (132) 
ChEMBL_Kinases

>  <Ligand_Instance>  (132) 
nan

>  <PDB_ID>  (132) 
nan

>  <Standardized_SMILES>  (132) 
FC(F)(F)Oc1ccc(Nc2nc3c(-c4nnc[nH]4)cccc3c3cnccc23)c(Cl)c1

>  <Name>  (132) 
nan

>  <Pocket>  (132) 
nan

>  <ATP_Site>  (132) 
nan

>  <Peripheral>  (132) 
nan

>  <Num_H_Atoms_ProtBoundConf>  (132) 
nan

>  <Num_Resolved_Atoms>  (132) 
nan

>  <Num_Not_Resolved_Atoms>  (132) 
nan

$$$$
CHEMBL1915446
     RDKit          3D

  0  0  0  0  0  0  0  0  0  0999 V3000
M  V30 BEGIN CTAB
M  V30 COUNTS 46 50 0 0 0
M  V30 BEGIN ATOM
M  V30 1 C 1.494973 -4.769730 5.663060 0
M  V30 2 S 2.963973 -4.308236 4.744855 0
M  V30 3 O 3.781561 -3.347519 5.559886 0
M  V30 4 O 3.810725 -5.503026 4.427511 0
M  V30 5 C 2.477686 -3.445675 3.282195 0
M  V30 6 C 2.237731 -4.147832 2.106193 0
M  V30 7 C 1.854235 -3.433760 0.966539 0
M  V30 8 C 1.707668 -2.062398 0.973564 0
M  V30 9 N 1.315040 -1.361125 -0.200311 0
M  V30 10 C 0.223431 -0.518909 -0.553788 0
M  V30 11 N 0.228320 0.834987 -0.413956 0
M  V30 12 C -0.841109 1.571606 -0.767992 0
M  V30 13 C -0.786186 2.960990 -0.604673 0
M  V30 14 C 0.394834 3.648212 -0.062853 0
M  V30 15 N 1.546865 3.080962 0.336632 0
M  V30 16 N 2.408284 3.984189 0.772915 0
M  V30 17 C 1.789820 5.170707 0.649811 0
M  V30 18 N 0.552546 4.976772 0.137537 0
M  V30 19 C -1.865534 3.720751 -0.960269 0
M  V30 20 C -3.039638 3.189440 -1.485254 0
M  V30 21 C -3.072882 1.799038 -1.640092 0
M  V30 22 C -1.994736 1.022446 -1.286680 0
M  V30 23 C -2.040850 -0.342686 -1.444221 0
M  V30 24 C -3.144062 -0.950123 -1.948822 0
M  V30 25 N -3.217335 -2.283180 -2.114170 0
M  V30 26 C -2.172941 -3.060138 -1.774394 0
M  V30 27 C -1.055501 -2.436843 -1.262492 0
M  V30 28 C -0.930065 -1.070357 -1.072736 0
M  V30 29 C 1.960064 -1.424413 2.170152 0
M  V30 30 Cl 1.803843 0.315206 2.290778 0
M  V30 31 C 2.340917 -2.073892 3.325970 0
M  V30 32 H 0.793847 -5.303950 4.992882 0
M  V30 33 H 1.785105 -5.446375 6.474050 0
M  V30 34 H 1.074378 -3.837632 6.093123 0
M  V30 35 H 2.344055 -5.229211 2.066369 0
M  V30 36 H 1.681507 -4.030331 0.082282 0
M  V30 37 H 2.016699 -1.527220 -0.958969 0
M  V30 38 H 2.281351 6.086846 0.940242 0
M  V30 39 H -0.137259 5.714815 -0.060404 0
M  V30 40 H -1.834586 4.811683 -0.836852 0
M  V30 41 H -3.872683 3.825319 -1.754754 0
M  V30 42 H -4.000189 1.441649 -2.048555 0
M  V30 43 H -4.051154 -0.466379 -2.263417 0
M  V30 44 H -2.216448 -4.138203 -1.901934 0
M  V30 45 H -0.244855 -3.104091 -1.005569 0
M  V30 46 H 2.536853 -1.578854 4.254514 0
M  V30 END ATOM
M  V30 BEGIN BOND
M  V30 1 1 1 2
M  V30 2 2 2 3
M  V30 3 2 2 4
M  V30 4 1 2 5
M  V30 5 2 5 6
M  V30 6 1 6 7
M  V30 7 2 7 8
M  V30 8 1 8 9
M  V30 9 1 9 10
M  V30 10 2 10 11
M  V30 11 1 11 12
M  V30 12 2 12 13
M  V30 13 1 13 14
M  V30 14 2 14 15
M  V30 15 1 15 16
M  V30 16 2 16 17
M  V30 17 1 17 18
M  V30 18 1 13 19
M  V30 19 2 19 20
M  V30 20 1 20 21
M  V30 21 2 21 22
M  V30 22 1 22 23
M  V30 23 2 23 24
M  V30 24 1 24 25
M  V30 25 2 25 26
M  V30 26 1 26 27
M  V30 27 2 27 28
M  V30 28 1 8 29
M  V30 29 1 29 30
M  V30 30 2 29 31
M  V30 31 1 31 5
M  V30 32 1 28 10
M  V30 33 1 22 12
M  V30 34 1 28 23
M  V30 35 1 18 14
M  V30 36 1 1 32
M  V30 37 1 1 33
M  V30 38 1 1 34
M  V30 39 1 6 35
M  V30 40 1 7 36
M  V30 41 1 9 37
M  V30 42 1 17 38
M  V30 43 1 18 39
M  V30 44 1 19 40
M  V30 45 1 20 41
M  V30 46 1 21 42
M  V30 47 1 24 43
M  V30 48 1 26 44
M  V30 49 1 27 45
M  V30 50 1 31 46
M  V30 END BOND
M  V30 END CTAB
M  END
>  <Dataset>  (133) 
ChEMBL_Kinases

>  <Ligand_Instance>  (133) 
nan

>  <PDB_ID>  (133) 
nan

>  <Standardized_SMILES>  (133) 
CS(=O)(=O)c1ccc(Nc2nc3c(-c4nnc[nH]4)cccc3c3cnccc23)c(Cl)c1

>  <Name>  (133) 
nan

>  <Pocket>  (133) 
nan

>  <ATP_Site>  (133) 
nan

>  <Peripheral>  (133) 
nan

>  <Num_H_Atoms_ProtBoundConf>  (133) 
nan

>  <Num_Resolved_Atoms>  (133) 
nan

>  <Num_Not_Resolved_Atoms>  (133) 
nan

$$$$
CHEMBL1915639
     RDKit          3D

  0  0  0  0  0  0  0  0  0  0999 V3000
M  V30 BEGIN CTAB
M  V30 COUNTS 40 44 0 0 0
M  V30 BEGIN ATOM
M  V30 1 F 1.424102 -3.483941 1.286668 0
M  V30 2 C 2.539847 -2.797725 1.066787 0
M  V30 3 C 3.597872 -3.115910 1.916070 0
M  V30 4 C 4.842556 -2.499351 1.834252 0
M  V30 5 C 5.008389 -1.523630 0.847476 0
M  V30 6 Cl 6.574341 -0.763165 0.758574 0
M  V30 7 C 3.955182 -1.215890 0.011172 0
M  V30 8 C 2.721512 -1.822432 0.088220 0
M  V30 9 N 1.639864 -1.487176 -0.777311 0
M  V30 10 C 0.372054 -0.997300 -0.299731 0
M  V30 11 N 0.187374 0.213669 0.301448 0
M  V30 12 C -1.070698 0.536462 0.693029 0
M  V30 13 C -1.218553 1.786144 1.306254 0
M  V30 14 C -0.146142 2.745794 1.552606 0
M  V30 15 N 1.159389 2.539329 1.205614 0
M  V30 16 N 1.899188 3.575719 1.552032 0
M  V30 17 C 1.025297 4.449384 2.130426 0
M  V30 18 N -0.222272 3.956468 2.136547 0
M  V30 19 C -2.499206 2.161087 1.728919 0
M  V30 20 C -3.615159 1.336072 1.557953 0
M  V30 21 C -3.415543 0.113253 0.946962 0
M  V30 22 C -2.168577 -0.277038 0.523466 0
M  V30 23 C -1.979157 -1.492508 -0.081065 0
M  V30 24 C -3.029827 -2.332134 -0.276518 0
M  V30 25 N -2.882333 -3.545324 -0.876194 0
M  V30 26 C -1.666366 -3.951491 -1.299117 0
M  V30 27 C -0.623210 -3.074994 -1.084831 0
M  V30 28 C -0.705204 -1.837104 -0.485792 0
M  V30 29 H 3.503036 -3.875813 2.702910 0
M  V30 30 H 5.633979 -2.788338 2.527360 0
M  V30 31 H 4.120506 -0.459323 -0.738085 0
M  V30 32 H 1.726213 -1.590141 -1.833060 0
M  V30 33 H 1.389261 5.388328 2.503807 0
M  V30 34 H -1.089645 4.410645 2.514486 0
M  V30 35 H -2.656086 3.129550 2.211807 0
M  V30 36 H -4.595349 1.695455 1.914799 0
M  V30 37 H -4.315330 -0.467597 0.847635 0
M  V30 38 H -4.050145 -2.167100 -0.004527 0
M  V30 39 H -1.520794 -4.909751 -1.776789 0
M  V30 40 H 0.353113 -3.410628 -1.428432 0
M  V30 END ATOM
M  V30 BEGIN BOND
M  V30 1 1 1 2
M  V30 2 2 2 3
M  V30 3 1 3 4
M  V30 4 2 4 5
M  V30 5 1 5 6
M  V30 6 1 5 7
M  V30 7 2 7 8
M  V30 8 1 8 9
M  V30 9 1 9 10
M  V30 10 2 10 11
M  V30 11 1 11 12
M  V30 12 2 12 13
M  V30 13 1 13 14
M  V30 14 2 14 15
M  V30 15 1 15 16
M  V30 16 2 16 17
M  V30 17 1 17 18
M  V30 18 1 13 19
M  V30 19 2 19 20
M  V30 20 1 20 21
M  V30 21 2 21 22
M  V30 22 1 22 23
M  V30 23 2 23 24
M  V30 24 1 24 25
M  V30 25 2 25 26
M  V30 26 1 26 27
M  V30 27 2 27 28
M  V30 28 1 8 2
M  V30 29 1 28 10
M  V30 30 1 22 12
M  V30 31 1 28 23
M  V30 32 1 18 14
M  V30 33 1 3 29
M  V30 34 1 4 30
M  V30 35 1 7 31
M  V30 36 1 9 32
M  V30 37 1 17 33
M  V30 38 1 18 34
M  V30 39 1 19 35
M  V30 40 1 20 36
M  V30 41 1 21 37
M  V30 42 1 24 38
M  V30 43 1 26 39
M  V30 44 1 27 40
M  V30 END BOND
M  V30 END CTAB
M  END
>  <Dataset>  (134) 
ChEMBL_Kinases

>  <Ligand_Instance>  (134) 
nan

>  <PDB_ID>  (134) 
nan

>  <Standardized_SMILES>  (134) 
Fc1ccc(Cl)cc1Nc1nc2c(-c3nnc[nH]3)cccc2c2cnccc12

>  <Name>  (134) 
nan

>  <Pocket>  (134) 
nan

>  <ATP_Site>  (134) 
nan

>  <Peripheral>  (134) 
nan

>  <Num_H_Atoms_ProtBoundConf>  (134) 
nan

>  <Num_Resolved_Atoms>  (134) 
nan

>  <Num_Not_Resolved_Atoms>  (134) 
nan

$$$$
CHEMBL1331525
     RDKit          3D

  0  0  0  0  0  0  0  0  0  0999 V3000
M  V30 BEGIN CTAB
M  V30 COUNTS 37 40 0 0 0
M  V30 BEGIN ATOM
M  V30 1 C 2.218699 -3.577624 3.852640 0
M  V30 2 C 1.851577 -4.786610 3.310074 0
M  V30 3 N 1.794783 -4.917146 1.963410 0
M  V30 4 C 2.091651 -3.883749 1.155715 0
M  V30 5 C 2.468606 -2.638651 1.629631 0
M  V30 6 C 2.790326 -1.518181 0.743981 0
M  V30 7 N 1.662088 -0.678876 0.394264 0
M  V30 8 C 1.848488 0.414483 -0.440785 0
M  V30 9 N 3.062942 0.723640 -0.921240 0
M  V30 10 C 3.209524 1.787004 -1.706944 0
M  V30 11 N 2.176637 2.583020 -2.049356 0
M  V30 12 C 0.935147 2.277470 -1.565977 0
M  V30 13 C 0.750412 1.159107 -0.733423 0
M  V30 14 C -0.602812 0.989836 -0.344043 0
M  V30 15 C -1.284747 2.097805 0.180520 0
M  V30 16 C -2.601524 2.099910 0.595844 0
M  V30 17 C -3.316938 0.925175 0.492725 0
M  V30 18 C -2.691620 -0.189511 -0.016056 0
M  V30 19 C -1.371597 -0.145303 -0.419609 0
M  V30 20 O -3.596311 -1.242231 -0.025430 0
M  V30 21 C -4.876940 -0.778181 0.353670 0
M  V30 22 O -4.606271 0.532740 0.789230 0
M  V30 23 C 2.520892 -2.525199 3.019634 0
M  V30 24 H 2.260957 -3.483403 4.919561 0
M  V30 25 H 1.596057 -5.671031 3.892873 0
M  V30 26 H 2.052285 -3.966958 0.059936 0
M  V30 27 H 3.274463 -1.969951 -0.167676 0
M  V30 28 H 3.612530 -0.902764 1.194486 0
M  V30 29 H 0.769834 -0.989982 0.829986 0
M  V30 30 H 4.184741 2.040569 -2.096519 0
M  V30 31 H 0.177008 2.989405 -1.907792 0
M  V30 32 H -0.749622 3.041005 0.275670 0
M  V30 33 H -3.053575 2.986693 0.986161 0
M  V30 34 H -0.927412 -1.025249 -0.812831 0
M  V30 35 H -5.526299 -0.750386 -0.551755 0
M  V30 36 H -5.321906 -1.410558 1.152714 0
M  V30 37 H 2.815573 -1.552744 3.409685 0
M  V30 END ATOM
M  V30 BEGIN BOND
M  V30 1 2 1 2
M  V30 2 1 2 3
M  V30 3 2 3 4
M  V30 4 1 4 5
M  V30 5 1 5 6
M  V30 6 1 6 7
M  V30 7 1 7 8
M  V30 8 2 8 9
M  V30 9 1 9 10
M  V30 10 2 10 11
M  V30 11 1 11 12
M  V30 12 2 12 13
M  V30 13 1 13 14
M  V30 14 2 14 15
M  V30 15 1 15 16
M  V30 16 2 16 17
M  V30 17 1 17 18
M  V30 18 2 18 19
M  V30 19 1 18 20
M  V30 20 1 20 21
M  V30 21 1 21 22
M  V30 22 2 5 23
M  V30 23 1 23 1
M  V30 24 1 13 8
M  V30 25 1 19 14
M  V30 26 1 22 17
M  V30 27 1 1 24
M  V30 28 1 2 25
M  V30 29 1 4 26
M  V30 30 1 6 27
M  V30 31 1 6 28
M  V30 32 1 7 29
M  V30 33 1 10 30
M  V30 34 1 12 31
M  V30 35 1 15 32
M  V30 36 1 16 33
M  V30 37 1 19 34
M  V30 38 1 21 35
M  V30 39 1 21 36
M  V30 40 1 23 37
M  V30 END BOND
M  V30 END CTAB
M  END
>  <Dataset>  (135) 
ChEMBL_Kinases

>  <Ligand_Instance>  (135) 
nan

>  <PDB_ID>  (135) 
nan

>  <Standardized_SMILES>  (135) 
c1cncc(CNc2ncncc2-c2ccc3c(c2)OCO3)c1

>  <Name>  (135) 
nan

>  <Pocket>  (135) 
nan

>  <ATP_Site>  (135) 
nan

>  <Peripheral>  (135) 
nan

>  <Num_H_Atoms_ProtBoundConf>  (135) 
nan

>  <Num_Resolved_Atoms>  (135) 
nan

>  <Num_Not_Resolved_Atoms>  (135) 
nan

$$$$
CHEMBL4751127
     RDKit          3D

  0  0  0  0  0  0  0  0  0  0999 V3000
M  V30 BEGIN CTAB
M  V30 COUNTS 44 47 0 0 0
M  V30 BEGIN ATOM
M  V30 1 C -3.272660 -1.960494 2.336653 0
M  V30 2 C -2.035625 -1.600012 1.594548 0
M  V30 3 C -2.003100 -1.787238 0.228902 0
M  V30 4 C -0.851894 -1.457099 -0.498273 0
M  V30 5 N -0.869693 -1.669532 -1.905021 0
M  V30 6 C -0.712099 -0.800523 -2.992112 0
M  V30 7 C -0.771576 -1.266818 -4.289632 0
M  V30 8 C -0.605549 -0.339168 -5.296246 0
M  V30 9 N -0.390987 0.979749 -5.111241 0
M  V30 10 C -0.329993 1.452415 -3.849139 0
M  V30 11 C -0.491924 0.551731 -2.816589 0
M  V30 12 C 0.215198 -0.948153 0.216437 0
M  V30 13 O 1.241165 -0.650446 -0.407701 0
M  V30 14 N 0.214644 -0.756140 1.531908 0
M  V30 15 C -0.911486 -1.083101 2.215748 0
M  V30 16 C -0.749446 -0.814206 3.635286 0
M  V30 17 O -1.570325 -0.987769 4.576989 0
M  V30 18 N 0.574544 -0.295317 3.751389 0
M  V30 19 C 1.218723 -0.241795 2.447381 0
M  V30 20 C 1.655212 1.161161 2.120914 0
M  V30 21 C 2.536491 1.632685 3.253520 0
M  V30 22 C 3.586973 0.642464 3.635514 0
M  V30 23 C 3.715595 -0.493715 2.663757 0
M  V30 24 C 2.403565 -1.164460 2.388277 0
M  V30 25 H -3.459797 -1.321461 3.197661 0
M  V30 26 H -4.165324 -1.841493 1.668420 0
M  V30 27 H -3.153463 -2.999526 2.674776 0
M  V30 28 H -2.863370 -2.189008 -0.288763 0
M  V30 29 H -1.036184 -2.685778 -2.068098 0
M  V30 30 H -0.940901 -2.313079 -4.503294 0
M  V30 31 H -0.645847 -0.667508 -6.328722 0
M  V30 32 H -0.160533 2.494776 -3.694856 0
M  V30 33 H -0.431007 1.001536 -1.834446 0
M  V30 34 H 1.030214 0.007122 4.638365 0
M  V30 35 H 0.817277 1.860669 2.040078 0
M  V30 36 H 2.297156 1.112044 1.216585 0
M  V30 37 H 3.036218 2.558954 2.901401 0
M  V30 38 H 1.946129 1.873277 4.168809 0
M  V30 39 H 4.599974 1.131937 3.678926 0
M  V30 40 H 3.419560 0.232875 4.655738 0
M  V30 41 H 4.248547 -0.173305 1.743944 0
M  V30 42 H 4.385173 -1.258836 3.132484 0
M  V30 43 H 2.214503 -2.024403 3.088482 0
M  V30 44 H 2.463808 -1.573832 1.358828 0
M  V30 END ATOM
M  V30 BEGIN BOND
M  V30 1 1 1 2
M  V30 2 1 2 3
M  V30 3 2 3 4
M  V30 4 1 4 5
M  V30 5 1 5 6
M  V30 6 2 6 7
M  V30 7 1 7 8
M  V30 8 2 8 9
M  V30 9 1 9 10
M  V30 10 2 10 11
M  V30 11 1 4 12
M  V30 12 2 12 13
M  V30 13 1 12 14
M  V30 14 1 14 15
M  V30 15 1 15 16
M  V30 16 2 16 17
M  V30 17 1 16 18
M  V30 18 1 18 19
M  V30 19 1 19 20
M  V30 20 1 20 21
M  V30 21 1 21 22
M  V30 22 1 22 23
M  V30 23 1 23 24
M  V30 24 2 15 2
M  V30 25 1 24 19
M  V30 26 1 11 6
M  V30 27 1 19 14
M  V30 28 1 1 25
M  V30 29 1 1 26
M  V30 30 1 1 27
M  V30 31 1 3 28
M  V30 32 1 5 29
M  V30 33 1 7 30
M  V30 34 1 8 31
M  V30 35 1 10 32
M  V30 36 1 11 33
M  V30 37 1 18 34
M  V30 38 1 20 35
M  V30 39 1 20 36
M  V30 40 1 21 37
M  V30 41 1 21 38
M  V30 42 1 22 39
M  V30 43 1 22 40
M  V30 44 1 23 41
M  V30 45 1 23 42
M  V30 46 1 24 43
M  V30 47 1 24 44
M  V30 END BOND
M  V30 END CTAB
M  END
>  <Dataset>  (136) 
ChEMBL_Kinases

>  <Ligand_Instance>  (136) 
nan

>  <PDB_ID>  (136) 
nan

>  <Standardized_SMILES>  (136) 
Cc1cc(Nc2ccncc2)c(=O)n2c1C(=O)NC21CCCCC1

>  <Name>  (136) 
nan

>  <Pocket>  (136) 
nan

>  <ATP_Site>  (136) 
nan

>  <Peripheral>  (136) 
nan

>  <Num_H_Atoms_ProtBoundConf>  (136) 
nan

>  <Num_Resolved_Atoms>  (136) 
nan

>  <Num_Not_Resolved_Atoms>  (136) 
nan

$$$$
CHEMBL519028
     RDKit          3D

  0  0  0  0  0  0  0  0  0  0999 V3000
M  V30 BEGIN CTAB
M  V30 COUNTS 30 32 0 0 0
M  V30 BEGIN ATOM
M  V30 1 N -0.752166 -4.370589 4.268015 0
M  V30 2 S 0.260441 -4.669881 2.886929 0
M  V30 3 O -0.394332 -5.771759 2.100886 0
M  V30 4 O 1.641534 -5.051720 3.307371 0
M  V30 5 C 0.258009 -3.239162 1.879254 0
M  V30 6 C 1.203358 -2.283000 2.106511 0
M  V30 7 C 1.306748 -1.113474 1.383076 0
M  V30 8 C 0.419666 -0.857666 0.359659 0
M  V30 9 C 0.354012 0.305623 -0.519860 0
M  V30 10 C 0.173944 0.030589 -1.880520 0
M  V30 11 C 0.106073 1.119787 -2.757661 0
M  V30 12 N 0.210319 2.383541 -2.307213 0
M  V30 13 C 0.381814 2.666535 -1.017706 0
M  V30 14 N 0.516878 3.801582 -0.280094 0
M  V30 15 C 0.668664 3.515825 1.025452 0
M  V30 16 C 0.628618 2.140126 1.123925 0
M  V30 17 C 0.454056 1.622186 -0.119187 0
M  V30 18 C -0.551860 -1.839632 0.125627 0
M  V30 19 C -0.641685 -3.005280 0.859230 0
M  V30 20 H -1.756853 -4.488392 3.957656 0
M  V30 21 H -0.645410 -3.410694 4.625905 0
M  V30 22 H 1.956847 -2.360865 2.877849 0
M  V30 23 H 2.039113 -0.332040 1.530341 0
M  V30 24 H 0.079127 -0.941367 -2.344302 0
M  V30 25 H -0.030848 1.057345 -3.836971 0
M  V30 26 H 0.503246 4.776447 -0.687084 0
M  V30 27 H 0.798006 4.197933 1.855462 0
M  V30 28 H 0.723937 1.605315 2.052807 0
M  V30 29 H -1.315714 -1.752166 -0.662304 0
M  V30 30 H -1.392664 -3.752290 0.669853 0
M  V30 END ATOM
M  V30 BEGIN BOND
M  V30 1 1 1 2
M  V30 2 2 2 3
M  V30 3 2 2 4
M  V30 4 1 2 5
M  V30 5 2 5 6
M  V30 6 1 6 7
M  V30 7 2 7 8
M  V30 8 1 8 9
M  V30 9 2 9 10
M  V30 10 1 10 11
M  V30 11 2 11 12
M  V30 12 1 12 13
M  V30 13 1 13 14
M  V30 14 1 14 15
M  V30 15 2 15 16
M  V30 16 1 16 17
M  V30 17 1 8 18
M  V30 18 2 18 19
M  V30 19 1 19 5
M  V30 20 1 17 9
M  V30 21 2 17 13
M  V30 22 1 1 20
M  V30 23 1 1 21
M  V30 24 1 6 22
M  V30 25 1 7 23
M  V30 26 1 10 24
M  V30 27 1 11 25
M  V30 28 1 14 26
M  V30 29 1 15 27
M  V30 30 1 16 28
M  V30 31 1 18 29
M  V30 32 1 19 30
M  V30 END BOND
M  V30 END CTAB
M  END
>  <Dataset>  (137) 
ChEMBL_Kinases

>  <Ligand_Instance>  (137) 
nan

>  <PDB_ID>  (137) 
nan

>  <Standardized_SMILES>  (137) 
NS(=O)(=O)c1ccc(-c2ccnc3[nH]ccc23)cc1

>  <Name>  (137) 
nan

>  <Pocket>  (137) 
nan

>  <ATP_Site>  (137) 
nan

>  <Peripheral>  (137) 
nan

>  <Num_H_Atoms_ProtBoundConf>  (137) 
nan

>  <Num_Resolved_Atoms>  (137) 
nan

>  <Num_Not_Resolved_Atoms>  (137) 
nan

$$$$
CHEMBL1332463
     RDKit          3D

  0  0  0  0  0  0  0  0  0  0999 V3000
M  V30 BEGIN CTAB
M  V30 COUNTS 43 46 0 0 0
M  V30 BEGIN ATOM
M  V30 1 C -3.202107 -2.497406 1.320964 0
M  V30 2 C -1.956255 -2.623285 0.525376 0
M  V30 3 C -1.058452 -3.647828 0.814080 0
M  V30 4 C 0.115386 -3.823764 0.117933 0
M  V30 5 C 0.368317 -2.924713 -0.896973 0
M  V30 6 C -0.477894 -1.883374 -1.239287 0
M  V30 7 C -0.119028 -0.950159 -2.362272 0
M  V30 8 N 0.618931 0.182283 -1.995689 0
M  V30 9 C 1.367574 1.331121 -1.623812 0
M  V30 10 N 1.870852 2.296581 -2.401460 0
M  V30 11 C 2.567428 3.355680 -2.047682 0
M  V30 12 N 2.791501 3.466246 -0.744719 0
M  V30 13 C 2.355817 2.588520 0.144732 0
M  V30 14 C 2.683484 2.867744 1.454748 0
M  V30 15 C 2.268003 2.006211 2.447240 0
M  V30 16 C 1.538352 0.896332 2.081515 0
M  V30 17 C 1.073678 -0.044562 3.093005 0
M  V30 18 C 0.900802 -1.398877 2.899937 0
M  V30 19 C 0.452012 -2.177521 3.946574 0
M  V30 20 C 0.157652 -1.659533 5.215318 0
M  V30 21 N 0.348117 -0.333349 5.334448 0
M  V30 22 C 0.779206 0.446367 4.346957 0
M  V30 23 C 1.257384 0.694506 0.757900 0
M  V30 24 C 1.632560 1.500405 -0.283695 0
M  V30 25 C -1.638258 -1.760712 -0.503590 0
M  V30 26 H -3.913835 -1.816281 0.833309 0
M  V30 27 H -3.725648 -3.481249 1.459187 0
M  V30 28 H -2.982793 -2.083596 2.343171 0
M  V30 29 H -1.223686 -4.379668 1.610559 0
M  V30 30 H 0.837489 -4.606164 0.311398 0
M  V30 31 H 1.271174 -2.998898 -1.488984 0
M  V30 32 H -1.127777 -0.653135 -2.786837 0
M  V30 33 H 0.395722 -1.645491 -3.097827 0
M  V30 34 H 0.629036 0.403317 -3.046920 0
M  V30 35 H 2.839843 3.960227 -2.900366 0
M  V30 36 H 3.261230 3.749251 1.735700 0
M  V30 37 H 2.511825 2.204068 3.470484 0
M  V30 38 H 1.127312 -1.797732 1.923872 0
M  V30 39 H 0.313529 -3.251263 3.797917 0
M  V30 40 H -0.195899 -2.292517 6.029981 0
M  V30 41 H 0.907693 1.525132 4.530912 0
M  V30 42 H 0.687359 -0.179542 0.511741 0
M  V30 43 H -2.332671 -0.942754 -0.750056 0
M  V30 END ATOM
M  V30 BEGIN BOND
M  V30 1 1 1 2
M  V30 2 2 2 3
M  V30 3 1 3 4
M  V30 4 2 4 5
M  V30 5 1 5 6
M  V30 6 1 6 7
M  V30 7 1 7 8
M  V30 8 1 8 9
M  V30 9 2 9 10
M  V30 10 1 10 11
M  V30 11 2 11 12
M  V30 12 1 12 13
M  V30 13 2 13 14
M  V30 14 1 14 15
M  V30 15 2 15 16
M  V30 16 1 16 17
M  V30 17 2 17 18
M  V30 18 1 18 19
M  V30 19 2 19 20
M  V30 20 1 20 21
M  V30 21 2 21 22
M  V30 22 1 16 23
M  V30 23 2 23 24
M  V30 24 2 6 25
M  V30 25 1 25 2
M  V30 26 1 24 9
M  V30 27 1 24 13
M  V30 28 1 22 17
M  V30 29 1 1 26
M  V30 30 1 1 27
M  V30 31 1 1 28
M  V30 32 1 3 29
M  V30 33 1 4 30
M  V30 34 1 5 31
M  V30 35 1 7 32
M  V30 36 1 7 33
M  V30 37 1 8 34
M  V30 38 1 11 35
M  V30 39 1 14 36
M  V30 40 1 15 37
M  V30 41 1 18 38
M  V30 42 1 19 39
M  V30 43 1 20 40
M  V30 44 1 22 41
M  V30 45 1 23 42
M  V30 46 1 25 43
M  V30 END BOND
M  V30 END CTAB
M  END
>  <Dataset>  (138) 
ChEMBL_Kinases

>  <Ligand_Instance>  (138) 
nan

>  <PDB_ID>  (138) 
nan

>  <Standardized_SMILES>  (138) 
Cc1cccc(CNc2ncnc3ccc(-c4cccnc4)cc23)c1

>  <Name>  (138) 
nan

>  <Pocket>  (138) 
nan

>  <ATP_Site>  (138) 
nan

>  <Peripheral>  (138) 
nan

>  <Num_H_Atoms_ProtBoundConf>  (138) 
nan

>  <Num_Resolved_Atoms>  (138) 
nan

>  <Num_Not_Resolved_Atoms>  (138) 
nan

$$$$
CHEMBL518942
     RDKit          3D

  0  0  0  0  0  0  0  0  0  0999 V3000
M  V30 BEGIN CTAB
M  V30 COUNTS 54 58 0 0 0
M  V30 BEGIN ATOM
M  V30 1 C 2.357193 -4.018022 -1.869088 0
M  V30 2 C 1.500588 -3.911905 -0.685938 0
M  V30 3 C 1.788924 -2.852568 0.142849 0
M  V30 4 N 2.742013 -1.842133 0.087584 0
M  V30 5 C 3.231954 -0.767894 -0.669281 0
M  V30 6 C 4.349201 -0.872600 -1.464635 0
M  V30 7 C 5.093705 -2.102174 -1.530275 0
M  V30 8 N 5.685003 -3.095235 -1.580389 0
M  V30 9 C 4.874068 0.148877 -2.249731 0
M  V30 10 N 4.189885 1.305567 -2.181745 0
M  V30 11 C 3.122521 1.425417 -1.428815 0
M  V30 12 S 1.986330 2.903656 -1.145877 0
M  V30 13 C 0.947281 2.050243 -0.040765 0
M  V30 14 C -0.210348 2.707808 0.572571 0
M  V30 15 C -0.463488 4.026029 0.255123 0
M  V30 16 N -1.557734 4.577877 0.861175 0
M  V30 17 C -2.340177 3.887238 1.711697 0
M  V30 18 C -2.096212 2.567048 2.036734 0
M  V30 19 C -2.922649 1.754936 2.966791 0
M  V30 20 N -3.990951 1.062172 2.292734 0
M  V30 21 C -4.913779 1.922814 1.619671 0
M  V30 22 C -4.721975 0.309482 3.292642 0
M  V30 23 C -0.996160 1.986319 1.437486 0
M  V30 24 C 1.426051 0.803711 0.079322 0
M  V30 25 C 2.545707 0.429965 -0.615169 0
M  V30 26 C 1.001024 -2.693653 1.290392 0
M  V30 27 C -0.046934 -3.565975 1.605923 0
M  V30 28 C -0.249249 -4.594164 0.706315 0
M  V30 29 N -1.158800 -5.595531 0.707225 0
M  V30 30 C -1.004476 -6.390571 -0.371111 0
M  V30 31 C 0.042625 -5.911373 -1.124893 0
M  V30 32 C 0.486085 -4.807484 -0.437399 0
M  V30 33 H 2.455448 -3.005823 -2.309689 0
M  V30 34 H 3.295928 -4.545420 -1.684105 0
M  V30 35 H 1.795650 -4.630697 -2.630871 0
M  V30 36 H 3.434133 -1.748912 0.886846 0
M  V30 37 H 5.737686 0.114587 -2.882997 0
M  V30 38 H 0.132494 4.627539 -0.421748 0
M  V30 39 H -3.207752 4.344814 2.184500 0
M  V30 40 H -2.271941 0.981852 3.432931 0
M  V30 41 H -3.297937 2.382342 3.814398 0
M  V30 42 H -5.795229 1.286615 1.343428 0
M  V30 43 H -5.327038 2.723643 2.283429 0
M  V30 44 H -4.545180 2.315413 0.653829 0
M  V30 45 H -5.223286 -0.581694 2.869523 0
M  V30 46 H -4.012755 0.011413 4.111077 0
M  V30 47 H -5.485400 0.942476 3.773926 0
M  V30 48 H -0.769091 0.938155 1.670765 0
M  V30 49 H 0.882580 0.144028 0.739451 0
M  V30 50 H 1.088808 -1.907848 2.060156 0
M  V30 51 H -0.672085 -3.479478 2.472602 0
M  V30 52 H -1.884921 -5.714973 1.467628 0
M  V30 53 H -1.588668 -7.266975 -0.630986 0
M  V30 54 H 0.452289 -6.302388 -2.066516 0
M  V30 END ATOM
M  V30 BEGIN BOND
M  V30 1 1 1 2
M  V30 2 2 2 3
M  V30 3 1 3 4
M  V30 4 1 4 5
M  V30 5 2 5 6
M  V30 6 1 6 7
M  V30 7 3 7 8
M  V30 8 1 6 9
M  V30 9 2 9 10
M  V30 10 1 10 11
M  V30 11 1 11 12
M  V30 12 1 12 13
M  V30 13 1 13 14
M  V30 14 2 14 15
M  V30 15 1 15 16
M  V30 16 2 16 17
M  V30 17 1 17 18
M  V30 18 1 18 19
M  V30 19 1 19 20
M  V30 20 1 20 21
M  V30 21 1 20 22
M  V30 22 2 18 23
M  V30 23 2 13 24
M  V30 24 1 24 25
M  V30 25 1 3 26
M  V30 26 2 26 27
M  V30 27 1 27 28
M  V30 28 1 28 29
M  V30 29 1 29 30
M  V30 30 2 30 31
M  V30 31 1 31 32
M  V30 32 1 32 2
M  V30 33 1 25 5
M  V30 34 2 32 28
M  V30 35 2 25 11
M  V30 36 1 23 14
M  V30 37 1 1 33
M  V30 38 1 1 34
M  V30 39 1 1 35
M  V30 40 1 4 36
M  V30 41 1 9 37
M  V30 42 1 15 38
M  V30 43 1 17 39
M  V30 44 1 19 40
M  V30 45 1 19 41
M  V30 46 1 21 42
M  V30 47 1 21 43
M  V30 48 1 21 44
M  V30 49 1 22 45
M  V30 50 1 22 46
M  V30 51 1 22 47
M  V30 52 1 23 48
M  V30 53 1 24 49
M  V30 54 1 26 50
M  V30 55 1 27 51
M  V30 56 1 29 52
M  V30 57 1 30 53
M  V30 58 1 31 54
M  V30 END BOND
M  V30 END CTAB
M  END
>  <Dataset>  (139) 
ChEMBL_Kinases

>  <Ligand_Instance>  (139) 
nan

>  <PDB_ID>  (139) 
nan

>  <Standardized_SMILES>  (139) 
Cc1c(Nc2c(C#N)cnc3sc(-c4cncc(CN(C)C)c4)cc23)ccc2[nH]ccc12

>  <Name>  (139) 
nan

>  <Pocket>  (139) 
nan

>  <ATP_Site>  (139) 
nan

>  <Peripheral>  (139) 
nan

>  <Num_H_Atoms_ProtBoundConf>  (139) 
nan

>  <Num_Resolved_Atoms>  (139) 
nan

>  <Num_Not_Resolved_Atoms>  (139) 
nan

$$$$
CHEMBL4751184
     RDKit          3D

  0  0  0  0  0  0  0  0  0  0999 V3000
M  V30 BEGIN CTAB
M  V30 COUNTS 51 56 0 0 0
M  V30 BEGIN ATOM
M  V30 1 C -1.511888 -3.099258 -1.869845 0
M  V30 2 N -0.162048 -3.390052 -1.523937 0
M  V30 3 C 0.087643 -3.693177 -0.178031 0
M  V30 4 C 1.419345 -3.379454 0.393351 0
M  V30 5 N 2.270885 -2.557000 -0.415637 0
M  V30 6 C 3.123360 -1.514506 -0.031783 0
M  V30 7 C 4.458309 -1.716661 -0.344315 0
M  V30 8 C 5.409711 -0.761650 -0.019821 0
M  V30 9 N 5.027033 0.386171 0.612418 0
M  V30 10 C 3.726158 0.608292 0.929488 0
M  V30 11 N 3.059029 1.610277 1.534282 0
M  V30 12 C 1.748483 1.304349 1.589984 0
M  V30 13 C 0.768434 2.202659 2.192777 0
M  V30 14 N 1.065463 3.395220 2.739334 0
M  V30 15 N -0.046085 3.972087 3.202982 0
M  V30 16 C -1.105767 3.177521 2.975639 0
M  V30 17 C -2.473248 3.288776 3.248127 0
M  V30 18 C -3.288248 2.224256 2.847564 0
M  V30 19 C -2.755610 1.120720 2.213627 0
M  V30 20 C -3.621364 0.019931 1.803152 0
M  V30 21 C -3.210198 -1.131833 1.164624 0
M  V30 22 N -4.300934 -1.893094 0.958815 0
M  V30 23 N -5.355056 -1.229566 1.456365 0
M  V30 24 C -4.983484 -0.043158 1.987914 0
M  V30 25 N -1.422866 1.048548 1.966107 0
M  V30 26 C -0.596004 2.064540 2.340625 0
M  V30 27 C 1.525452 0.071674 1.011619 0
M  V30 28 C 2.778354 -0.341187 0.607175 0
M  V30 29 C 2.219436 -2.876393 -1.830929 0
M  V30 30 C 0.812383 -2.642744 -2.254442 0
M  V30 31 H -1.975578 -4.074587 -2.199558 0
M  V30 32 H -1.467985 -2.492585 -2.821841 0
M  V30 33 H -2.131166 -2.646861 -1.094135 0
M  V30 34 H -0.211557 -4.767316 0.002820 0
M  V30 35 H -0.664216 -3.126663 0.446339 0
M  V30 36 H 1.363728 -3.039791 1.465791 0
M  V30 37 H 1.963415 -4.366226 0.483131 0
M  V30 38 H 4.832529 -2.605628 -0.846312 0
M  V30 39 H 6.470512 -0.867527 -0.240897 0
M  V30 40 H 3.579753 2.465063 1.877248 0
M  V30 41 H -0.097798 4.904345 3.675313 0
M  V30 42 H -2.825816 4.176026 3.745817 0
M  V30 43 H -4.350432 2.304909 3.056341 0
M  V30 44 H -2.177542 -1.322143 0.906048 0
M  V30 45 H -6.352325 -1.553472 1.453407 0
M  V30 46 H -5.618331 0.687603 2.452388 0
M  V30 47 H 0.604650 -0.443464 0.901292 0
M  V30 48 H 2.865610 -2.225820 -2.453488 0
M  V30 49 H 2.448731 -3.960347 -1.996414 0
M  V30 50 H 0.596328 -1.553559 -2.068473 0
M  V30 51 H 0.728515 -2.843953 -3.327388 0
M  V30 END ATOM
M  V30 BEGIN BOND
M  V30 1 1 1 2
M  V30 2 1 2 3
M  V30 3 1 3 4
M  V30 4 1 4 5
M  V30 5 1 5 6
M  V30 6 2 6 7
M  V30 7 1 7 8
M  V30 8 2 8 9
M  V30 9 1 9 10
M  V30 10 1 10 11
M  V30 11 1 11 12
M  V30 12 1 12 13
M  V30 13 2 13 14
M  V30 14 1 14 15
M  V30 15 1 15 16
M  V30 16 2 16 17
M  V30 17 1 17 18
M  V30 18 2 18 19
M  V30 19 1 19 20
M  V30 20 1 20 21
M  V30 21 2 21 22
M  V30 22 1 22 23
M  V30 23 1 23 24
M  V30 24 1 19 25
M  V30 25 2 25 26
M  V30 26 2 12 27
M  V30 27 1 27 28
M  V30 28 1 5 29
M  V30 29 1 29 30
M  V30 30 1 30 2
M  V30 31 1 28 6
M  V30 32 2 28 10
M  V30 33 1 26 13
M  V30 34 1 26 16
M  V30 35 2 24 20
M  V30 36 1 1 31
M  V30 37 1 1 32
M  V30 38 1 1 33
M  V30 39 1 3 34
M  V30 40 1 3 35
M  V30 41 1 4 36
M  V30 42 1 4 37
M  V30 43 1 7 38
M  V30 44 1 8 39
M  V30 45 1 11 40
M  V30 46 1 15 41
M  V30 47 1 17 42
M  V30 48 1 18 43
M  V30 49 1 21 44
M  V30 50 1 23 45
M  V30 51 1 24 46
M  V30 52 1 27 47
M  V30 53 1 29 48
M  V30 54 1 29 49
M  V30 55 1 30 50
M  V30 56 1 30 51
M  V30 END BOND
M  V30 END CTAB
M  END
>  <Dataset>  (140) 
ChEMBL_Kinases

>  <Ligand_Instance>  (140) 
nan

>  <PDB_ID>  (140) 
nan

>  <Standardized_SMILES>  (140) 
CN1CCN(c2ccnc3[nH]c(-c4n[nH]c5ccc(-c6cn[nH]c6)nc45)cc23)CC1

>  <Name>  (140) 
nan

>  <Pocket>  (140) 
nan

>  <ATP_Site>  (140) 
nan

>  <Peripheral>  (140) 
nan

>  <Num_H_Atoms_ProtBoundConf>  (140) 
nan

>  <Num_Resolved_Atoms>  (140) 
nan

>  <Num_Not_Resolved_Atoms>  (140) 
nan

$$$$
CHEMBL1944823
     RDKit          3D

  0  0  0  0  0  0  0  0  0  0999 V3000
M  V30 BEGIN CTAB
M  V30 COUNTS 42 45 0 0 0
M  V30 BEGIN ATOM
M  V30 1 C 0.927815 -6.266621 0.218375 0
M  V30 2 N 0.406162 -4.922640 0.337946 0
M  V30 3 C 1.163500 -3.752655 0.009845 0
M  V30 4 N 2.327463 -3.901309 -0.538697 0
M  V30 5 C 2.935452 -2.670195 -0.795293 0
M  V30 6 O 4.049082 -2.498434 -1.313553 0
M  V30 7 C 2.001550 -1.654280 -0.334011 0
M  V30 8 C 2.140896 -0.340672 -0.435764 0
M  V30 9 C 3.291115 0.322716 -1.060160 0
M  V30 10 C 2.854739 0.919462 -2.415393 0
M  V30 11 N 1.905183 1.974890 -2.303065 0
M  V30 12 C 0.695197 2.246807 -1.561174 0
M  V30 13 O -0.151747 3.074333 -1.902738 0
M  V30 14 C 0.372424 1.538092 -0.307619 0
M  V30 15 N -0.562381 1.839707 0.591812 0
M  V30 16 C -0.547107 0.958765 1.633710 0
M  V30 17 C -1.440091 1.003986 2.784789 0
M  V30 18 C -1.331168 0.056645 3.779234 0
M  V30 19 C -2.159365 0.068328 4.883299 0
M  V30 20 C -3.132924 1.058143 5.005012 0
M  V30 21 C -3.235056 2.011003 3.994746 0
M  V30 22 C -2.393789 1.994986 2.878259 0
M  V30 23 C 0.458354 0.001201 1.430873 0
M  V30 24 C 1.016136 0.391601 0.202354 0
M  V30 25 N 0.907079 -2.368641 0.160387 0
M  V30 26 H 0.113755 -6.992778 -0.062902 0
M  V30 27 H 1.694772 -6.334841 -0.585534 0
M  V30 28 H 1.327272 -6.588291 1.200050 0
M  V30 29 H -0.580608 -4.750083 0.681449 0
M  V30 30 H 3.727864 1.161043 -0.447500 0
M  V30 31 H 4.092480 -0.364105 -1.339959 0
M  V30 32 H 3.762350 1.245350 -2.952375 0
M  V30 33 H 2.486234 0.030829 -2.990559 0
M  V30 34 H 2.116245 2.812880 -2.930735 0
M  V30 35 H -1.200266 2.651248 0.474959 0
M  V30 36 H -0.585383 -0.735288 3.726594 0
M  V30 37 H -2.076856 -0.684660 5.679213 0
M  V30 38 H -3.809107 1.120518 5.842771 0
M  V30 39 H -3.989236 2.786578 4.078426 0
M  V30 40 H -2.462671 2.726579 2.089731 0
M  V30 41 H 0.761195 -0.818735 2.065598 0
M  V30 42 H -0.011666 -2.144007 0.559312 0
M  V30 END ATOM
M  V30 BEGIN BOND
M  V30 1 1 1 2
M  V30 2 1 2 3
M  V30 3 2 3 4
M  V30 4 1 4 5
M  V30 5 2 5 6
M  V30 6 1 5 7
M  V30 7 2 7 8
M  V30 8 1 8 9
M  V30 9 1 9 10
M  V30 10 1 10 11
M  V30 11 1 11 12
M  V30 12 2 12 13
M  V30 13 1 12 14
M  V30 14 1 14 15
M  V30 15 1 15 16
M  V30 16 1 16 17
M  V30 17 2 17 18
M  V30 18 1 18 19
M  V30 19 2 19 20
M  V30 20 1 20 21
M  V30 21 2 21 22
M  V30 22 2 16 23
M  V30 23 1 23 24
M  V30 24 1 7 25
M  V30 25 1 25 3
M  V30 26 1 24 8
M  V30 27 2 24 14
M  V30 28 1 22 17
M  V30 29 1 1 26
M  V30 30 1 1 27
M  V30 31 1 1 28
M  V30 32 1 2 29
M  V30 33 1 9 30
M  V30 34 1 9 31
M  V30 35 1 10 32
M  V30 36 1 10 33
M  V30 37 1 11 34
M  V30 38 1 15 35
M  V30 39 1 18 36
M  V30 40 1 19 37
M  V30 41 1 20 38
M  V30 42 1 21 39
M  V30 43 1 22 40
M  V30 44 1 23 41
M  V30 45 1 25 42
M  V30 END BOND
M  V30 END CTAB
M  END
>  <Dataset>  (141) 
ChEMBL_Kinases

>  <Ligand_Instance>  (141) 
nan

>  <PDB_ID>  (141) 
nan

>  <Standardized_SMILES>  (141) 
CNC1=NC(=O)/C(=C2\CCNC(=O)c3[nH]c(-c4ccccc4)cc32)N1

>  <Name>  (141) 
nan

>  <Pocket>  (141) 
nan

>  <ATP_Site>  (141) 
nan

>  <Peripheral>  (141) 
nan

>  <Num_H_Atoms_ProtBoundConf>  (141) 
nan

>  <Num_Resolved_Atoms>  (141) 
nan

>  <Num_Not_Resolved_Atoms>  (141) 
nan

$$$$
CHEMBL517744
     RDKit          3D

  0  0  0  0  0  0  0  0  0  0999 V3000
M  V30 BEGIN CTAB
M  V30 COUNTS 55 59 0 0 0
M  V30 BEGIN ATOM
M  V30 1 C 4.935487 -1.107098 2.712582 0
M  V30 2 N 4.144299 -2.220580 2.316623 0
M  V30 3 C 3.469777 -2.925407 3.346684 0
M  V30 4 C 3.517765 -2.148268 1.046959 0
M  V30 5 C 2.430734 -1.130487 0.928135 0
M  V30 6 O 1.390043 -1.368448 1.816165 0
M  V30 7 C 1.952055 -0.986201 -0.513353 0
M  V30 8 N 0.891856 0.033551 -0.482551 0
M  V30 9 C 1.041594 1.375226 -0.620370 0
M  V30 10 C 2.226873 2.049577 -0.814588 0
M  V30 11 C 2.232528 3.421213 -0.938272 0
M  V30 12 C 0.993306 4.063191 -0.855972 0
M  V30 13 O 1.036442 5.445883 -0.984950 0
M  V30 14 C -0.144692 3.325042 -0.661570 0
M  V30 15 C -0.191668 1.982818 -0.535752 0
M  V30 16 C -1.087392 1.003912 -0.346640 0
M  V30 17 C -2.420860 1.045444 -0.201969 0
M  V30 18 C -3.138890 -0.111875 -0.019269 0
M  V30 19 C -2.476149 -1.329438 0.015133 0
M  V30 20 C -3.117030 -2.626284 0.198703 0
M  V30 21 C -3.557982 -3.370201 -0.872630 0
M  V30 22 C -4.174384 -4.600042 -0.870897 0
M  V30 23 C -4.356964 -5.126949 0.413803 0
M  V30 24 C -3.949885 -4.460731 1.564686 0
M  V30 25 C -3.343307 -3.231795 1.415391 0
M  V30 26 Cl -2.820967 -2.369603 2.866023 0
M  V30 27 C -1.102325 -1.374984 -0.133389 0
M  V30 28 C -0.425695 -0.198856 -0.313069 0
M  V30 29 C -4.571746 0.099530 0.121865 0
M  V30 30 O -5.478917 -0.748049 0.297829 0
M  V30 31 N -4.714901 1.524339 0.011856 0
M  V30 32 C -3.424930 2.078775 -0.181286 0
M  V30 33 O -3.372733 3.311607 -0.296332 0
M  V30 34 H 4.285575 -0.215607 2.929882 0
M  V30 35 H 5.422736 -1.344182 3.687366 0
M  V30 36 H 5.733056 -0.839645 2.007547 0
M  V30 37 H 3.861706 -3.974659 3.366769 0
M  V30 38 H 2.370114 -2.920262 3.246875 0
M  V30 39 H 3.712566 -2.512328 4.350146 0
M  V30 40 H 4.239965 -1.962076 0.216514 0
M  V30 41 H 3.036663 -3.141919 0.843712 0
M  V30 42 H 2.872325 -0.131671 1.232735 0
M  V30 43 H 0.803926 -0.592230 1.920044 0
M  V30 44 H 1.560539 -1.947950 -0.882118 0
M  V30 45 H 2.739339 -0.588287 -1.160907 0
M  V30 46 H 3.177730 1.546457 -0.877090 0
M  V30 47 H 3.164258 3.939704 -1.090197 0
M  V30 48 H 0.655224 5.889946 -1.812416 0
M  V30 49 H -1.010027 3.938090 -0.619287 0
M  V30 50 H -3.410378 -2.947716 -1.879728 0
M  V30 51 H -4.480596 -5.096176 -1.773177 0
M  V30 52 H -4.842369 -6.102768 0.473675 0
M  V30 53 H -4.116286 -4.916144 2.529477 0
M  V30 54 H -0.545359 -2.304001 -0.113036 0
M  V30 55 H -5.676971 1.957673 0.080885 0
M  V30 END ATOM
M  V30 BEGIN BOND
M  V30 1 1 1 2
M  V30 2 1 2 3
M  V30 3 1 2 4
M  V30 4 1 4 5
M  V30 5 1 5 6
M  V30 6 1 5 7
M  V30 7 1 7 8
M  V30 8 1 8 9
M  V30 9 2 9 10
M  V30 10 1 10 11
M  V30 11 2 11 12
M  V30 12 1 12 13
M  V30 13 1 12 14
M  V30 14 2 14 15
M  V30 15 1 15 16
M  V30 16 2 16 17
M  V30 17 1 17 18
M  V30 18 2 18 19
M  V30 19 1 19 20
M  V30 20 2 20 21
M  V30 21 1 21 22
M  V30 22 2 22 23
M  V30 23 1 23 24
M  V30 24 2 24 25
M  V30 25 1 25 26
M  V30 26 1 19 27
M  V30 27 2 27 28
M  V30 28 1 18 29
M  V30 29 2 29 30
M  V30 30 1 29 31
M  V30 31 1 31 32
M  V30 32 2 32 33
M  V30 33 1 28 8
M  V30 34 1 15 9
M  V30 35 1 28 16
M  V30 36 1 32 17
M  V30 37 1 25 20
M  V30 38 1 1 34
M  V30 39 1 1 35
M  V30 40 1 1 36
M  V30 41 1 3 37
M  V30 42 1 3 38
M  V30 43 1 3 39
M  V30 44 1 4 40
M  V30 45 1 4 41
M  V30 46 1 5 42
M  V30 47 1 6 43
M  V30 48 1 7 44
M  V30 49 1 7 45
M  V30 50 1 10 46
M  V30 51 1 11 47
M  V30 52 1 13 48
M  V30 53 1 14 49
M  V30 54 1 21 50
M  V30 55 1 22 51
M  V30 56 1 23 52
M  V30 57 1 24 53
M  V30 58 1 27 54
M  V30 59 1 31 55
M  V30 END BOND
M  V30 END CTAB
M  END
>  <Dataset>  (142) 
ChEMBL_Kinases

>  <Ligand_Instance>  (142) 
nan

>  <PDB_ID>  (142) 
nan

>  <Standardized_SMILES>  (142) 
CN(C)CC(O)Cn1c2ccc(O)cc2c2c3c(c(-c4ccccc4Cl)cc21)C(=O)NC3=O

>  <Name>  (142) 
nan

>  <Pocket>  (142) 
nan

>  <ATP_Site>  (142) 
nan

>  <Peripheral>  (142) 
nan

>  <Num_H_Atoms_ProtBoundConf>  (142) 
nan

>  <Num_Resolved_Atoms>  (142) 
nan

>  <Num_Not_Resolved_Atoms>  (142) 
nan

$$$$
CHEMBL517171
     RDKit          3D

  0  0  0  0  0  0  0  0  0  0999 V3000
M  V30 BEGIN CTAB
M  V30 COUNTS 71 75 0 0 0
M  V30 BEGIN ATOM
M  V30 1 C 3.520469 -6.759100 2.848294 0
M  V30 2 C 2.385260 -6.569726 1.840113 0
M  V30 3 C 1.622006 -5.339996 2.280198 0
M  V30 4 N 0.510435 -5.005401 1.444134 0
M  V30 5 C 0.849176 -4.548427 0.124524 0
M  V30 6 C 0.246809 -3.208213 -0.209567 0
M  V30 7 C 0.439060 -2.187425 0.888336 0
M  V30 8 O 1.747841 -1.731904 0.985712 0
M  V30 9 C 2.226580 -0.457986 0.787928 0
M  V30 10 C 1.552111 0.681080 0.451821 0
M  V30 11 C 2.106563 1.910952 0.273364 0
M  V30 12 N 1.410132 3.092845 -0.079673 0
M  V30 13 C 0.016517 3.245479 -0.293496 0
M  V30 14 N -0.919416 2.297248 -0.181963 0
M  V30 15 C -2.227234 2.449892 -0.386424 0
M  V30 16 N -3.175801 1.404255 -0.248793 0
M  V30 17 C -3.592552 0.498136 -1.258804 0
M  V30 18 C -3.022581 0.634928 -2.505184 0
M  V30 19 C -3.476686 -0.284159 -3.443159 0
M  V30 20 C -4.416838 -1.260192 -3.175970 0
M  V30 21 C -4.957845 -1.354034 -1.906789 0
M  V30 22 F -5.878979 -2.307283 -1.636667 0
M  V30 23 C -4.529237 -0.458872 -0.955074 0
M  V30 24 C -5.118813 -0.591189 0.349720 0
M  V30 25 N -6.087617 -1.563374 0.707499 0
M  V30 26 O -5.012482 -0.003061 1.448609 0
M  V30 27 C -2.659354 3.706677 -0.748457 0
M  V30 28 C -3.879295 4.270057 -1.042305 0
M  V30 29 C -3.669909 5.598596 -1.339676 0
M  V30 30 N -2.356368 5.882895 -1.240907 0
M  V30 31 C -1.744973 4.728357 -0.880998 0
M  V30 32 N -0.463463 4.446588 -0.648000 0
M  V30 33 C 3.490386 1.955639 0.463010 0
M  V30 34 O 4.162957 3.152042 0.308474 0
M  V30 35 C 5.560586 3.274843 0.484768 0
M  V30 36 C 4.229862 0.847727 0.801963 0
M  V30 37 C 3.606425 -0.371149 0.968198 0
M  V30 38 Cl 4.640366 -1.734781 1.403109 0
M  V30 39 C -0.055024 -2.736012 2.186929 0
M  V30 40 C -0.474275 -4.183526 2.098389 0
M  V30 41 H 4.379906 -6.111924 2.510698 0
M  V30 42 H 3.817600 -7.822646 2.943486 0
M  V30 43 H 3.183828 -6.328780 3.814369 0
M  V30 44 H 2.858218 -6.440495 0.846729 0
M  V30 45 H 1.762308 -7.486700 1.893931 0
M  V30 46 H 1.205408 -5.568774 3.289778 0
M  V30 47 H 2.386165 -4.517809 2.331853 0
M  V30 48 H 0.519632 -5.322645 -0.594629 0
M  V30 49 H 1.954514 -4.495340 0.054763 0
M  V30 50 H -0.843912 -3.366437 -0.328729 0
M  V30 51 H 0.641707 -2.852201 -1.168245 0
M  V30 52 H -0.217428 -1.323508 0.609716 0
M  V30 53 H 0.509106 0.541821 0.330600 0
M  V30 54 H 1.996668 3.951352 -0.195205 0
M  V30 55 H -3.411597 1.542067 0.737761 0
M  V30 56 H -2.294448 1.377179 -2.750162 0
M  V30 57 H -3.087688 -0.266769 -4.474463 0
M  V30 58 H -4.725304 -1.943197 -3.956653 0
M  V30 59 H -7.118470 -1.428365 0.893437 0
M  V30 60 H -6.064860 -2.590264 0.874939 0
M  V30 61 H -4.789428 3.662246 -1.010015 0
M  V30 62 H -4.534453 6.198960 -1.597010 0
M  V30 63 H -1.963055 6.834685 -1.422945 0
M  V30 64 H 6.034946 2.679234 -0.345492 0
M  V30 65 H 5.858270 4.328363 0.408027 0
M  V30 66 H 5.913392 2.835794 1.429458 0
M  V30 67 H 5.297022 0.941035 0.936242 0
M  V30 68 H -0.915523 -2.170909 2.535053 0
M  V30 69 H 0.742828 -2.587786 2.952350 0
M  V30 70 H -0.591229 -4.553633 3.137739 0
M  V30 71 H -1.471645 -4.266411 1.619035 0
M  V30 END ATOM
M  V30 BEGIN BOND
M  V30 1 1 1 2
M  V30 2 1 2 3
M  V30 3 1 3 4
M  V30 4 1 4 5
M  V30 5 1 5 6
M  V30 6 1 6 7
M  V30 7 1 7 8
M  V30 8 1 8 9
M  V30 9 2 9 10
M  V30 10 1 10 11
M  V30 11 1 11 12
M  V30 12 1 12 13
M  V30 13 2 13 14
M  V30 14 1 14 15
M  V30 15 1 15 16
M  V30 16 1 16 17
M  V30 17 2 17 18
M  V30 18 1 18 19
M  V30 19 2 19 20
M  V30 20 1 20 21
M  V30 21 1 21 22
M  V30 22 2 21 23
M  V30 23 1 23 24
M  V30 24 1 24 25
M  V30 25 2 24 26
M  V30 26 2 15 27
M  V30 27 1 27 28
M  V30 28 2 28 29
M  V30 29 1 29 30
M  V30 30 1 30 31
M  V30 31 2 31 32
M  V30 32 2 11 33
M  V30 33 1 33 34
M  V30 34 1 34 35
M  V30 35 1 33 36
M  V30 36 2 36 37
M  V30 37 1 37 38
M  V30 38 1 7 39
M  V30 39 1 39 40
M  V30 40 1 40 4
M  V30 41 1 37 9
M  V30 42 1 32 13
M  V30 43 1 23 17
M  V30 44 1 31 27
M  V30 45 1 1 41
M  V30 46 1 1 42
M  V30 47 1 1 43
M  V30 48 1 2 44
M  V30 49 1 2 45
M  V30 50 1 3 46
M  V30 51 1 3 47
M  V30 52 1 5 48
M  V30 53 1 5 49
M  V30 54 1 6 50
M  V30 55 1 6 51
M  V30 56 1 7 52
M  V30 57 1 10 53
M  V30 58 1 12 54
M  V30 59 1 16 55
M  V30 60 1 18 56
M  V30 61 1 19 57
M  V30 62 1 20 58
M  V30 63 1 25 59
M  V30 64 1 25 60
M  V30 65 1 28 61
M  V30 66 1 29 62
M  V30 67 1 30 63
M  V30 68 1 35 64
M  V30 69 1 35 65
M  V30 70 1 35 66
M  V30 71 1 36 67
M  V30 72 1 39 68
M  V30 73 1 39 69
M  V30 74 1 40 70
M  V30 75 1 40 71
M  V30 END BOND
M  V30 END CTAB
M  END
>  <Dataset>  (143) 
ChEMBL_Kinases

>  <Ligand_Instance>  (143) 
nan

>  <PDB_ID>  (143) 
nan

>  <Standardized_SMILES>  (143) 
CCCN1CCC(Oc2cc(Nc3nc(Nc4cccc(F)c4C(N)=O)c4cc[nH]c4n3)c(OC)cc2Cl)CC1

>  <Name>  (143) 
GSK-1713088A

>  <Pocket>  (143) 
nan

>  <ATP_Site>  (143) 
nan

>  <Peripheral>  (143) 
nan

>  <Num_H_Atoms_ProtBoundConf>  (143) 
nan

>  <Num_Resolved_Atoms>  (143) 
nan

>  <Num_Not_Resolved_Atoms>  (143) 
nan

$$$$
CHEMBL1928697
     RDKit          3D

  0  0  0  0  0  0  0  0  0  0999 V3000
M  V30 BEGIN CTAB
M  V30 COUNTS 47 50 0 0 0
M  V30 BEGIN ATOM
M  V30 1 N 0.685500 -3.989153 5.845785 0
M  V30 2 C 1.084826 -3.470130 4.877099 0
M  V30 3 C 1.572369 -2.806379 3.690534 0
M  V30 4 N 2.782885 -3.298954 3.287664 0
M  V30 5 C 3.358909 -2.756839 2.185518 0
M  V30 6 C 2.743426 -1.742913 1.495983 0
M  V30 7 N 3.290723 -1.098347 0.332239 0
M  V30 8 C 2.618504 0.031195 -0.255700 0
M  V30 9 C 1.870659 0.233544 -1.390849 0
M  V30 10 C 1.372996 1.486486 -1.603767 0
M  V30 11 C 0.631237 1.627867 -2.764810 0
M  V30 12 C 0.125918 2.912425 -2.976374 0
M  V30 13 C 0.337500 3.970086 -2.112837 0
M  V30 14 C 1.083283 3.773086 -0.972749 0
M  V30 15 C 1.590469 2.530430 -0.736398 0
M  V30 16 C 2.345576 2.300397 0.397698 0
M  V30 17 N 2.838436 1.055019 0.605854 0
M  V30 18 N 1.564837 -1.332096 1.966632 0
M  V30 19 C 0.909955 -1.782592 3.024115 0
M  V30 20 O -0.242200 -1.501770 3.628054 0
M  V30 21 C -1.295413 -0.657967 3.454905 0
M  V30 22 C -2.155140 -0.828840 2.250953 0
M  V30 23 C -1.537157 -0.706440 0.911520 0
M  V30 24 C -1.297454 -2.023077 0.218247 0
M  V30 25 N -2.524999 -2.771376 0.004071 0
M  V30 26 C -3.540157 -2.273763 0.889348 0
M  V30 27 C -2.917516 -2.158073 2.284153 0
M  V30 28 H 4.311644 -3.048654 1.753297 0
M  V30 29 H 4.172713 -1.485317 -0.057679 0
M  V30 30 H 1.794673 -0.673618 -1.955795 0
M  V30 31 H 0.464425 0.799654 -3.442473 0
M  V30 32 H -0.468353 3.107466 -3.869989 0
M  V30 33 H -0.063267 4.956098 -2.300725 0
M  V30 34 H 1.264769 4.576827 -0.282898 0
M  V30 35 H 2.499825 3.155922 1.066833 0
M  V30 36 H -1.997228 -0.673463 4.354545 0
M  V30 37 H -0.913886 0.425728 3.512885 0
M  V30 38 H -3.003152 -0.062223 2.366810 0
M  V30 39 H -0.587304 -0.147132 0.925886 0
M  V30 40 H -2.192368 -0.066023 0.216906 0
M  V30 41 H -0.570413 -2.620539 0.792252 0
M  V30 42 H -0.802421 -1.785002 -0.762605 0
M  V30 43 H -2.330025 -3.772344 0.313337 0
M  V30 44 H -4.427290 -2.920258 0.916834 0
M  V30 45 H -3.880074 -1.276047 0.558114 0
M  V30 46 H -3.742707 -2.150288 3.014570 0
M  V30 47 H -2.237446 -3.006884 2.464603 0
M  V30 END ATOM
M  V30 BEGIN BOND
M  V30 1 3 1 2
M  V30 2 1 2 3
M  V30 3 2 3 4
M  V30 4 1 4 5
M  V30 5 2 5 6
M  V30 6 1 6 7
M  V30 7 1 7 8
M  V30 8 2 8 9
M  V30 9 1 9 10
M  V30 10 2 10 11
M  V30 11 1 11 12
M  V30 12 2 12 13
M  V30 13 1 13 14
M  V30 14 2 14 15
M  V30 15 1 15 16
M  V30 16 2 16 17
M  V30 17 1 6 18
M  V30 18 2 18 19
M  V30 19 1 19 20
M  V30 20 1 20 21
M  V30 21 1 21 22
M  V30 22 1 22 23
M  V30 23 1 23 24
M  V30 24 1 24 25
M  V30 25 1 25 26
M  V30 26 1 26 27
M  V30 27 1 19 3
M  V30 28 1 27 22
M  V30 29 1 17 8
M  V30 30 1 15 10
M  V30 31 1 5 28
M  V30 32 1 7 29
M  V30 33 1 9 30
M  V30 34 1 11 31
M  V30 35 1 12 32
M  V30 36 1 13 33
M  V30 37 1 14 34
M  V30 38 1 16 35
M  V30 39 1 21 36
M  V30 40 1 21 37
M  V30 41 1 22 38
M  V30 42 1 23 39
M  V30 43 1 23 40
M  V30 44 1 24 41
M  V30 45 1 24 42
M  V30 46 1 25 43
M  V30 47 1 26 44
M  V30 48 1 26 45
M  V30 49 1 27 46
M  V30 50 1 27 47
M  V30 END BOND
M  V30 END CTAB
M  END
>  <Dataset>  (144) 
ChEMBL_Kinases

>  <Ligand_Instance>  (144) 
nan

>  <PDB_ID>  (144) 
nan

>  <Standardized_SMILES>  (144) 
N#Cc1ncc(Nc2cc3ccccc3cn2)nc1OCC1CCNCC1

>  <Name>  (144) 
nan

>  <Pocket>  (144) 
nan

>  <ATP_Site>  (144) 
nan

>  <Peripheral>  (144) 
nan

>  <Num_H_Atoms_ProtBoundConf>  (144) 
nan

>  <Num_Resolved_Atoms>  (144) 
nan

>  <Num_Not_Resolved_Atoms>  (144) 
nan

$$$$
CHEMBL133548
     RDKit          3D

  0  0  0  0  0  0  0  0  0  0999 V3000
M  V30 BEGIN CTAB
M  V30 COUNTS 55 58 0 0 0
M  V30 BEGIN ATOM
M  V30 1 C 7.389012 -1.006582 2.744143 0
M  V30 2 S 6.944315 -0.931860 1.020060 0
M  V30 3 O 8.179721 -0.729725 0.214908 0
M  V30 4 O 6.308057 -2.247430 0.662343 0
M  V30 5 C 5.767540 0.330098 0.742187 0
M  V30 6 C 4.425441 0.026281 0.831820 0
M  V30 7 C 3.532753 1.051112 0.605269 0
M  V30 8 C 3.844471 2.354657 0.296860 0
M  V30 9 N 2.911000 3.395702 0.067146 0
M  V30 10 C 1.496760 3.353231 0.098673 0
M  V30 11 N 0.793506 4.460306 -0.151489 0
M  V30 12 C -0.540639 4.523663 -0.146079 0
M  V30 13 C -1.252884 3.382466 0.133700 0
M  V30 14 C -0.576648 2.216975 0.398041 0
M  V30 15 C -1.307191 0.997068 0.696874 0
M  V30 16 C -0.697018 -0.206273 0.971538 0
M  V30 17 C -1.344756 -1.391082 1.260846 0
M  V30 18 C -2.725502 -1.380918 1.279320 0
M  V30 19 S -3.575400 -2.868864 1.643204 0
M  V30 20 O -2.666159 -3.724124 2.489286 0
M  V30 21 O -4.811872 -2.620095 2.449888 0
M  V30 22 N -3.862476 -3.702391 0.190112 0
M  V30 23 C -4.677428 -3.015657 -0.759806 0
M  V30 24 C -6.092230 -3.550571 -0.802775 0
M  V30 25 N -6.083044 -4.924932 -1.264671 0
M  V30 26 C -4.920169 -5.647580 -0.862580 0
M  V30 27 C -4.234273 -5.064301 0.346656 0
M  V30 28 C -3.405865 -0.209713 1.013288 0
M  V30 29 C -2.679565 0.931485 0.733092 0
M  V30 30 N 0.744343 2.275678 0.364080 0
M  V30 31 C 5.197436 2.598953 0.220959 0
M  V30 32 C 6.140157 1.621202 0.435845 0
M  V30 33 H 7.748222 -0.019506 3.082135 0
M  V30 34 H 8.187526 -1.750357 2.848369 0
M  V30 35 H 6.543686 -1.376417 3.367550 0
M  V30 36 H 4.106357 -0.974602 1.069738 0
M  V30 37 H 2.497235 0.765287 0.686403 0
M  V30 38 H 3.342997 4.341619 -0.161114 0
M  V30 39 H -0.981853 5.498234 -0.368990 0
M  V30 40 H -2.321906 3.493854 0.123718 0
M  V30 41 H 0.380177 -0.286119 0.974141 0
M  V30 42 H -0.816341 -2.307530 1.469059 0
M  V30 43 H -4.252987 -3.236002 -1.781077 0
M  V30 44 H -4.695895 -1.927670 -0.647954 0
M  V30 45 H -6.630648 -2.948232 -1.569252 0
M  V30 46 H -6.646240 -3.403975 0.143136 0
M  V30 47 H -6.250013 -4.956866 -2.299141 0
M  V30 48 H -5.075151 -6.729724 -0.734315 0
M  V30 49 H -4.171885 -5.552333 -1.697080 0
M  V30 50 H -4.904361 -5.235382 1.219229 0
M  V30 51 H -3.320260 -5.662449 0.540436 0
M  V30 52 H -4.485721 -0.228960 1.034131 0
M  V30 53 H -3.296742 1.794440 0.538885 0
M  V30 54 H 5.571527 3.599811 -0.017693 0
M  V30 55 H 7.195964 1.865164 0.364197 0
M  V30 END ATOM
M  V30 BEGIN BOND
M  V30 1 1 1 2
M  V30 2 2 2 3
M  V30 3 2 2 4
M  V30 4 1 2 5
M  V30 5 2 5 6
M  V30 6 1 6 7
M  V30 7 2 7 8
M  V30 8 1 8 9
M  V30 9 1 9 10
M  V30 10 2 10 11
M  V30 11 1 11 12
M  V30 12 2 12 13
M  V30 13 1 13 14
M  V30 14 1 14 15
M  V30 15 2 15 16
M  V30 16 1 16 17
M  V30 17 2 17 18
M  V30 18 1 18 19
M  V30 19 2 19 20
M  V30 20 2 19 21
M  V30 21 1 19 22
M  V30 22 1 22 23
M  V30 23 1 23 24
M  V30 24 1 24 25
M  V30 25 1 25 26
M  V30 26 1 26 27
M  V30 27 1 18 28
M  V30 28 2 28 29
M  V30 29 2 14 30
M  V30 30 1 8 31
M  V30 31 2 31 32
M  V30 32 1 32 5
M  V30 33 1 30 10
M  V30 34 1 29 15
M  V30 35 1 27 22
M  V30 36 1 1 33
M  V30 37 1 1 34
M  V30 38 1 1 35
M  V30 39 1 6 36
M  V30 40 1 7 37
M  V30 41 1 9 38
M  V30 42 1 12 39
M  V30 43 1 13 40
M  V30 44 1 16 41
M  V30 45 1 17 42
M  V30 46 1 23 43
M  V30 47 1 23 44
M  V30 48 1 24 45
M  V30 49 1 24 46
M  V30 50 1 25 47
M  V30 51 1 26 48
M  V30 52 1 26 49
M  V30 53 1 27 50
M  V30 54 1 27 51
M  V30 55 1 28 52
M  V30 56 1 29 53
M  V30 57 1 31 54
M  V30 58 1 32 55
M  V30 END BOND
M  V30 END CTAB
M  END
>  <Dataset>  (145) 
ChEMBL_Kinases

>  <Ligand_Instance>  (145) 
nan

>  <PDB_ID>  (145) 
nan

>  <Standardized_SMILES>  (145) 
CS(=O)(=O)c1ccc(Nc2nccc(-c3ccc(S(=O)(=O)N4CCNCC4)cc3)n2)cc1

>  <Name>  (145) 
nan

>  <Pocket>  (145) 
nan

>  <ATP_Site>  (145) 
nan

>  <Peripheral>  (145) 
nan

>  <Num_H_Atoms_ProtBoundConf>  (145) 
nan

>  <Num_Resolved_Atoms>  (145) 
nan

>  <Num_Not_Resolved_Atoms>  (145) 
nan

$$$$
CHEMBL516244
     RDKit          3D

  0  0  0  0  0  0  0  0  0  0999 V3000
M  V30 BEGIN CTAB
M  V30 COUNTS 59 64 0 0 0
M  V30 BEGIN ATOM
M  V30 1 C 6.129290 -2.059606 4.197209 0
M  V30 2 O 5.290374 -1.008610 3.761216 0
M  V30 3 C 5.404941 0.308372 4.120955 0
M  V30 4 C 6.372846 0.828574 4.980144 0
M  V30 5 C 6.456484 2.153466 5.317432 0
M  V30 6 C 5.532843 3.046336 4.783042 0
M  V30 7 C 4.550566 2.567484 3.921171 0
M  V30 8 C 4.494197 1.220358 3.600495 0
M  V30 9 C 3.462741 0.745497 2.701288 0
M  V30 10 C 3.643526 -0.128798 1.649774 0
M  V30 11 C 2.565521 -0.495952 0.872891 0
M  V30 12 C 1.281595 -0.045874 1.068213 0
M  V30 13 C 0.102272 -0.296857 0.408586 0
M  V30 14 C -0.199895 -1.133921 -0.736089 0
M  V30 15 N -1.472250 -1.211575 -1.203064 0
M  V30 16 C -1.570298 -2.025727 -2.259279 0
M  V30 17 C -2.640174 -2.408529 -3.053020 0
M  V30 18 N -3.937304 -1.892652 -2.777230 0
M  V30 19 C -4.301868 -0.492933 -2.782098 0
M  V30 20 C -5.418366 -0.187860 -1.817618 0
M  V30 21 N -5.432015 -1.074628 -0.682112 0
M  V30 22 C -6.367797 -0.701672 0.326763 0
M  V30 23 C -5.397920 -2.464304 -0.980359 0
M  V30 24 C -5.108919 -2.667528 -2.446856 0
M  V30 25 C -2.406344 -3.295638 -4.105427 0
M  V30 26 C -1.113000 -3.764737 -4.322599 0
M  V30 27 C -0.051122 -3.379578 -3.528229 0
M  V30 28 C -0.311951 -2.507501 -2.502655 0
M  V30 29 N 0.451434 -1.934454 -1.557887 0
M  V30 30 N -0.777097 0.461631 1.110910 0
M  V30 31 N -0.186300 1.105425 2.095575 0
M  V30 32 C 1.129168 0.826453 2.125548 0
M  V30 33 C 2.183082 1.218703 2.927078 0
M  V30 34 H 6.570433 -1.828308 5.180289 0
M  V30 35 H 5.554380 -3.027253 4.277135 0
M  V30 36 H 6.939739 -2.223167 3.435747 0
M  V30 37 H 7.092511 0.131014 5.396078 0
M  V30 38 H 7.254874 2.448458 5.998610 0
M  V30 39 H 5.618424 4.096636 5.065316 0
M  V30 40 H 3.830199 3.281050 3.507872 0
M  V30 41 H 4.654136 -0.472703 1.509099 0
M  V30 42 H 2.782041 -1.177294 0.075273 0
M  V30 43 H -4.541841 -0.159368 -3.814554 0
M  V30 44 H -3.415312 0.090092 -2.459749 0
M  V30 45 H -6.376434 -0.316079 -2.361203 0
M  V30 46 H -5.396711 0.855606 -1.444628 0
M  V30 47 H -7.412988 -0.966412 0.090297 0
M  V30 48 H -6.296812 0.387377 0.503790 0
M  V30 49 H -6.027906 -1.202102 1.280747 0
M  V30 50 H -6.406982 -2.877414 -0.764396 0
M  V30 51 H -4.643717 -2.983348 -0.362325 0
M  V30 52 H -5.997344 -2.368776 -3.055230 0
M  V30 53 H -4.927115 -3.740864 -2.666868 0
M  V30 54 H -3.247013 -3.602160 -4.736294 0
M  V30 55 H -0.941846 -4.458288 -5.148696 0
M  V30 56 H 0.960590 -3.723927 -3.669729 0
M  V30 57 H 1.456672 -2.120201 -1.500912 0
M  V30 58 H -0.714025 1.734553 2.736800 0
M  V30 59 H 1.942656 1.904578 3.723314 0
M  V30 END ATOM
M  V30 BEGIN BOND
M  V30 1 1 1 2
M  V30 2 1 2 3
M  V30 3 2 3 4
M  V30 4 1 4 5
M  V30 5 2 5 6
M  V30 6 1 6 7
M  V30 7 2 7 8
M  V30 8 1 8 9
M  V30 9 2 9 10
M  V30 10 1 10 11
M  V30 11 2 11 12
M  V30 12 1 12 13
M  V30 13 1 13 14
M  V30 14 2 14 15
M  V30 15 1 15 16
M  V30 16 2 16 17
M  V30 17 1 17 18
M  V30 18 1 18 19
M  V30 19 1 19 20
M  V30 20 1 20 21
M  V30 21 1 21 22
M  V30 22 1 21 23
M  V30 23 1 23 24
M  V30 24 1 17 25
M  V30 25 2 25 26
M  V30 26 1 26 27
M  V30 27 2 27 28
M  V30 28 1 28 29
M  V30 29 2 13 30
M  V30 30 1 30 31
M  V30 31 1 31 32
M  V30 32 2 32 33
M  V30 33 1 8 3
M  V30 34 1 33 9
M  V30 35 1 32 12
M  V30 36 1 29 14
M  V30 37 1 28 16
M  V30 38 1 24 18
M  V30 39 1 1 34
M  V30 40 1 1 35
M  V30 41 1 1 36
M  V30 42 1 4 37
M  V30 43 1 5 38
M  V30 44 1 6 39
M  V30 45 1 7 40
M  V30 46 1 10 41
M  V30 47 1 11 42
M  V30 48 1 19 43
M  V30 49 1 19 44
M  V30 50 1 20 45
M  V30 51 1 20 46
M  V30 52 1 22 47
M  V30 53 1 22 48
M  V30 54 1 22 49
M  V30 55 1 23 50
M  V30 56 1 23 51
M  V30 57 1 24 52
M  V30 58 1 24 53
M  V30 59 1 25 54
M  V30 60 1 26 55
M  V30 61 1 27 56
M  V30 62 1 29 57
M  V30 63 1 31 58
M  V30 64 1 33 59
M  V30 END BOND
M  V30 END CTAB
M  END
>  <Dataset>  (146) 
ChEMBL_Kinases

>  <Ligand_Instance>  (146) 
nan

>  <PDB_ID>  (146) 
nan

>  <Standardized_SMILES>  (146) 
COc1ccccc1-c1ccc2c(-c3nc4c(N5CCN(C)CC5)cccc4[nH]3)n[nH]c2c1

>  <Name>  (146) 
nan

>  <Pocket>  (146) 
nan

>  <ATP_Site>  (146) 
nan

>  <Peripheral>  (146) 
nan

>  <Num_H_Atoms_ProtBoundConf>  (146) 
nan

>  <Num_Resolved_Atoms>  (146) 
nan

>  <Num_Not_Resolved_Atoms>  (146) 
nan

$$$$
CHEMBL515414
     RDKit          3D

  0  0  0  0  0  0  0  0  0  0999 V3000
M  V30 BEGIN CTAB
M  V30 COUNTS 44 46 0 0 0
M  V30 BEGIN ATOM
M  V30 1 C 0.327611 -6.170773 2.056735 0
M  V30 2 C 0.293337 -4.724726 1.634303 0
M  V30 3 C -0.146745 -4.351719 0.360256 0
M  V30 4 C -0.199304 -3.053637 -0.092545 0
M  V30 5 C 0.224422 -2.116546 0.821656 0
M  V30 6 C 0.176220 -0.713435 0.394351 0
M  V30 7 C 1.033158 0.164806 -0.289559 0
M  V30 8 C 2.280914 -0.446346 -0.694418 0
M  V30 9 O 2.551763 -1.616119 -0.428487 0
M  V30 10 C 3.388261 0.205942 -1.456215 0
M  V30 11 F 4.086932 0.992822 -0.588195 0
M  V30 12 N 0.372603 1.312799 -0.331046 0
M  V30 13 C 0.893449 2.499089 -0.916130 0
M  V30 14 C 1.649722 3.366900 0.067926 0
M  V30 15 C 0.817230 3.849289 1.214602 0
M  V30 16 O 1.599253 4.660051 2.057700 0
M  V30 17 C -0.830312 1.258947 0.259205 0
M  V30 18 N -1.778198 2.190860 0.425672 0
M  V30 19 C -2.921613 1.909934 1.066254 0
M  V30 20 N -3.111840 0.666960 1.546916 0
M  V30 21 C -2.173120 -0.273355 1.386215 0
M  V30 22 N -2.414822 -1.564565 1.911519 0
M  V30 23 C -0.987078 -0.019454 0.733846 0
M  V30 24 C 0.675429 -2.365471 2.097279 0
M  V30 25 C 0.694019 -3.707658 2.470696 0
M  V30 26 H -0.727552 -6.449490 2.311655 0
M  V30 27 H 0.623747 -6.757082 1.191199 0
M  V30 28 H 0.945263 -6.305075 2.943059 0
M  V30 29 H -0.466477 -5.150956 -0.296164 0
M  V30 30 H -0.538560 -2.820219 -1.073079 0
M  V30 31 H 3.067267 0.777058 -2.333680 0
M  V30 32 H 4.122203 -0.600609 -1.816744 0
M  V30 33 H 1.537142 2.317446 -1.781104 0
M  V30 34 H 0.047924 3.146390 -1.282571 0
M  V30 35 H 1.995160 4.279108 -0.494280 0
M  V30 36 H 2.555710 2.879366 0.459512 0
M  V30 37 H 0.482681 2.976327 1.828474 0
M  V30 38 H -0.077544 4.420267 0.920513 0
M  V30 39 H 2.048327 4.038689 2.695191 0
M  V30 40 H -3.622023 2.728846 1.144662 0
M  V30 41 H -2.731115 -1.981648 2.828498 0
M  V30 42 H -2.403164 -2.570951 1.685393 0
M  V30 43 H 1.003341 -1.572123 2.773956 0
M  V30 44 H 1.034264 -3.980762 3.464562 0
M  V30 END ATOM
M  V30 BEGIN BOND
M  V30 1 1 1 2
M  V30 2 2 2 3
M  V30 3 1 3 4
M  V30 4 2 4 5
M  V30 5 1 5 6
M  V30 6 2 6 7
M  V30 7 1 7 8
M  V30 8 2 8 9
M  V30 9 1 8 10
M  V30 10 1 10 11
M  V30 11 1 7 12
M  V30 12 1 12 13
M  V30 13 1 13 14
M  V30 14 1 14 15
M  V30 15 1 15 16
M  V30 16 1 12 17
M  V30 17 2 17 18
M  V30 18 1 18 19
M  V30 19 2 19 20
M  V30 20 1 20 21
M  V30 21 1 21 22
M  V30 22 2 21 23
M  V30 23 1 5 24
M  V30 24 2 24 25
M  V30 25 1 25 2
M  V30 26 1 23 6
M  V30 27 1 23 17
M  V30 28 1 1 26
M  V30 29 1 1 27
M  V30 30 1 1 28
M  V30 31 1 3 29
M  V30 32 1 4 30
M  V30 33 1 10 31
M  V30 34 1 10 32
M  V30 35 1 13 33
M  V30 36 1 13 34
M  V30 37 1 14 35
M  V30 38 1 14 36
M  V30 39 1 15 37
M  V30 40 1 15 38
M  V30 41 1 16 39
M  V30 42 1 19 40
M  V30 43 1 22 41
M  V30 44 1 22 42
M  V30 45 1 24 43
M  V30 46 1 25 44
M  V30 END BOND
M  V30 END CTAB
M  END
>  <Dataset>  (147) 
ChEMBL_Kinases

>  <Ligand_Instance>  (147) 
nan

>  <PDB_ID>  (147) 
nan

>  <Standardized_SMILES>  (147) 
Cc1ccc(-c2c(C(=O)CF)n(CCCO)c3ncnc(N)c23)cc1

>  <Name>  (147) 
nan

>  <Pocket>  (147) 
nan

>  <ATP_Site>  (147) 
nan

>  <Peripheral>  (147) 
nan

>  <Num_H_Atoms_ProtBoundConf>  (147) 
nan

>  <Num_Resolved_Atoms>  (147) 
nan

>  <Num_Not_Resolved_Atoms>  (147) 
nan

$$$$
CHEMBL194357
     RDKit          3D

  0  0  0  0  0  0  0  0  0  0999 V3000
M  V30 BEGIN CTAB
M  V30 COUNTS 66 66 0 0 0
M  V30 BEGIN ATOM
M  V30 1 C 2.084938 -2.659750 5.641002 0
M  V30 2 C 1.653690 -3.735619 4.721419 0
M  V30 3 C 1.249106 -4.934948 5.589248 0
M  V30 4 C 0.630184 -3.458547 3.678670 0
M  V30 5 C 0.971793 -2.484487 2.646144 0
M  V30 6 C 1.308788 -1.096238 3.211754 0
M  V30 7 C 1.585676 -0.249534 1.984939 0
M  V30 8 C 1.019299 0.888095 1.575874 0
M  V30 9 C 1.172320 1.801966 0.442532 0
M  V30 10 C -0.167239 2.427468 0.250908 0
M  V30 11 C -0.053432 3.894048 -0.086645 0
M  V30 12 O -1.322020 4.435207 -0.123998 0
M  V30 13 C -1.051580 1.749289 -0.750784 0
M  V30 14 O -0.575457 1.797269 -2.057629 0
M  V30 15 C -1.522749 1.123722 -2.822876 0
M  V30 16 C -1.196869 1.060926 -4.269731 0
M  V30 17 C -1.066550 2.397521 -4.930389 0
M  V30 18 C -2.381565 0.363543 -4.952475 0
M  V30 19 C 0.001768 0.199585 -4.579492 0
M  V30 20 O -0.791690 2.285928 1.511244 0
M  V30 21 C -0.036920 1.494480 2.374067 0
M  V30 22 O -0.238977 1.336005 3.627425 0
M  V30 23 C 0.000399 -2.215002 1.563320 0
M  V30 24 C -0.485376 -3.249613 0.651127 0
M  V30 25 C -1.235996 -4.342395 1.316001 0
M  V30 26 C -1.502287 -2.544276 -0.276522 0
M  V30 27 H 2.131751 -3.053861 6.732667 0
M  V30 28 H 3.134348 -2.302888 5.516670 0
M  V30 29 H 1.345223 -1.865803 5.715021 0
M  V30 30 H 2.614709 -4.119964 4.226696 0
M  V30 31 H 1.399070 -5.892615 5.051747 0
M  V30 32 H 1.960318 -4.940959 6.442271 0
M  V30 33 H 0.234756 -4.796777 6.001645 0
M  V30 34 H -0.299646 -3.125742 4.242096 0
M  V30 35 H 0.328208 -4.465405 3.270854 0
M  V30 36 H 1.957693 -2.797609 2.158862 0
M  V30 37 H 2.276298 -1.174489 3.765056 0
M  V30 38 H 0.444766 -0.811443 3.773288 0
M  V30 39 H 2.370077 -0.610596 1.316512 0
M  V30 40 H 1.920029 2.619497 0.649670 0
M  V30 41 H 1.504744 1.318364 -0.487706 0
M  V30 42 H 0.505928 3.953126 -1.035759 0
M  V30 43 H 0.530787 4.381693 0.719320 0
M  V30 44 H -1.314394 5.180638 -0.782086 0
M  V30 45 H -1.331508 0.722213 -0.452692 0
M  V30 46 H -2.007780 2.329251 -0.756968 0
M  V30 47 H -2.525591 1.513810 -2.651118 0
M  V30 48 H -1.522595 0.058472 -2.450948 0
M  V30 49 H -2.046574 2.883278 -5.110388 0
M  V30 50 H -0.422000 3.114532 -4.382908 0
M  V30 51 H -0.609591 2.242471 -5.944984 0
M  V30 52 H -2.730096 -0.440694 -4.279076 0
M  V30 53 H -3.224153 1.052145 -5.095096 0
M  V30 54 H -2.047585 -0.117673 -5.900336 0
M  V30 55 H 0.908481 0.670855 -4.149595 0
M  V30 56 H 0.120275 0.181574 -5.683634 0
M  V30 57 H -0.153998 -0.852052 -4.264157 0
M  V30 58 H 0.435103 -1.362275 0.943747 0
M  V30 59 H -0.925011 -1.715538 2.000554 0
M  V30 60 H 0.287762 -3.629122 -0.067792 0
M  V30 61 H -0.714206 -5.301264 1.434119 0
M  V30 62 H -1.684072 -4.044811 2.282295 0
M  V30 63 H -2.180659 -4.613263 0.704090 0
M  V30 64 H -1.964427 -3.270047 -0.950429 0
M  V30 65 H -2.235991 -1.979734 0.355384 0
M  V30 66 H -0.962919 -1.796244 -0.874786 0
M  V30 END ATOM
M  V30 BEGIN BOND
M  V30 1 1 1 2
M  V30 2 1 2 3
M  V30 3 1 2 4
M  V30 4 1 4 5
M  V30 5 1 5 6
M  V30 6 1 6 7
M  V30 7 2 7 8
M  V30 8 1 8 9
M  V30 9 1 9 10
M  V30 10 1 10 11
M  V30 11 1 11 12
M  V30 12 1 10 13
M  V30 13 1 13 14
M  V30 14 1 14 15
M  V30 15 1 15 16
M  V30 16 1 16 17
M  V30 17 1 16 18
M  V30 18 1 16 19
M  V30 19 1 10 20
M  V30 20 1 20 21
M  V30 21 2 21 22
M  V30 22 1 5 23
M  V30 23 1 23 24
M  V30 24 1 24 25
M  V30 25 1 24 26
M  V30 26 1 21 8
M  V30 27 1 1 27
M  V30 28 1 1 28
M  V30 29 1 1 29
M  V30 30 1 2 30
M  V30 31 1 3 31
M  V30 32 1 3 32
M  V30 33 1 3 33
M  V30 34 1 4 34
M  V30 35 1 4 35
M  V30 36 1 5 36
M  V30 37 1 6 37
M  V30 38 1 6 38
M  V30 39 1 7 39
M  V30 40 1 9 40
M  V30 41 1 9 41
M  V30 42 1 11 42
M  V30 43 1 11 43
M  V30 44 1 12 44
M  V30 45 1 13 45
M  V30 46 1 13 46
M  V30 47 1 15 47
M  V30 48 1 15 48
M  V30 49 1 17 49
M  V30 50 1 17 50
M  V30 51 1 17 51
M  V30 52 1 18 52
M  V30 53 1 18 53
M  V30 54 1 18 54
M  V30 55 1 19 55
M  V30 56 1 19 56
M  V30 57 1 19 57
M  V30 58 1 23 58
M  V30 59 1 23 59
M  V30 60 1 24 60
M  V30 61 1 25 61
M  V30 62 1 25 62
M  V30 63 1 25 63
M  V30 64 1 26 64
M  V30 65 1 26 65
M  V30 66 1 26 66
M  V30 END BOND
M  V30 END CTAB
M  END
>  <Dataset>  (148) 
ChEMBL_Kinases

>  <Ligand_Instance>  (148) 
nan

>  <PDB_ID>  (148) 
nan

>  <Standardized_SMILES>  (148) 
CC(C)CC(C/C=C1/CC(CO)(COCC(C)(C)C)OC1=O)CC(C)C

>  <Name>  (148) 
nan

>  <Pocket>  (148) 
nan

>  <ATP_Site>  (148) 
nan

>  <Peripheral>  (148) 
nan

>  <Num_H_Atoms_ProtBoundConf>  (148) 
nan

>  <Num_Resolved_Atoms>  (148) 
nan

>  <Num_Not_Resolved_Atoms>  (148) 
nan

$$$$
CHEMBL194257
     RDKit          3D

  0  0  0  0  0  0  0  0  0  0999 V3000
M  V30 BEGIN CTAB
M  V30 COUNTS 66 66 0 0 0
M  V30 BEGIN ATOM
M  V30 1 C 0.897828 -4.462635 5.215730 0
M  V30 2 C 1.489151 -3.870292 3.904586 0
M  V30 3 C 0.660934 -4.519180 2.814263 0
M  V30 4 C 1.384770 -2.390509 3.935838 0
M  V30 5 C 1.905691 -1.597398 2.806225 0
M  V30 6 C 1.316937 -1.820089 1.448327 0
M  V30 7 C 1.965699 -0.962070 0.418652 0
M  V30 8 C 1.522460 -0.206144 -0.541112 0
M  V30 9 C 2.099788 0.669203 -1.592923 0
M  V30 10 O 1.000047 1.070106 -2.373965 0
M  V30 11 C -0.003059 1.227976 -1.412409 0
M  V30 12 C 0.555430 2.237559 -0.418304 0
M  V30 13 O 0.832651 3.400749 -1.128001 0
M  V30 14 C -1.284750 1.743953 -1.891524 0
M  V30 15 O -2.046756 1.072997 -2.807958 0
M  V30 16 C -2.730293 -0.090107 -2.768001 0
M  V30 17 O -2.789150 -0.818088 -1.755884 0
M  V30 18 C -3.488703 -0.631103 -3.927867 0
M  V30 19 C -4.148253 -1.948448 -3.576662 0
M  V30 20 C -2.636791 -0.765330 -5.163342 0
M  V30 21 C -4.592263 0.360959 -4.239668 0
M  V30 22 C 0.025907 -0.154725 -0.811096 0
M  V30 23 C 2.362920 -0.234355 3.101039 0
M  V30 24 C 1.526691 0.801492 3.699641 0
M  V30 25 C 0.982764 0.493890 5.102174 0
M  V30 26 C 0.462486 1.439654 2.857789 0
M  V30 27 H 0.618893 -5.505332 5.055244 0
M  V30 28 H 1.632900 -4.289689 6.016696 0
M  V30 29 H -0.005473 -3.860557 5.438133 0
M  V30 30 H 2.490348 -4.302058 3.844716 0
M  V30 31 H 1.304577 -4.972671 2.023399 0
M  V30 32 H -0.122698 -3.869379 2.411656 0
M  V30 33 H 0.085424 -5.421939 3.203020 0
M  V30 34 H 0.299858 -2.179919 4.167048 0
M  V30 35 H 1.923860 -2.079605 4.874603 0
M  V30 36 H 2.947532 -2.144212 2.624678 0
M  V30 37 H 1.526345 -2.859676 1.048652 0
M  V30 38 H 0.215676 -1.744749 1.420704 0
M  V30 39 H 3.069912 -0.973789 0.489082 0
M  V30 40 H 2.768916 0.054294 -2.269785 0
M  V30 41 H 2.727356 1.481000 -1.243122 0
M  V30 42 H -0.314662 2.522337 0.250555 0
M  V30 43 H 1.387198 1.845759 0.152164 0
M  V30 44 H 1.261244 3.226490 -2.014721 0
M  V30 45 H -1.085985 2.770301 -2.337406 0
M  V30 46 H -1.878457 2.032158 -0.956116 0
M  V30 47 H -4.887961 -2.156172 -4.380243 0
M  V30 48 H -4.742028 -1.775827 -2.640144 0
M  V30 49 H -3.411830 -2.745401 -3.416448 0
M  V30 50 H -2.491507 0.198814 -5.679180 0
M  V30 51 H -3.210883 -1.405560 -5.878780 0
M  V30 52 H -1.688376 -1.306095 -4.993383 0
M  V30 53 H -5.014630 0.668596 -3.259808 0
M  V30 54 H -4.157753 1.265664 -4.732178 0
M  V30 55 H -5.371780 -0.084844 -4.890814 0
M  V30 56 H -0.591161 -0.193310 0.061095 0
M  V30 57 H -0.197285 -0.902831 -1.612390 0
M  V30 58 H 2.754506 0.196885 2.125323 0
M  V30 59 H 3.325345 -0.245678 3.717376 0
M  V30 60 H 2.241284 1.664380 3.907488 0
M  V30 61 H 1.740506 0.082469 5.774596 0
M  V30 62 H 0.012300 -0.033868 5.075082 0
M  V30 63 H 0.703891 1.477214 5.608956 0
M  V30 64 H 0.736206 2.430548 2.438231 0
M  V30 65 H -0.404639 1.688831 3.544962 0
M  V30 66 H 0.087675 0.825057 2.052743 0
M  V30 END ATOM
M  V30 BEGIN BOND
M  V30 1 1 1 2
M  V30 2 1 2 3
M  V30 3 1 2 4
M  V30 4 1 4 5
M  V30 5 1 5 6
M  V30 6 1 6 7
M  V30 7 2 7 8
M  V30 8 1 8 9
M  V30 9 1 9 10
M  V30 10 1 10 11
M  V30 11 1 11 12
M  V30 12 1 12 13
M  V30 13 1 11 14
M  V30 14 1 14 15
M  V30 15 1 15 16
M  V30 16 2 16 17
M  V30 17 1 16 18
M  V30 18 1 18 19
M  V30 19 1 18 20
M  V30 20 1 18 21
M  V30 21 1 11 22
M  V30 22 1 5 23
M  V30 23 1 23 24
M  V30 24 1 24 25
M  V30 25 1 24 26
M  V30 26 1 22 8
M  V30 27 1 1 27
M  V30 28 1 1 28
M  V30 29 1 1 29
M  V30 30 1 2 30
M  V30 31 1 3 31
M  V30 32 1 3 32
M  V30 33 1 3 33
M  V30 34 1 4 34
M  V30 35 1 4 35
M  V30 36 1 5 36
M  V30 37 1 6 37
M  V30 38 1 6 38
M  V30 39 1 7 39
M  V30 40 1 9 40
M  V30 41 1 9 41
M  V30 42 1 12 42
M  V30 43 1 12 43
M  V30 44 1 13 44
M  V30 45 1 14 45
M  V30 46 1 14 46
M  V30 47 1 19 47
M  V30 48 1 19 48
M  V30 49 1 19 49
M  V30 50 1 20 50
M  V30 51 1 20 51
M  V30 52 1 20 52
M  V30 53 1 21 53
M  V30 54 1 21 54
M  V30 55 1 21 55
M  V30 56 1 22 56
M  V30 57 1 22 57
M  V30 58 1 23 58
M  V30 59 1 23 59
M  V30 60 1 24 60
M  V30 61 1 25 61
M  V30 62 1 25 62
M  V30 63 1 25 63
M  V30 64 1 26 64
M  V30 65 1 26 65
M  V30 66 1 26 66
M  V30 END BOND
M  V30 END CTAB
M  END
>  <Dataset>  (149) 
ChEMBL_Kinases

>  <Ligand_Instance>  (149) 
nan

>  <PDB_ID>  (149) 
nan

>  <Standardized_SMILES>  (149) 
CC(C)CC(C/C=C1/COC(CO)(COC(=O)C(C)(C)C)C1)CC(C)C

>  <Name>  (149) 
nan

>  <Pocket>  (149) 
nan

>  <ATP_Site>  (149) 
nan

>  <Peripheral>  (149) 
nan

>  <Num_H_Atoms_ProtBoundConf>  (149) 
nan

>  <Num_Resolved_Atoms>  (149) 
nan

>  <Num_Not_Resolved_Atoms>  (149) 
nan

$$$$
CHEMBL514201
     RDKit          3D

  0  0  0  0  0  0  0  0  0  0999 V3000
M  V30 BEGIN CTAB
M  V30 COUNTS 66 69 0 0 0
M  V30 BEGIN ATOM
M  V30 1 C 4.357101 0.679971 2.573479 0
M  V30 2 C 3.527901 -0.431155 1.974189 0 CFG=2
M  V30 3 C 4.318309 -1.219107 0.943531 0
M  V30 4 N 3.402020 -1.469496 -0.134630 0
M  V30 5 C 2.697195 -2.642650 -0.122897 0
M  V30 6 C 1.701763 -2.924247 -1.170111 0
M  V30 7 C 0.358014 -2.568159 -0.986383 0
M  V30 8 C -0.698387 -2.761655 -1.851287 0
M  V30 9 C -0.360741 -3.384246 -3.033652 0
M  V30 10 F -1.366018 -3.603451 -3.931537 0
M  V30 11 C 0.917815 -3.771957 -3.312466 0
M  V30 12 C 1.926949 -3.547884 -2.402762 0
M  V30 13 C 3.120336 -0.339355 -0.883856 0 CFG=1
M  V30 14 C 2.784016 -0.445332 -2.312863 0
M  V30 15 C 2.106363 0.482528 -0.066595 0
M  V30 16 N 2.364179 0.230300 1.365241 0
M  V30 17 C 1.405160 0.656911 2.320433 0
M  V30 18 O 1.459423 0.527258 3.563738 0
M  V30 19 C 0.155834 1.339312 2.007598 0
M  V30 20 C -1.007538 0.639585 1.770428 0
M  V30 21 C -2.182307 1.294961 1.476549 0
M  V30 22 C -3.416028 0.750426 1.216980 0
M  V30 23 C -3.957314 -0.583603 1.147499 0
M  V30 24 O -5.176778 -0.798319 0.876807 0
M  V30 25 C -3.265719 -1.816404 1.356328 0
M  V30 26 O -2.412573 -2.688143 1.588257 0
M  V30 27 N -3.769056 -3.137239 1.291807 0
M  V30 28 C -2.948949 -4.305715 1.528531 0
M  V30 29 C -5.180718 -3.262685 0.968767 0
M  V30 30 C -4.202900 1.878627 0.992502 0
M  V30 31 N -3.439189 2.966486 1.123252 0
M  V30 32 C -3.962239 4.319214 0.950183 0
M  V30 33 C -2.174835 2.658683 1.423785 0
M  V30 34 C -1.029961 3.388533 1.655507 0
M  V30 35 C 0.136892 2.715756 1.948279 0
M  V30 36 Cl 1.595645 3.658632 2.242897 0
M  V30 37 H 3.848434 1.010762 3.488803 0
M  V30 38 H 4.316768 1.547145 1.864073 0
M  V30 39 H 5.396114 0.399681 2.783030 0
M  V30 40 H 3.183289 -1.171303 2.722351 0
M  V30 41 H 4.794852 -2.113867 1.353155 0
M  V30 42 H 5.110875 -0.544391 0.560243 0
M  V30 43 H 3.331484 -3.578204 -0.060048 0
M  V30 44 H 2.115389 -2.692338 0.851839 0
M  V30 45 H 0.136663 -2.078327 -0.037428 0
M  V30 46 H -1.670387 -2.437564 -1.576258 0
M  V30 47 H 1.195852 -4.262666 -4.240067 0
M  V30 48 H 2.966777 -3.838565 -2.576766 0
M  V30 49 H 4.054400 0.324413 -0.834973 0
M  V30 50 H 2.970836 0.584054 -2.762953 0
M  V30 51 H 3.489835 -1.164754 -2.779816 0
M  V30 52 H 1.755989 -0.667960 -2.587301 0
M  V30 53 H 1.119739 0.141988 -0.364155 0
M  V30 54 H 2.214303 1.554821 -0.218492 0
M  V30 55 H -0.974219 -0.434907 1.820881 0
M  V30 56 H -2.187042 -4.346245 0.715808 0
M  V30 57 H -2.451052 -4.330343 2.504622 0
M  V30 58 H -3.631371 -5.198303 1.451462 0
M  V30 59 H -5.398963 -4.369589 0.939329 0
M  V30 60 H -5.425423 -2.902731 -0.057118 0
M  V30 61 H -5.844207 -2.843219 1.738317 0
M  V30 62 H -5.252718 1.856256 0.754098 0
M  V30 63 H -3.891787 4.651005 -0.098764 0
M  V30 64 H -3.429719 5.030079 1.621380 0
M  V30 65 H -5.035341 4.356598 1.232976 0
M  V30 66 H -1.036254 4.457793 1.611480 0
M  V30 END ATOM
M  V30 BEGIN BOND
M  V30 1 1 1 2
M  V30 2 1 2 3
M  V30 3 1 3 4
M  V30 4 1 4 5
M  V30 5 1 5 6
M  V30 6 2 6 7
M  V30 7 1 7 8
M  V30 8 2 8 9
M  V30 9 1 9 10
M  V30 10 1 9 11
M  V30 11 2 11 12
M  V30 12 1 4 13
M  V30 13 1 13 14
M  V30 14 1 13 15
M  V30 15 1 15 16
M  V30 16 1 16 17
M  V30 17 2 17 18
M  V30 18 1 17 19
M  V30 19 2 19 20
M  V30 20 1 20 21
M  V30 21 1 21 22
M  V30 22 1 22 23
M  V30 23 2 23 24
M  V30 24 1 23 25
M  V30 25 2 25 26
M  V30 26 1 25 27
M  V30 27 1 27 28
M  V30 28 1 27 29
M  V30 29 2 22 30
M  V30 30 1 30 31
M  V30 31 1 31 32
M  V30 32 1 31 33
M  V30 33 1 33 34
M  V30 34 2 34 35
M  V30 35 1 35 36
M  V30 36 1 16 2
M  V30 37 1 35 19
M  V30 38 1 12 6
M  V30 39 2 33 21
M  V30 40 1 1 37
M  V30 41 1 1 38
M  V30 42 1 1 39
M  V30 43 1 2 40 CFG=1
M  V30 44 1 3 41
M  V30 45 1 3 42
M  V30 46 1 5 43
M  V30 47 1 5 44
M  V30 48 1 7 45
M  V30 49 1 8 46
M  V30 50 1 11 47
M  V30 51 1 12 48
M  V30 52 1 13 49 CFG=3
M  V30 53 1 14 50
M  V30 54 1 14 51
M  V30 55 1 14 52
M  V30 56 1 15 53
M  V30 57 1 15 54
M  V30 58 1 20 55
M  V30 59 1 28 56
M  V30 60 1 28 57
M  V30 61 1 28 58
M  V30 62 1 29 59
M  V30 63 1 29 60
M  V30 64 1 29 61
M  V30 65 1 30 62
M  V30 66 1 32 63
M  V30 67 1 32 64
M  V30 68 1 32 65
M  V30 69 1 34 66
M  V30 END BOND
M  V30 END CTAB
M  END
>  <Dataset>  (150) 
ChEMBL_Kinases

>  <Ligand_Instance>  (150) 
nan

>  <PDB_ID>  (150) 
nan

>  <Standardized_SMILES>  (150) 
C[C@@H]1CN(Cc2ccc(F)cc2)[C@@H](C)CN1C(=O)c1cc2c(C(=O)C(=O)N(C)C)cn(C)c2cc1Cl

>  <Name>  (150) 
TALMAPIMOD

>  <Pocket>  (150) 
nan

>  <ATP_Site>  (150) 
nan

>  <Peripheral>  (150) 
nan

>  <Num_H_Atoms_ProtBoundConf>  (150) 
nan

>  <Num_Resolved_Atoms>  (150) 
nan

>  <Num_Not_Resolved_Atoms>  (150) 
nan

$$$$
CHEMBL514197
     RDKit          3D

  0  0  0  0  0  0  0  0  0  0999 V3000
M  V30 BEGIN CTAB
M  V30 COUNTS 60 65 0 0 0
M  V30 BEGIN ATOM
M  V30 1 C 6.287142 -4.431221 4.484445 0
M  V30 2 O 5.701695 -3.591518 5.457305 0
M  V30 3 C 4.737671 -2.642761 5.074560 0
M  V30 4 C 4.333642 -2.495450 3.764818 0
M  V30 5 C 3.372300 -1.525982 3.489697 0
M  V30 6 C 2.917498 -1.340144 2.104709 0
M  V30 7 C 1.610960 -0.925460 1.941275 0
M  V30 8 C 1.072831 -0.717403 0.681048 0
M  V30 9 C 1.896902 -0.941884 -0.401034 0
M  V30 10 C 1.729717 -0.846844 -1.767426 0
M  V30 11 C 0.521449 -0.446270 -2.489438 0
M  V30 12 N -0.664757 -0.092207 -1.955924 0
M  V30 13 C -1.537988 0.210399 -2.932788 0
M  V30 14 C -2.851537 0.617801 -2.873419 0
M  V30 15 N -3.589509 0.812016 -1.676513 0
M  V30 16 C -4.960501 1.226085 -1.729066 0
M  V30 17 C -5.626755 1.309697 -0.401555 0
M  V30 18 N -5.341321 0.244135 0.498089 0
M  V30 19 C -6.402744 -0.740942 0.470962 0
M  V30 20 C -4.094025 -0.435433 0.257267 0
M  V30 21 C -3.164699 0.652972 -0.303124 0
M  V30 22 C -3.462891 0.844779 -4.079347 0
M  V30 23 C -2.794806 0.672319 -5.253578 0
M  V30 24 C -1.495947 0.269485 -5.313307 0
M  V30 25 C -0.849827 0.031848 -4.116517 0
M  V30 26 N 0.413447 -0.371620 -3.823156 0
M  V30 27 N 2.875367 -1.186645 -2.384193 0
M  V30 28 N 3.801807 -1.505159 -1.482260 0
M  V30 29 C 3.216441 -1.360072 -0.254719 0
M  V30 30 C 3.736581 -1.562799 1.013652 0
M  V30 31 C 2.847261 -0.740207 4.516504 0
M  V30 32 C 3.257173 -0.896395 5.814481 0
M  V30 33 C 4.200367 -1.849397 6.075720 0
M  V30 34 O 4.615211 -2.008500 7.385088 0
M  V30 35 H 6.979780 -3.797689 3.899587 0
M  V30 36 H 5.508407 -4.888821 3.823337 0
M  V30 37 H 6.790962 -5.261541 5.022017 0
M  V30 38 H 4.770145 -3.128463 3.005522 0
M  V30 39 H 0.912679 -0.731943 2.751481 0
M  V30 40 H 0.066855 -0.394604 0.450628 0
M  V30 41 H -5.047974 2.157024 -2.315847 0
M  V30 42 H -5.541409 0.461590 -2.323300 0
M  V30 43 H -5.240569 2.247712 0.088277 0
M  V30 44 H -6.715930 1.471548 -0.483112 0
M  V30 45 H -6.066705 -1.716445 0.905033 0
M  V30 46 H -6.694714 -0.922807 -0.584970 0
M  V30 47 H -7.311959 -0.382590 0.999616 0
M  V30 48 H -4.254578 -1.185060 -0.538776 0
M  V30 49 H -3.726943 -0.851705 1.194187 0
M  V30 50 H -2.152213 0.287752 -0.164539 0
M  V30 51 H -3.326970 1.591313 0.296195 0
M  V30 52 H -4.495661 1.166738 -4.093835 0
M  V30 53 H -3.339209 0.870492 -6.184147 0
M  V30 54 H -0.983183 0.138203 -6.248708 0
M  V30 55 H 1.136134 -0.574935 -4.551734 0
M  V30 56 H 4.798080 -1.813389 -1.619726 0
M  V30 57 H 4.754920 -1.886690 1.172736 0
M  V30 58 H 2.094479 0.015685 4.286621 0
M  V30 59 H 2.802451 -0.245421 6.569256 0
M  V30 60 H 3.931647 -2.208141 8.116818 0
M  V30 END ATOM
M  V30 BEGIN BOND
M  V30 1 1 1 2
M  V30 2 1 2 3
M  V30 3 2 3 4
M  V30 4 1 4 5
M  V30 5 1 5 6
M  V30 6 2 6 7
M  V30 7 1 7 8
M  V30 8 2 8 9
M  V30 9 1 9 10
M  V30 10 1 10 11
M  V30 11 2 11 12
M  V30 12 1 12 13
M  V30 13 2 13 14
M  V30 14 1 14 15
M  V30 15 1 15 16
M  V30 16 1 16 17
M  V30 17 1 17 18
M  V30 18 1 18 19
M  V30 19 1 18 20
M  V30 20 1 20 21
M  V30 21 1 14 22
M  V30 22 2 22 23
M  V30 23 1 23 24
M  V30 24 2 24 25
M  V30 25 1 25 26
M  V30 26 2 10 27
M  V30 27 1 27 28
M  V30 28 1 28 29
M  V30 29 2 29 30
M  V30 30 2 5 31
M  V30 31 1 31 32
M  V30 32 2 32 33
M  V30 33 1 33 34
M  V30 34 1 33 3
M  V30 35 1 30 6
M  V30 36 1 29 9
M  V30 37 1 26 11
M  V30 38 1 25 13
M  V30 39 1 21 15
M  V30 40 1 1 35
M  V30 41 1 1 36
M  V30 42 1 1 37
M  V30 43 1 4 38
M  V30 44 1 7 39
M  V30 45 1 8 40
M  V30 46 1 16 41
M  V30 47 1 16 42
M  V30 48 1 17 43
M  V30 49 1 17 44
M  V30 50 1 19 45
M  V30 51 1 19 46
M  V30 52 1 19 47
M  V30 53 1 20 48
M  V30 54 1 20 49
M  V30 55 1 21 50
M  V30 56 1 21 51
M  V30 57 1 22 52
M  V30 58 1 23 53
M  V30 59 1 24 54
M  V30 60 1 26 55
M  V30 61 1 28 56
M  V30 62 1 30 57
M  V30 63 1 31 58
M  V30 64 1 32 59
M  V30 65 1 34 60
M  V30 END BOND
M  V30 END CTAB
M  END
>  <Dataset>  (151) 
ChEMBL_Kinases

>  <Ligand_Instance>  (151) 
nan

>  <PDB_ID>  (151) 
nan

>  <Standardized_SMILES>  (151) 
COc1cc(-c2ccc3c(-c4nc5c(N6CCN(C)CC6)cccc5[nH]4)n[nH]c3c2)ccc1O

>  <Name>  (151) 
nan

>  <Pocket>  (151) 
nan

>  <ATP_Site>  (151) 
nan

>  <Peripheral>  (151) 
nan

>  <Num_H_Atoms_ProtBoundConf>  (151) 
nan

>  <Num_Resolved_Atoms>  (151) 
nan

>  <Num_Not_Resolved_Atoms>  (151) 
nan

$$$$
CHEMBL133823
     RDKit          3D

  0  0  0  0  0  0  0  0  0  0999 V3000
M  V30 BEGIN CTAB
M  V30 COUNTS 57 60 0 0 0
M  V30 BEGIN ATOM
M  V30 1 C 4.701913 -3.251341 1.852034 0
M  V30 2 S 5.371818 -3.636697 0.269527 0
M  V30 3 O 5.330098 -5.142615 0.132438 0
M  V30 4 O 6.801615 -3.187470 0.222429 0
M  V30 5 N 4.463766 -2.901738 -0.998012 0
M  V30 6 C 4.168912 -1.557062 -1.323330 0
M  V30 7 C 3.618921 -0.876478 -0.235623 0
M  V30 8 C 3.209007 0.439468 -0.299706 0
M  V30 9 C 3.336787 1.133555 -1.475529 0
M  V30 10 N 2.900036 2.476953 -1.621916 0
M  V30 11 C 2.160690 2.990439 -0.498584 0
M  V30 12 N 2.381074 3.884782 0.505709 0
M  V30 13 C 1.393803 4.091926 1.426557 0
M  V30 14 C 0.169582 3.457969 1.423875 0
M  V30 15 C -0.012035 2.565357 0.396930 0
M  V30 16 C -1.253226 1.796939 0.297573 0
M  V30 17 C -2.348902 1.874205 1.114967 0
M  V30 18 C -3.442068 1.060435 0.925088 0
M  V30 19 C -3.453494 0.146500 -0.100622 0
M  V30 20 S -4.864079 -0.855554 -0.289595 0
M  V30 21 O -4.975200 -1.190332 -1.758905 0
M  V30 22 O -6.063310 -0.097789 0.141771 0
M  V30 23 N -4.794404 -2.329651 0.557494 0
M  V30 24 C -4.683675 -2.030289 1.987411 0
M  V30 25 C -4.791662 -3.286512 2.813129 0
M  V30 26 N -4.713849 -4.470383 1.961060 0
M  V30 27 C -3.534870 -4.325045 1.120466 0
M  V30 28 C -3.697544 -3.163588 0.177021 0
M  V30 29 C -2.378444 -0.013563 -0.997934 0
M  V30 30 C -1.354444 0.856957 -0.697962 0
M  V30 31 N 0.982084 2.388740 -0.490566 0
M  V30 32 C 3.884567 0.461224 -2.559661 0
M  V30 33 C 4.293821 -0.859928 -2.487371 0
M  V30 34 H 3.616727 -3.379452 1.890220 0
M  V30 35 H 5.156870 -3.966259 2.600526 0
M  V30 36 H 5.062499 -2.256325 2.196782 0
M  V30 37 H 3.974342 -3.432332 -1.751036 0
M  V30 38 H 3.458759 -1.298356 0.740679 0
M  V30 39 H 2.781742 0.972095 0.549070 0
M  V30 40 H 3.109644 3.025362 -2.482812 0
M  V30 41 H 1.668652 4.814186 2.176122 0
M  V30 42 H -0.582555 3.649286 2.168436 0
M  V30 43 H -2.330606 2.632149 1.907984 0
M  V30 44 H -4.309494 1.141290 1.593148 0
M  V30 45 H -5.525864 -1.346389 2.293845 0
M  V30 46 H -3.703327 -1.550857 2.208847 0
M  V30 47 H -3.919829 -3.324989 3.494377 0
M  V30 48 H -5.747887 -3.289991 3.381402 0
M  V30 49 H -4.679715 -5.336217 2.524647 0
M  V30 50 H -3.433447 -5.276230 0.568229 0
M  V30 51 H -2.638966 -4.186360 1.767244 0
M  V30 52 H -3.812309 -3.582394 -0.853455 0
M  V30 53 H -2.724839 -2.596577 0.183482 0
M  V30 54 H -2.358524 -0.719671 -1.810670 0
M  V30 55 H -0.508338 0.744477 -1.387963 0
M  V30 56 H 3.979403 1.013927 -3.462205 0
M  V30 57 H 4.721788 -1.413538 -3.295971 0
M  V30 END ATOM
M  V30 BEGIN BOND
M  V30 1 1 1 2
M  V30 2 2 2 3
M  V30 3 2 2 4
M  V30 4 1 2 5
M  V30 5 1 5 6
M  V30 6 2 6 7
M  V30 7 1 7 8
M  V30 8 2 8 9
M  V30 9 1 9 10
M  V30 10 1 10 11
M  V30 11 2 11 12
M  V30 12 1 12 13
M  V30 13 2 13 14
M  V30 14 1 14 15
M  V30 15 1 15 16
M  V30 16 2 16 17
M  V30 17 1 17 18
M  V30 18 2 18 19
M  V30 19 1 19 20
M  V30 20 2 20 21
M  V30 21 2 20 22
M  V30 22 1 20 23
M  V30 23 1 23 24
M  V30 24 1 24 25
M  V30 25 1 25 26
M  V30 26 1 26 27
M  V30 27 1 27 28
M  V30 28 1 19 29
M  V30 29 2 29 30
M  V30 30 2 15 31
M  V30 31 1 9 32
M  V30 32 2 32 33
M  V30 33 1 33 6
M  V30 34 1 31 11
M  V30 35 1 30 16
M  V30 36 1 28 23
M  V30 37 1 1 34
M  V30 38 1 1 35
M  V30 39 1 1 36
M  V30 40 1 5 37
M  V30 41 1 7 38
M  V30 42 1 8 39
M  V30 43 1 10 40
M  V30 44 1 13 41
M  V30 45 1 14 42
M  V30 46 1 17 43
M  V30 47 1 18 44
M  V30 48 1 24 45
M  V30 49 1 24 46
M  V30 50 1 25 47
M  V30 51 1 25 48
M  V30 52 1 26 49
M  V30 53 1 27 50
M  V30 54 1 27 51
M  V30 55 1 28 52
M  V30 56 1 28 53
M  V30 57 1 29 54
M  V30 58 1 30 55
M  V30 59 1 32 56
M  V30 60 1 33 57
M  V30 END BOND
M  V30 END CTAB
M  END
>  <Dataset>  (152) 
ChEMBL_Kinases

>  <Ligand_Instance>  (152) 
nan

>  <PDB_ID>  (152) 
nan

>  <Standardized_SMILES>  (152) 
CS(=O)(=O)Nc1ccc(Nc2nccc(-c3ccc(S(=O)(=O)N4CCNCC4)cc3)n2)cc1

>  <Name>  (152) 
nan

>  <Pocket>  (152) 
nan

>  <ATP_Site>  (152) 
nan

>  <Peripheral>  (152) 
nan

>  <Num_H_Atoms_ProtBoundConf>  (152) 
nan

>  <Num_Resolved_Atoms>  (152) 
nan

>  <Num_Not_Resolved_Atoms>  (152) 
nan

$$$$
CHEMBL514162
     RDKit          3D

  0  0  0  0  0  0  0  0  0  0999 V3000
M  V30 BEGIN CTAB
M  V30 COUNTS 48 51 0 0 0
M  V30 BEGIN ATOM
M  V30 1 C -2.302988 -7.515950 1.846050 0
M  V30 2 O -1.755944 -6.663904 0.859380 0
M  V30 3 C -1.635247 -5.307318 1.042846 0
M  V30 4 C -2.073542 -4.743852 2.250132 0
M  V30 5 C -1.941331 -3.369312 2.415161 0
M  V30 6 N -2.248314 -2.519602 3.419375 0
M  V30 7 C -1.917535 -1.259379 3.087975 0
M  V30 8 N -1.386642 -1.278881 1.851484 0
M  V30 9 C -0.919762 -0.126421 1.173127 0
M  V30 10 C 0.154272 0.547766 0.754718 0
M  V30 11 C 0.043670 1.702839 0.057643 0
M  V30 12 O 0.891960 2.541973 -0.461219 0
M  V30 13 C 2.112481 2.975621 -0.737575 0
M  V30 14 C 2.960347 3.260626 0.451980 0
M  V30 15 C 2.915930 4.604928 0.823453 0
M  V30 16 C 3.587178 5.132604 1.923770 0
M  V30 17 C 4.345503 4.263157 2.695047 0
M  V30 18 C 4.416544 2.938979 2.365807 0
M  V30 19 C 3.733312 2.479271 1.269207 0
M  V30 20 Cl 3.791530 0.798641 0.725777 0
M  V30 21 C -1.198742 2.174343 -0.213420 0
M  V30 22 C -1.848675 3.288403 -0.879380 0
M  V30 23 N -3.252871 3.457090 -0.969251 0
M  V30 24 O -1.090991 4.142759 -1.400994 0
M  V30 25 S -2.308914 0.914083 0.560752 0
M  V30 26 C -1.398607 -2.553855 1.439346 0
M  V30 27 C -0.978420 -3.161856 0.257784 0
M  V30 28 C -1.081509 -4.536317 0.024838 0
M  V30 29 O -0.704515 -5.062103 -1.027170 0
M  V30 30 C -0.232794 -5.380834 -2.223292 0
M  V30 31 H -1.625670 -7.618243 2.733662 0
M  V30 32 H -3.269177 -7.144629 2.248315 0
M  V30 33 H -2.419008 -8.558855 1.451972 0
M  V30 34 H -2.501329 -5.306664 3.048561 0
M  V30 35 H -2.086039 -0.416997 3.767297 0
M  V30 36 H 1.020555 0.007820 1.071194 0
M  V30 37 H 2.178797 3.831967 -1.463894 0
M  V30 38 H 2.657312 2.148069 -1.324844 0
M  V30 39 H 2.358512 5.375091 0.300472 0
M  V30 40 H 3.573375 6.157274 2.234698 0
M  V30 41 H 4.914301 4.543904 3.576038 0
M  V30 42 H 4.960204 2.142215 2.860925 0
M  V30 43 H -3.367985 4.031524 -0.080941 0
M  V30 44 H -3.596813 2.971140 -1.833892 0
M  V30 45 H -0.544983 -2.556976 -0.534717 0
M  V30 46 H 0.702796 -6.018805 -2.236850 0
M  V30 47 H -0.968176 -5.998561 -2.825362 0
M  V30 48 H 0.081970 -4.499987 -2.881261 0
M  V30 END ATOM
M  V30 BEGIN BOND
M  V30 1 1 1 2
M  V30 2 1 2 3
M  V30 3 2 3 4
M  V30 4 1 4 5
M  V30 5 1 5 6
M  V30 6 2 6 7
M  V30 7 1 7 8
M  V30 8 1 8 9
M  V30 9 2 9 10
M  V30 10 1 10 11
M  V30 11 1 11 12
M  V30 12 1 12 13
M  V30 13 1 13 14
M  V30 14 2 14 15
M  V30 15 1 15 16
M  V30 16 2 16 17
M  V30 17 1 17 18
M  V30 18 2 18 19
M  V30 19 1 19 20
M  V30 20 2 11 21
M  V30 21 1 21 22
M  V30 22 1 22 23
M  V30 23 2 22 24
M  V30 24 1 21 25
M  V30 25 1 8 26
M  V30 26 1 26 27
M  V30 27 2 27 28
M  V30 28 1 28 29
M  V30 29 1 29 30
M  V30 30 1 28 3
M  V30 31 2 26 5
M  V30 32 1 25 9
M  V30 33 1 19 14
M  V30 34 1 1 31
M  V30 35 1 1 32
M  V30 36 1 1 33
M  V30 37 1 4 34
M  V30 38 1 7 35
M  V30 39 1 10 36
M  V30 40 1 13 37
M  V30 41 1 13 38
M  V30 42 1 15 39
M  V30 43 1 16 40
M  V30 44 1 17 41
M  V30 45 1 18 42
M  V30 46 1 23 43
M  V30 47 1 23 44
M  V30 48 1 27 45
M  V30 49 1 30 46
M  V30 50 1 30 47
M  V30 51 1 30 48
M  V30 END BOND
M  V30 END CTAB
M  END
>  <Dataset>  (153) 
ChEMBL_Kinases

>  <Ligand_Instance>  (153) 
nan

>  <PDB_ID>  (153) 
nan

>  <Standardized_SMILES>  (153) 
COc1cc2ncn(-c3cc(OCc4ccccc4Cl)c(C(N)=O)s3)c2cc1OC

>  <Name>  (153) 
GW852849X

>  <Pocket>  (153) 
nan

>  <ATP_Site>  (153) 
nan

>  <Peripheral>  (153) 
nan

>  <Num_H_Atoms_ProtBoundConf>  (153) 
nan

>  <Num_Resolved_Atoms>  (153) 
nan

>  <Num_Not_Resolved_Atoms>  (153) 
nan

$$$$
CHEMBL516913
     RDKit          3D

  0  0  0  0  0  0  0  0  0  0999 V3000
M  V30 BEGIN CTAB
M  V30 COUNTS 59 63 0 0 0
M  V30 BEGIN ATOM
M  V30 1 C 2.541381 1.437707 5.994510 0
M  V30 2 O 1.849102 0.747331 4.958647 0
M  V30 3 C 2.261242 0.958881 3.650325 0
M  V30 4 C 3.319044 1.817963 3.343257 0
M  V30 5 C 3.778586 2.073085 2.069943 0
M  V30 6 C 3.144024 1.428691 1.008793 0
M  V30 7 C 3.564462 1.638136 -0.387423 0
M  V30 8 N 4.582677 0.710225 -0.836928 0
M  V30 9 C 4.917733 1.014067 -2.229317 0
M  V30 10 C 4.116991 -0.663025 -0.789826 0
M  V30 11 C 2.092524 0.568248 1.251596 0
M  V30 12 C 1.701166 0.371647 2.535328 0
M  V30 13 C 0.561806 -0.563652 2.768781 0
M  V30 14 C -0.185508 -1.279348 1.938008 0
M  V30 15 C -1.184565 -2.071553 2.411297 0
M  V30 16 C -2.069949 -2.887731 1.731960 0
M  V30 17 N -2.033697 -3.004511 0.315756 0
M  V30 18 C -2.764268 -2.175900 -0.580652 0
M  V30 19 C -3.567511 -1.186684 -0.051245 0
M  V30 20 C -4.258299 -0.406579 -0.972203 0
M  V30 21 C -4.159494 -0.595205 -2.342174 0
M  V30 22 N -4.677395 -0.031119 -3.439323 0
M  V30 23 C -4.215425 -0.641361 -4.549989 0
M  V30 24 C -3.340798 -1.670667 -4.193556 0
M  V30 25 C -3.324246 -1.618909 -2.796720 0
M  V30 26 C -2.608136 -2.431770 -1.922829 0
M  V30 27 C -1.723029 -3.515958 -2.393839 0
M  V30 28 C -3.003524 -3.599887 2.444308 0
M  V30 29 C -3.936113 -4.459669 1.727597 0
M  V30 30 N -4.693139 -5.139084 1.148957 0
M  V30 31 C -3.168437 -3.596840 3.810204 0
M  V30 32 N -2.302344 -2.799836 4.461417 0
M  V30 33 C -1.371843 -2.085753 3.792523 0
M  V30 34 S -0.042156 -0.904594 4.382773 0
M  V30 35 H 2.538876 2.524427 5.707376 0
M  V30 36 H 3.613123 1.136719 6.033543 0
M  V30 37 H 2.028700 1.316963 6.970485 0
M  V30 38 H 3.841351 2.341195 4.148085 0
M  V30 39 H 4.603851 2.750300 1.898247 0
M  V30 40 H 2.681035 1.633127 -1.084022 0
M  V30 41 H 4.007112 2.652688 -0.444242 0
M  V30 42 H 5.816667 0.462589 -2.548592 0
M  V30 43 H 4.984649 2.116128 -2.370113 0
M  V30 44 H 4.088722 0.673730 -2.908012 0
M  V30 45 H 4.106903 -1.078061 0.240676 0
M  V30 46 H 4.813849 -1.274193 -1.411460 0
M  V30 47 H 3.135707 -0.708028 -1.290566 0
M  V30 48 H 1.607465 0.072105 0.405538 0
M  V30 49 H 0.057791 -1.183850 0.885103 0
M  V30 50 H -1.409264 -3.766963 0.034053 0
M  V30 51 H -3.660593 -1.020470 1.016187 0
M  V30 52 H -4.915474 0.398930 -0.614053 0
M  V30 53 H -5.344241 0.770614 -3.380570 0
M  V30 54 H -4.488550 -0.367025 -5.579185 0
M  V30 55 H -2.812327 -2.336898 -4.842541 0
M  V30 56 H -1.863152 -3.700954 -3.472158 0
M  V30 57 H -2.047914 -4.446311 -1.842350 0
M  V30 58 H -0.649393 -3.297566 -2.233294 0
M  V30 59 H -3.866886 -4.120482 4.431459 0
M  V30 END ATOM
M  V30 BEGIN BOND
M  V30 1 1 1 2
M  V30 2 1 2 3
M  V30 3 2 3 4
M  V30 4 1 4 5
M  V30 5 2 5 6
M  V30 6 1 6 7
M  V30 7 1 7 8
M  V30 8 1 8 9
M  V30 9 1 8 10
M  V30 10 1 6 11
M  V30 11 2 11 12
M  V30 12 1 12 13
M  V30 13 2 13 14
M  V30 14 1 14 15
M  V30 15 2 15 16
M  V30 16 1 16 17
M  V30 17 1 17 18
M  V30 18 2 18 19
M  V30 19 1 19 20
M  V30 20 2 20 21
M  V30 21 1 21 22
M  V30 22 1 22 23
M  V30 23 2 23 24
M  V30 24 1 24 25
M  V30 25 2 25 26
M  V30 26 1 26 27
M  V30 27 1 16 28
M  V30 28 1 28 29
M  V30 29 3 29 30
M  V30 30 2 28 31
M  V30 31 1 31 32
M  V30 32 2 32 33
M  V30 33 1 33 34
M  V30 34 1 12 3
M  V30 35 1 34 13
M  V30 36 1 33 15
M  V30 37 1 26 18
M  V30 38 1 25 21
M  V30 39 1 1 35
M  V30 40 1 1 36
M  V30 41 1 1 37
M  V30 42 1 4 38
M  V30 43 1 5 39
M  V30 44 1 7 40
M  V30 45 1 7 41
M  V30 46 1 9 42
M  V30 47 1 9 43
M  V30 48 1 9 44
M  V30 49 1 10 45
M  V30 50 1 10 46
M  V30 51 1 10 47
M  V30 52 1 11 48
M  V30 53 1 14 49
M  V30 54 1 17 50
M  V30 55 1 19 51
M  V30 56 1 20 52
M  V30 57 1 22 53
M  V30 58 1 23 54
M  V30 59 1 24 55
M  V30 60 1 27 56
M  V30 61 1 27 57
M  V30 62 1 27 58
M  V30 63 1 31 59
M  V30 END BOND
M  V30 END CTAB
M  END
>  <Dataset>  (154) 
ChEMBL_Kinases

>  <Ligand_Instance>  (154) 
nan

>  <PDB_ID>  (154) 
nan

>  <Standardized_SMILES>  (154) 
COc1ccc(CN(C)C)cc1-c1cc2c(Nc3ccc4[nH]ccc4c3C)c(C#N)cnc2s1

>  <Name>  (154) 
nan

>  <Pocket>  (154) 
nan

>  <ATP_Site>  (154) 
nan

>  <Peripheral>  (154) 
nan

>  <Num_H_Atoms_ProtBoundConf>  (154) 
nan

>  <Num_Resolved_Atoms>  (154) 
nan

>  <Num_Not_Resolved_Atoms>  (154) 
nan

$$$$
CHEMBL1947251
     RDKit          3D

  0  0  0  0  0  0  0  0  0  0999 V3000
M  V30 BEGIN CTAB
M  V30 COUNTS 43 46 0 0 0
M  V30 BEGIN ATOM
M  V30 1 C -1.921328 -7.137497 0.632811 0
M  V30 2 O -2.473087 -6.036574 -0.065488 0
M  V30 3 C -1.879596 -4.781508 -0.022437 0
M  V30 4 C -0.729687 -4.466588 0.675448 0
M  V30 5 C -0.193109 -3.195049 0.674656 0
M  V30 6 C -0.825747 -2.205420 -0.046852 0
M  V30 7 C -0.294632 -0.846941 -0.076589 0
M  V30 8 C 0.865244 -0.440448 0.601198 0
M  V30 9 C 0.910268 0.903585 0.245028 0
M  V30 10 C -0.150710 1.298832 -0.599563 0
M  V30 11 N -0.865098 0.179119 -0.765431 0
M  V30 12 C -0.368956 2.652549 -1.165337 0
M  V30 13 O -1.478861 2.757315 -1.721595 0
M  V30 14 N 0.614199 3.711734 -1.066984 0
M  V30 15 C 1.716983 4.002514 -0.169059 0
M  V30 16 C 2.697292 2.849224 -0.035060 0
M  V30 17 C 1.985291 1.810566 0.724456 0
M  V30 18 C 2.248165 1.643473 2.030991 0
M  V30 19 N 1.631731 0.753736 2.932751 0
M  V30 20 C 2.269553 0.898402 4.188885 0
M  V30 21 N 2.068252 0.257989 5.463356 0
M  V30 22 N 3.195288 1.787547 4.103894 0
M  V30 23 C 3.282844 2.337075 2.785679 0
M  V30 24 O 4.087679 3.221977 2.402099 0
M  V30 25 C -1.972369 -2.535746 -0.738009 0
M  V30 26 C -2.530698 -3.807462 -0.752098 0
M  V30 27 H -1.148423 -7.663943 0.001126 0
M  V30 28 H -2.729033 -7.899487 0.825793 0
M  V30 29 H -1.440699 -6.862956 1.588171 0
M  V30 30 H -0.254491 -5.243103 1.227019 0
M  V30 31 H 0.710018 -2.988060 1.234467 0
M  V30 32 H 1.552122 -0.977191 1.195512 0
M  V30 33 H -1.714520 0.148515 -1.339547 0
M  V30 34 H 0.418694 4.395185 -1.864891 0
M  V30 35 H 1.236774 4.109689 0.845988 0
M  V30 36 H 2.170552 4.949172 -0.451823 0
M  V30 37 H 2.777783 2.491310 -1.112318 0
M  V30 38 H 3.704919 3.088202 0.207493 0
M  V30 39 H 0.852057 0.087503 2.905541 0
M  V30 40 H 1.400266 0.699385 6.132347 0
M  V30 41 H 2.464516 -0.601625 5.895692 0
M  V30 42 H -2.478670 -1.761137 -1.310381 0
M  V30 43 H -3.435807 -3.963245 -1.328148 0
M  V30 END ATOM
M  V30 BEGIN BOND
M  V30 1 1 1 2
M  V30 2 1 2 3
M  V30 3 2 3 4
M  V30 4 1 4 5
M  V30 5 2 5 6
M  V30 6 1 6 7
M  V30 7 2 7 8
M  V30 8 1 8 9
M  V30 9 2 9 10
M  V30 10 1 10 11
M  V30 11 1 10 12
M  V30 12 2 12 13
M  V30 13 1 12 14
M  V30 14 1 14 15
M  V30 15 1 15 16
M  V30 16 1 16 17
M  V30 17 2 17 18
M  V30 18 1 18 19
M  V30 19 1 19 20
M  V30 20 1 20 21
M  V30 21 2 20 22
M  V30 22 1 22 23
M  V30 23 2 23 24
M  V30 24 1 6 25
M  V30 25 2 25 26
M  V30 26 1 26 3
M  V30 27 1 11 7
M  V30 28 1 23 18
M  V30 29 1 17 9
M  V30 30 1 1 27
M  V30 31 1 1 28
M  V30 32 1 1 29
M  V30 33 1 4 30
M  V30 34 1 5 31
M  V30 35 1 8 32
M  V30 36 1 11 33
M  V30 37 1 14 34
M  V30 38 1 15 35
M  V30 39 1 15 36
M  V30 40 1 16 37
M  V30 41 1 16 38
M  V30 42 1 19 39
M  V30 43 1 21 40
M  V30 44 1 21 41
M  V30 45 1 25 42
M  V30 46 1 26 43
M  V30 END BOND
M  V30 END CTAB
M  END
>  <Dataset>  (155) 
ChEMBL_Kinases

>  <Ligand_Instance>  (155) 
nan

>  <PDB_ID>  (155) 
nan

>  <Standardized_SMILES>  (155) 
COc1ccc(-c2cc3c([nH]2)C(=O)NCC/C3=C2/NC(N)=NC2=O)cc1

>  <Name>  (155) 
nan

>  <Pocket>  (155) 
nan

>  <ATP_Site>  (155) 
nan

>  <Peripheral>  (155) 
nan

>  <Num_H_Atoms_ProtBoundConf>  (155) 
nan

>  <Num_Resolved_Atoms>  (155) 
nan

>  <Num_Not_Resolved_Atoms>  (155) 
nan

$$$$
CHEMBL1947250
     RDKit          3D

  0  0  0  0  0  0  0  0  0  0999 V3000
M  V30 BEGIN CTAB
M  V30 COUNTS 39 42 0 0 0
M  V30 BEGIN ATOM
M  V30 1 N 0.559699 -4.987437 2.611318 0
M  V30 2 C 1.288850 -3.773929 2.405994 0
M  V30 3 N 2.480479 -3.711826 2.911213 0
M  V30 4 C 3.085088 -2.479359 2.642111 0
M  V30 5 O 4.217134 -2.098407 2.980441 0
M  V30 6 C 2.114107 -1.714095 1.874223 0
M  V30 7 C 2.283967 -0.510920 1.351293 0
M  V30 8 C 3.524365 0.268599 1.454618 0
M  V30 9 C 4.238545 0.266653 0.086449 0
M  V30 10 N 3.508839 0.998689 -0.922270 0
M  V30 11 C 2.165369 1.076922 -1.382429 0
M  V30 12 O 1.845875 1.473388 -2.518391 0
M  V30 13 C 1.011100 0.689583 -0.542600 0
M  V30 14 N -0.291506 0.936429 -0.757549 0
M  V30 15 C -1.049941 0.432801 0.259083 0
M  V30 16 C -2.502633 0.534118 0.325262 0
M  V30 17 C -3.150999 1.180949 -0.706218 0
M  V30 18 C -4.526998 1.308264 -0.699044 0
M  V30 19 C -5.233838 0.774000 0.362117 0
M  V30 20 C -4.547463 0.134527 1.374223 0
M  V30 21 C -3.173060 -0.009418 1.396644 0
M  V30 22 C -0.229077 -0.186949 1.214111 0
M  V30 23 C 1.056078 -0.010522 0.681474 0
M  V30 24 N 1.006019 -2.554615 1.744925 0
M  V30 25 H 0.218021 -5.358022 3.535135 0
M  V30 26 H 0.215572 -5.737092 1.968907 0
M  V30 27 H 4.293438 -0.104788 2.137794 0
M  V30 28 H 3.354576 1.338873 1.761266 0
M  V30 29 H 4.311428 -0.825008 -0.160737 0
M  V30 30 H 5.266424 0.627630 0.207905 0
M  V30 31 H 4.123022 1.663442 -1.487799 0
M  V30 32 H -0.636666 1.446754 -1.599244 0
M  V30 33 H -2.669880 1.616684 -1.555621 0
M  V30 34 H -5.061931 1.811176 -1.495838 0
M  V30 35 H -6.312034 0.836927 0.432688 0
M  V30 36 H -5.112912 -0.285146 2.209497 0
M  V30 37 H -2.670988 -0.521134 2.214489 0
M  V30 38 H -0.500111 -0.656707 2.143892 0
M  V30 39 H 0.089007 -2.531840 1.286783 0
M  V30 END ATOM
M  V30 BEGIN BOND
M  V30 1 1 1 2
M  V30 2 2 2 3
M  V30 3 1 3 4
M  V30 4 2 4 5
M  V30 5 1 4 6
M  V30 6 2 6 7
M  V30 7 1 7 8
M  V30 8 1 8 9
M  V30 9 1 9 10
M  V30 10 1 10 11
M  V30 11 2 11 12
M  V30 12 1 11 13
M  V30 13 1 13 14
M  V30 14 1 14 15
M  V30 15 1 15 16
M  V30 16 2 16 17
M  V30 17 1 17 18
M  V30 18 2 18 19
M  V30 19 1 19 20
M  V30 20 2 20 21
M  V30 21 2 15 22
M  V30 22 1 22 23
M  V30 23 1 6 24
M  V30 24 1 24 2
M  V30 25 1 23 7
M  V30 26 2 23 13
M  V30 27 1 21 16
M  V30 28 1 1 25
M  V30 29 1 1 26
M  V30 30 1 8 27
M  V30 31 1 8 28
M  V30 32 1 9 29
M  V30 33 1 9 30
M  V30 34 1 10 31
M  V30 35 1 14 32
M  V30 36 1 17 33
M  V30 37 1 18 34
M  V30 38 1 19 35
M  V30 39 1 20 36
M  V30 40 1 21 37
M  V30 41 1 22 38
M  V30 42 1 24 39
M  V30 END BOND
M  V30 END CTAB
M  END
>  <Dataset>  (156) 
ChEMBL_Kinases

>  <Ligand_Instance>  (156) 
nan

>  <PDB_ID>  (156) 
nan

>  <Standardized_SMILES>  (156) 
NC1=NC(=O)/C(=C2\CCNC(=O)c3[nH]c(-c4ccccc4)cc32)N1

>  <Name>  (156) 
nan

>  <Pocket>  (156) 
nan

>  <ATP_Site>  (156) 
nan

>  <Peripheral>  (156) 
nan

>  <Num_H_Atoms_ProtBoundConf>  (156) 
nan

>  <Num_Resolved_Atoms>  (156) 
nan

>  <Num_Not_Resolved_Atoms>  (156) 
nan

$$$$
CHEMBL521851
     RDKit          3D

  0  0  0  0  0  0  0  0  0  0999 V3000
M  V30 BEGIN CTAB
M  V30 COUNTS 62 67 0 0 0
M  V30 BEGIN ATOM
M  V30 1 C 4.954951 -1.019006 5.971813 0
M  V30 2 S 3.373693 -0.374286 5.491041 0
M  V30 3 O 2.744603 0.327595 6.632037 0
M  V30 4 O 2.508448 -1.588976 5.186957 0
M  V30 5 N 3.477520 0.540125 4.072149 0
M  V30 6 C 3.913011 -0.124424 2.923535 0
M  V30 7 C 3.462840 0.410012 1.606619 0
M  V30 8 N 3.023433 1.775947 1.642427 0
M  V30 9 C 2.498508 2.213010 0.389357 0
M  V30 10 C 1.343571 1.411654 -0.020780 0
M  V30 11 C 0.021935 1.549438 0.210110 0
M  V30 12 C -0.867533 0.649260 -0.297024 0
M  V30 13 N -2.204783 0.595616 -0.189815 0
M  V30 14 C -2.914526 -0.364089 -0.753510 0
M  V30 15 C -4.355554 -0.239109 -0.514306 0
M  V30 16 C -4.896580 0.766220 0.245253 0
M  V30 17 C -6.241610 0.905850 0.482012 0
M  V30 18 C -7.129984 0.000546 -0.059840 0
M  V30 19 C -6.576959 -1.009365 -0.823999 0
M  V30 20 N -7.241789 -1.996382 -1.448174 0
M  V30 21 N -6.352093 -2.768783 -2.082353 0
M  V30 22 C -5.113619 -2.268856 -1.859367 0
M  V30 23 C -5.216276 -1.154579 -1.066305 0
M  V30 24 N -2.422890 -1.370312 -1.476507 0
M  V30 25 C -1.092510 -1.399242 -1.638084 0
M  V30 26 N -0.451480 -2.412411 -2.393130 0
M  V30 27 C -1.309130 -3.479765 -2.867157 0
M  V30 28 C -0.458919 -4.689437 -3.167880 0
M  V30 29 O 0.482956 -4.907779 -2.164018 0
M  V30 30 C 1.424040 -3.878873 -2.117893 0
M  V30 31 C 0.888096 -2.651316 -2.829383 0
M  V30 32 C -0.331626 -0.381030 -1.040936 0
M  V30 33 S 1.425814 -0.043587 -1.000454 0
M  V30 34 C 2.076913 2.031690 2.682645 0
M  V30 35 C 2.725876 1.719343 3.990215 0
M  V30 36 H 5.464348 -0.360494 6.708864 0
M  V30 37 H 4.815579 -1.994414 6.485214 0
M  V30 38 H 5.621861 -1.190266 5.100337 0
M  V30 39 H 3.661073 -1.206374 2.989901 0
M  V30 40 H 5.042670 -0.095654 2.917757 0
M  V30 41 H 4.265419 0.336117 0.843263 0
M  V30 42 H 2.628055 -0.235889 1.232762 0
M  V30 43 H 2.200560 3.263233 0.367121 0
M  V30 44 H 3.274482 2.116582 -0.426316 0
M  V30 45 H -0.282953 2.416455 0.820721 0
M  V30 46 H -4.238512 1.502807 0.692896 0
M  V30 47 H -6.595809 1.722200 1.090154 0
M  V30 48 H -8.188465 0.083439 0.107631 0
M  V30 49 H -8.269602 -2.170999 -1.464561 0
M  V30 50 H -4.203400 -2.682828 -2.245840 0
M  V30 51 H -2.082140 -3.750818 -2.115140 0
M  V30 52 H -1.806188 -3.138900 -3.789579 0
M  V30 53 H -1.129216 -5.593173 -3.123718 0
M  V30 54 H -0.057057 -4.669667 -4.181012 0
M  V30 55 H 1.642082 -3.722217 -1.054664 0
M  V30 56 H 2.351919 -4.247743 -2.600137 0
M  V30 57 H 1.602350 -1.843608 -2.707645 0
M  V30 58 H 0.924928 -2.919167 -3.926658 0
M  V30 59 H 1.796541 3.098728 2.668995 0
M  V30 60 H 1.214368 1.344609 2.570521 0
M  V30 61 H 3.416720 2.587021 4.206764 0
M  V30 62 H 1.960860 1.754079 4.800823 0
M  V30 END ATOM
M  V30 BEGIN BOND
M  V30 1 1 1 2
M  V30 2 2 2 3
M  V30 3 2 2 4
M  V30 4 1 2 5
M  V30 5 1 5 6
M  V30 6 1 6 7
M  V30 7 1 7 8
M  V30 8 1 8 9
M  V30 9 1 9 10
M  V30 10 2 10 11
M  V30 11 1 11 12
M  V30 12 2 12 13
M  V30 13 1 13 14
M  V30 14 1 14 15
M  V30 15 2 15 16
M  V30 16 1 16 17
M  V30 17 2 17 18
M  V30 18 1 18 19
M  V30 19 1 19 20
M  V30 20 1 20 21
M  V30 21 2 21 22
M  V30 22 1 22 23
M  V30 23 2 14 24
M  V30 24 1 24 25
M  V30 25 1 25 26
M  V30 26 1 26 27
M  V30 27 1 27 28
M  V30 28 1 28 29
M  V30 29 1 29 30
M  V30 30 1 30 31
M  V30 31 2 25 32
M  V30 32 1 32 33
M  V30 33 1 8 34
M  V30 34 1 34 35
M  V30 35 1 35 5
M  V30 36 1 33 10
M  V30 37 1 32 12
M  V30 38 1 23 15
M  V30 39 1 31 26
M  V30 40 2 23 19
M  V30 41 1 1 36
M  V30 42 1 1 37
M  V30 43 1 1 38
M  V30 44 1 6 39
M  V30 45 1 6 40
M  V30 46 1 7 41
M  V30 47 1 7 42
M  V30 48 1 9 43
M  V30 49 1 9 44
M  V30 50 1 11 45
M  V30 51 1 16 46
M  V30 52 1 17 47
M  V30 53 1 18 48
M  V30 54 1 20 49
M  V30 55 1 22 50
M  V30 56 1 27 51
M  V30 57 1 27 52
M  V30 58 1 28 53
M  V30 59 1 28 54
M  V30 60 1 30 55
M  V30 61 1 30 56
M  V30 62 1 31 57
M  V30 63 1 31 58
M  V30 64 1 34 59
M  V30 65 1 34 60
M  V30 66 1 35 61
M  V30 67 1 35 62
M  V30 END BOND
M  V30 END CTAB
M  END
>  <Dataset>  (157) 
ChEMBL_Kinases

>  <Ligand_Instance>  (157) 
nan

>  <PDB_ID>  (157) 
nan

>  <Standardized_SMILES>  (157) 
CS(=O)(=O)N1CCN(Cc2cc3nc(-c4cccc5[nH]ncc45)nc(N4CCOCC4)c3s2)CC1

>  <Name>  (157) 
PICTILISIB

>  <Pocket>  (157) 
nan

>  <ATP_Site>  (157) 
nan

>  <Peripheral>  (157) 
nan

>  <Num_H_Atoms_ProtBoundConf>  (157) 
nan

>  <Num_Resolved_Atoms>  (157) 
nan

>  <Num_Not_Resolved_Atoms>  (157) 
nan

$$$$
CHEMBL521806
     RDKit          3D

  0  0  0  0  0  0  0  0  0  0999 V3000
M  V30 BEGIN CTAB
M  V30 COUNTS 51 54 0 0 0
M  V30 BEGIN ATOM
M  V30 1 C 5.708123 -4.061838 4.585914 0
M  V30 2 O 4.416603 -3.435969 4.603076 0
M  V30 3 C 3.700811 -3.272566 3.399304 0
M  V30 4 C 4.248699 -3.716116 2.202890 0
M  V30 5 C 3.443896 -3.493727 1.077082 0
M  V30 6 N 3.710354 -3.810757 -0.203454 0
M  V30 7 C 2.674615 -3.422108 -0.978620 0
M  V30 8 N 1.795826 -2.873606 -0.141818 0
M  V30 9 C 0.480535 -2.269652 -0.408921 0
M  V30 10 C 0.013566 -1.064311 -0.178351 0
M  V30 11 C -1.242565 -0.724809 -0.510060 0
M  V30 12 O -1.759993 0.440688 -0.306043 0
M  V30 13 C -2.656846 1.403190 -0.317465 0 CFG=1
M  V30 14 C -3.172355 1.830559 1.060437 0
M  V30 15 C -2.277512 2.634197 -1.106153 0
M  V30 16 C -0.942155 2.998359 -0.999361 0
M  V30 17 C -0.409224 4.093506 -1.649976 0
M  V30 18 C -1.279261 4.828806 -2.430350 0
M  V30 19 C -2.611853 4.476261 -2.544568 0
M  V30 20 C -3.132749 3.381618 -1.890474 0
M  V30 21 Cl -4.798094 2.857071 -1.969436 0
M  V30 22 C -2.002150 -1.735135 -1.109897 0
M  V30 23 C -3.321200 -2.016151 -1.675524 0
M  V30 24 N -4.499553 -1.273471 -1.883400 0
M  V30 25 O -3.714785 -3.095679 -2.143792 0
M  V30 26 S -0.797632 -3.185251 -1.160274 0
M  V30 27 C 2.206440 -2.885023 1.138710 0
M  V30 28 C 1.741863 -2.477739 2.368772 0
M  V30 29 C 2.472136 -2.659787 3.524113 0
M  V30 30 O 2.001680 -2.252345 4.740093 0
M  V30 31 C 0.738942 -1.618370 4.899851 0
M  V30 32 H 6.220011 -3.807270 5.539527 0
M  V30 33 H 5.634721 -5.172649 4.576655 0
M  V30 34 H 6.341044 -3.686401 3.750811 0
M  V30 35 H 5.196975 -4.185448 2.127917 0
M  V30 36 H 2.509329 -3.501502 -2.063842 0
M  V30 37 H 0.725286 -0.386413 0.295289 0
M  V30 38 H -3.609270 1.078108 -0.833566 0
M  V30 39 H -2.330882 1.714255 1.764913 0
M  V30 40 H -3.533076 2.859641 1.077801 0
M  V30 41 H -4.010494 1.173648 1.380428 0
M  V30 42 H -0.243125 2.437350 -0.395808 0
M  V30 43 H 0.617551 4.387760 -1.576795 0
M  V30 44 H -0.986581 5.701382 -2.986832 0
M  V30 45 H -3.302007 5.062764 -3.161185 0
M  V30 46 H -5.323178 -1.235724 -1.226167 0
M  V30 47 H -4.487046 -0.738308 -2.779251 0
M  V30 48 H 0.766191 -1.999725 2.405305 0
M  V30 49 H -0.037354 -2.400351 4.695665 0
M  V30 50 H 0.689933 -1.247924 5.944717 0
M  V30 51 H 0.673510 -0.779746 4.196773 0
M  V30 END ATOM
M  V30 BEGIN BOND
M  V30 1 1 1 2
M  V30 2 1 2 3
M  V30 3 2 3 4
M  V30 4 1 4 5
M  V30 5 1 5 6
M  V30 6 2 6 7
M  V30 7 1 7 8
M  V30 8 1 8 9
M  V30 9 2 9 10
M  V30 10 1 10 11
M  V30 11 1 11 12
M  V30 12 1 12 13
M  V30 13 1 13 14
M  V30 14 1 13 15
M  V30 15 2 15 16
M  V30 16 1 16 17
M  V30 17 2 17 18
M  V30 18 1 18 19
M  V30 19 2 19 20
M  V30 20 1 20 21
M  V30 21 2 11 22
M  V30 22 1 22 23
M  V30 23 1 23 24
M  V30 24 2 23 25
M  V30 25 1 22 26
M  V30 26 1 8 27
M  V30 27 1 27 28
M  V30 28 2 28 29
M  V30 29 1 29 30
M  V30 30 1 30 31
M  V30 31 1 29 3
M  V30 32 2 27 5
M  V30 33 1 26 9
M  V30 34 1 20 15
M  V30 35 1 1 32
M  V30 36 1 1 33
M  V30 37 1 1 34
M  V30 38 1 4 35
M  V30 39 1 7 36
M  V30 40 1 10 37
M  V30 41 1 13 38 CFG=3
M  V30 42 1 14 39
M  V30 43 1 14 40
M  V30 44 1 14 41
M  V30 45 1 16 42
M  V30 46 1 17 43
M  V30 47 1 18 44
M  V30 48 1 19 45
M  V30 49 1 24 46
M  V30 50 1 24 47
M  V30 51 1 28 48
M  V30 52 1 31 49
M  V30 53 1 31 50
M  V30 54 1 31 51
M  V30 END BOND
M  V30 END CTAB
M  END
>  <Dataset>  (158) 
ChEMBL_Kinases

>  <Ligand_Instance>  (158) 
nan

>  <PDB_ID>  (158) 
nan

>  <Standardized_SMILES>  (158) 
COc1cc2ncn(-c3cc(O[C@@H](C)c4ccccc4Cl)c(C(N)=O)s3)c2cc1OC

>  <Name>  (158) 
GSK-237700A

>  <Pocket>  (158) 
nan

>  <ATP_Site>  (158) 
nan

>  <Peripheral>  (158) 
nan

>  <Num_H_Atoms_ProtBoundConf>  (158) 
nan

>  <Num_Resolved_Atoms>  (158) 
nan

>  <Num_Not_Resolved_Atoms>  (158) 
nan

$$$$
CHEMBL194721
     RDKit          3D

  0  0  0  0  0  0  0  0  0  0999 V3000
M  V30 BEGIN CTAB
M  V30 COUNTS 40 43 0 0 0
M  V30 BEGIN ATOM
M  V30 1 F 4.912015 -2.783987 2.909816 0
M  V30 2 C 3.560590 -3.058969 2.814180 0
M  V30 3 F 2.962447 -2.710022 4.012999 0
M  V30 4 F 3.342853 -4.374276 2.535583 0
M  V30 5 C 3.002070 -2.179679 1.759739 0
M  V30 6 C 3.750650 -1.272254 1.040865 0
M  V30 7 N 3.193474 -0.506420 0.102840 0
M  V30 8 C 1.861132 -0.580534 -0.192730 0
M  V30 9 N 1.195862 0.203364 -1.178905 0
M  V30 10 C 0.570510 1.474179 -0.991581 0
M  V30 11 C -0.015752 2.057250 -2.097209 0
M  V30 12 C -0.622026 3.285028 -1.922009 0
M  V30 13 C -0.627612 3.884365 -0.679452 0
M  V30 14 N -1.143616 5.066425 -0.240646 0
M  V30 15 C -0.866995 5.171883 1.084453 0
M  V30 16 N -0.193351 4.068143 1.439230 0
M  V30 17 C -0.025809 3.250104 0.380037 0
M  V30 18 C 0.607980 2.006297 0.280609 0
M  V30 19 N 1.084814 -1.450325 0.479935 0
M  V30 20 C 1.648996 -2.230161 1.434257 0
M  V30 21 N 0.796454 -3.142791 2.129602 0
M  V30 22 C -0.594842 -3.238022 1.841431 0
M  V30 23 C -1.614812 -3.011528 2.728156 0
M  V30 24 C -2.933957 -3.135284 2.329632 0
M  V30 25 C -3.245356 -3.490948 1.024888 0
M  V30 26 C -2.204538 -3.718618 0.132839 0
M  V30 27 C -0.876737 -3.592168 0.540913 0
M  V30 28 Cl 0.248830 -3.927644 -0.754966 0
M  V30 29 H 4.799876 -1.192354 1.251486 0
M  V30 30 H 1.223723 -0.289883 -2.098676 0
M  V30 31 H 0.010409 1.555178 -3.052761 0
M  V30 32 H -1.088175 3.763711 -2.769395 0
M  V30 33 H -1.645836 5.708208 -0.887676 0
M  V30 34 H -1.187767 6.042932 1.644640 0
M  V30 35 H 1.070496 1.525560 1.108820 0
M  V30 36 H 1.143004 -3.774469 2.870355 0
M  V30 37 H -1.337733 -2.740591 3.720350 0
M  V30 38 H -3.709674 -2.947923 3.060094 0
M  V30 39 H -4.298074 -3.572139 0.772116 0
M  V30 40 H -2.550046 -3.990083 -0.858029 0
M  V30 END ATOM
M  V30 BEGIN BOND
M  V30 1 1 1 2
M  V30 2 1 2 3
M  V30 3 1 2 4
M  V30 4 1 2 5
M  V30 5 2 5 6
M  V30 6 1 6 7
M  V30 7 2 7 8
M  V30 8 1 8 9
M  V30 9 1 9 10
M  V30 10 2 10 11
M  V30 11 1 11 12
M  V30 12 2 12 13
M  V30 13 1 13 14
M  V30 14 1 14 15
M  V30 15 2 15 16
M  V30 16 1 16 17
M  V30 17 2 17 18
M  V30 18 1 8 19
M  V30 19 2 19 20
M  V30 20 1 20 21
M  V30 21 1 21 22
M  V30 22 2 22 23
M  V30 23 1 23 24
M  V30 24 2 24 25
M  V30 25 1 25 26
M  V30 26 2 26 27
M  V30 27 1 27 28
M  V30 28 1 20 5
M  V30 29 1 27 22
M  V30 30 1 18 10
M  V30 31 1 17 13
M  V30 32 1 6 29
M  V30 33 1 9 30
M  V30 34 1 11 31
M  V30 35 1 12 32
M  V30 36 1 14 33
M  V30 37 1 15 34
M  V30 38 1 18 35
M  V30 39 1 21 36
M  V30 40 1 23 37
M  V30 41 1 24 38
M  V30 42 1 25 39
M  V30 43 1 26 40
M  V30 END BOND
M  V30 END CTAB
M  END
>  <Dataset>  (159) 
ChEMBL_Kinases

>  <Ligand_Instance>  (159) 
nan

>  <PDB_ID>  (159) 
nan

>  <Standardized_SMILES>  (159) 
FC(F)(F)c1cnc(Nc2ccc3[nH]cnc3c2)nc1Nc1ccccc1Cl

>  <Name>  (159) 
nan

>  <Pocket>  (159) 
nan

>  <ATP_Site>  (159) 
nan

>  <Peripheral>  (159) 
nan

>  <Num_H_Atoms_ProtBoundConf>  (159) 
nan

>  <Num_Resolved_Atoms>  (159) 
nan

>  <Num_Not_Resolved_Atoms>  (159) 
nan

$$$$
CHEMBL4749973
     RDKit          3D

  0  0  0  0  0  0  0  0  0  0999 V3000
M  V30 BEGIN CTAB
M  V30 COUNTS 38 41 0 0 0
M  V30 BEGIN ATOM
M  V30 1 O -2.039041 -1.499892 3.849111 0
M  V30 2 C -1.045190 -1.151455 3.174802 0
M  V30 3 C 0.141983 -1.705511 3.598859 0
M  V30 4 C 1.303205 -1.386397 2.923170 0
M  V30 5 C 1.169915 -0.526180 1.864842 0
M  V30 6 C 2.321733 -0.113117 1.069262 0
M  V30 7 C 3.324121 -1.063500 0.954052 0
M  V30 8 C 4.477839 -0.784300 0.214922 0
M  V30 9 C 4.549083 0.475273 -0.379575 0
M  V30 10 C 5.570384 1.013375 -1.162588 0
M  V30 11 N 5.142270 2.268352 -1.488558 0
M  V30 12 N 3.952197 2.502877 -0.956847 0
M  V30 13 C 3.543372 1.415209 -0.257926 0
M  V30 14 C 2.410094 1.124004 0.475656 0
M  V30 15 C -0.046290 0.011523 1.468187 0
M  V30 16 N -1.167489 -0.299260 2.123896 0
M  V30 17 C -2.471473 0.225943 1.758276 0
M  V30 18 C -3.072906 -0.705679 0.769171 0
M  V30 19 C -2.822308 -0.479127 -0.587745 0
M  V30 20 C -3.286800 -1.227582 -1.643026 0
M  V30 21 C -4.081878 -2.313613 -1.330505 0
M  V30 22 C -4.362058 -2.584657 -0.007410 0
M  V30 23 Cl -5.371528 -3.964274 0.396905 0
M  V30 24 C -3.869421 -1.797676 1.038777 0
M  V30 25 H 0.214024 -2.379542 4.435504 0
M  V30 26 H 2.276791 -1.773501 3.186032 0
M  V30 27 H 3.294772 -2.041890 1.402017 0
M  V30 28 H 5.278865 -1.508572 0.107064 0
M  V30 29 H 6.488294 0.504728 -1.427975 0
M  V30 30 H 3.398731 3.388848 -1.052840 0
M  V30 31 H 1.609768 1.841953 0.585635 0
M  V30 32 H -0.156693 0.687817 0.637343 0
M  V30 33 H -3.101507 0.316566 2.665241 0
M  V30 34 H -2.330771 1.210062 1.252871 0
M  V30 35 H -2.192320 0.379193 -0.860035 0
M  V30 36 H -3.041333 -0.976094 -2.651459 0
M  V30 37 H -4.457769 -2.915817 -2.144995 0
M  V30 38 H -4.075948 -1.989223 2.082067 0
M  V30 END ATOM
M  V30 BEGIN BOND
M  V30 1 2 1 2
M  V30 2 1 2 3
M  V30 3 2 3 4
M  V30 4 1 4 5
M  V30 5 1 5 6
M  V30 6 2 6 7
M  V30 7 1 7 8
M  V30 8 2 8 9
M  V30 9 1 9 10
M  V30 10 2 10 11
M  V30 11 1 11 12
M  V30 12 1 12 13
M  V30 13 2 13 14
M  V30 14 2 5 15
M  V30 15 1 15 16
M  V30 16 1 16 17
M  V30 17 1 17 18
M  V30 18 2 18 19
M  V30 19 1 19 20
M  V30 20 2 20 21
M  V30 21 1 21 22
M  V30 22 1 22 23
M  V30 23 2 22 24
M  V30 24 1 16 2
M  V30 25 1 24 18
M  V30 26 1 14 6
M  V30 27 1 13 9
M  V30 28 1 3 25
M  V30 29 1 4 26
M  V30 30 1 7 27
M  V30 31 1 8 28
M  V30 32 1 10 29
M  V30 33 1 12 30
M  V30 34 1 14 31
M  V30 35 1 15 32
M  V30 36 1 17 33
M  V30 37 1 17 34
M  V30 38 1 19 35
M  V30 39 1 20 36
M  V30 40 1 21 37
M  V30 41 1 24 38
M  V30 END BOND
M  V30 END CTAB
M  END
>  <Dataset>  (160) 
ChEMBL_Kinases

>  <Ligand_Instance>  (160) 
nan

>  <PDB_ID>  (160) 
nan

>  <Standardized_SMILES>  (160) 
O=c1ccc(-c2ccc3cn[nH]c3c2)cn1Cc1cccc(Cl)c1

>  <Name>  (160) 
nan

>  <Pocket>  (160) 
nan

>  <ATP_Site>  (160) 
nan

>  <Peripheral>  (160) 
nan

>  <Num_H_Atoms_ProtBoundConf>  (160) 
nan

>  <Num_Resolved_Atoms>  (160) 
nan

>  <Num_Not_Resolved_Atoms>  (160) 
nan

$$$$
CHEMBL521642
     RDKit          3D

  0  0  0  0  0  0  0  0  0  0999 V3000
M  V30 BEGIN CTAB
M  V30 COUNTS 58 61 0 0 0
M  V30 BEGIN ATOM
M  V30 1 C 2.009903 -1.824220 -1.884437 0
M  V30 2 C 2.066062 -0.568442 -1.034086 0
M  V30 3 N 1.581144 -0.767703 0.303177 0
M  V30 4 C 2.288372 -1.142471 1.387778 0
M  V30 5 C 3.713763 -1.434791 1.458635 0
M  V30 6 N 4.636034 -1.403174 0.494896 0
M  V30 7 O 5.776536 -1.734976 0.998145 0
M  V30 8 N 5.662914 -1.991247 2.269768 0
M  V30 9 C 4.374625 -1.814196 2.604959 0
M  V30 10 N 3.863075 -2.003800 3.924625 0
M  V30 11 N 1.443377 -1.206961 2.432126 0
M  V30 12 C 0.217786 -0.884894 2.048177 0
M  V30 13 C -1.021199 -0.776108 2.648954 0
M  V30 14 C -1.154073 -1.058734 4.055348 0
M  V30 15 C -1.251492 -1.282029 5.242021 0
M  V30 16 C -1.348825 -1.539361 6.686194 0
M  V30 17 C -1.161043 -0.255209 7.446941 0
M  V30 18 C -0.318592 -2.532231 7.163306 0
M  V30 19 O -2.605291 -2.099761 6.907960 0
M  V30 20 N -2.147206 -0.413844 1.990942 0
M  V30 21 C -2.100376 -0.130808 0.655880 0
M  V30 22 C -0.869301 -0.234845 0.040742 0
M  V30 23 O -0.863948 0.058908 -1.307649 0
M  V30 24 C -1.971731 0.440227 -2.070072 0
M  V30 25 C -1.621680 0.687589 -3.522347 0 CFG=2
M  V30 26 C -2.834231 1.097562 -4.326142 0
M  V30 27 C -2.535765 0.837254 -5.780591 0
M  V30 28 C -1.057707 0.900147 -6.108727 0
M  V30 29 N -0.298389 -0.061458 -5.342249 0
M  V30 30 C -1.027552 -0.522204 -4.175546 0
M  V30 31 C 0.286469 -0.598787 0.679976 0
M  V30 32 H 2.366670 -1.547440 -2.882192 0
M  V30 33 H 2.620728 -2.642298 -1.416608 0
M  V30 34 H 0.973609 -2.185046 -1.857521 0
M  V30 35 H 3.136816 -0.286577 -0.978331 0
M  V30 36 H 1.458047 0.193598 -1.563091 0
M  V30 37 H 3.621452 -1.260474 4.641769 0
M  V30 38 H 3.723733 -2.993948 4.178263 0
M  V30 39 H -0.363323 -0.352674 8.213306 0
M  V30 40 H -0.846857 0.584307 6.770419 0
M  V30 41 H -2.138788 0.050984 7.877090 0
M  V30 42 H -0.674591 -3.582417 7.007996 0
M  V30 43 H -0.203198 -2.422423 8.250883 0
M  V30 44 H 0.675975 -2.392422 6.702304 0
M  V30 45 H -2.560242 -3.055775 7.077481 0
M  V30 46 H -3.005221 0.162921 0.115350 0
M  V30 47 H -2.487831 1.340909 -1.703977 0
M  V30 48 H -2.711812 -0.388724 -2.044463 0
M  V30 49 H -0.896052 1.536267 -3.509779 0
M  V30 50 H -3.128488 2.148965 -4.135003 0
M  V30 51 H -3.676754 0.418804 -4.038088 0
M  V30 52 H -2.944893 -0.135324 -6.118192 0
M  V30 53 H -3.032497 1.631017 -6.371423 0
M  V30 54 H -0.967588 0.621769 -7.177975 0
M  V30 55 H -0.666656 1.937042 -6.043989 0
M  V30 56 H -0.027307 -0.861537 -5.933827 0
M  V30 57 H -0.380684 -1.111374 -3.522357 0
M  V30 58 H -1.851295 -1.185417 -4.539483 0
M  V30 END ATOM
M  V30 BEGIN BOND
M  V30 1 1 1 2
M  V30 2 1 2 3
M  V30 3 1 3 4
M  V30 4 1 4 5
M  V30 5 2 5 6
M  V30 6 1 6 7
M  V30 7 1 7 8
M  V30 8 2 8 9
M  V30 9 1 9 10
M  V30 10 2 4 11
M  V30 11 1 11 12
M  V30 12 2 12 13
M  V30 13 1 13 14
M  V30 14 3 14 15
M  V30 15 1 15 16
M  V30 16 1 16 17
M  V30 17 1 16 18
M  V30 18 1 16 19
M  V30 19 1 13 20
M  V30 20 2 20 21
M  V30 21 1 21 22
M  V30 22 1 22 23
M  V30 23 1 23 24
M  V30 24 1 24 25
M  V30 25 1 25 26
M  V30 26 1 26 27
M  V30 27 1 27 28
M  V30 28 1 28 29
M  V30 29 1 29 30
M  V30 30 2 22 31
M  V30 31 1 31 3
M  V30 32 1 9 5
M  V30 33 1 31 12
M  V30 34 1 30 25
M  V30 35 1 1 32
M  V30 36 1 1 33
M  V30 37 1 1 34
M  V30 38 1 2 35
M  V30 39 1 2 36
M  V30 40 1 10 37
M  V30 41 1 10 38
M  V30 42 1 17 39
M  V30 43 1 17 40
M  V30 44 1 17 41
M  V30 45 1 18 42
M  V30 46 1 18 43
M  V30 47 1 18 44
M  V30 48 1 19 45
M  V30 49 1 21 46
M  V30 50 1 24 47
M  V30 51 1 24 48
M  V30 52 1 25 49 CFG=1
M  V30 53 1 26 50
M  V30 54 1 26 51
M  V30 55 1 27 52
M  V30 56 1 27 53
M  V30 57 1 28 54
M  V30 58 1 28 55
M  V30 59 1 29 56
M  V30 60 1 30 57
M  V30 61 1 30 58
M  V30 END BOND
M  V30 END CTAB
M  END
>  <Dataset>  (161) 
ChEMBL_Kinases

>  <Ligand_Instance>  (161) 
nan

>  <PDB_ID>  (161) 
nan

>  <Standardized_SMILES>  (161) 
CCn1c(-c2nonc2N)nc2c(C#CC(C)(C)O)ncc(OC[C@@H]3CCCNC3)c21

>  <Name>  (161) 
nan

>  <Pocket>  (161) 
nan

>  <ATP_Site>  (161) 
nan

>  <Peripheral>  (161) 
nan

>  <Num_H_Atoms_ProtBoundConf>  (161) 
nan

>  <Num_Resolved_Atoms>  (161) 
nan

>  <Num_Not_Resolved_Atoms>  (161) 
nan

$$$$
CHEMBL521179
     RDKit          3D

  0  0  0  0  0  0  0  0  0  0999 V3000
M  V30 BEGIN CTAB
M  V30 COUNTS 54 57 0 0 0
M  V30 BEGIN ATOM
M  V30 1 C 5.244939 1.046320 0.244521 0
M  V30 2 N 4.464985 0.330186 1.255369 0
M  V30 3 C 4.889118 -1.071816 1.127124 0
M  V30 4 C 3.070224 0.367222 0.820979 0
M  V30 5 C 2.167855 -0.337745 1.780057 0
M  V30 6 O 0.846085 -0.292953 1.355821 0
M  V30 7 C 0.036669 0.786847 1.183055 0
M  V30 8 C 0.096992 2.150564 1.330815 0
M  V30 9 C -0.939699 3.003712 1.061803 0
M  V30 10 C -0.660013 4.417136 1.287208 0
M  V30 11 C 0.176824 4.985077 2.226710 0
M  V30 12 N 0.154564 6.339845 2.103173 0
M  V30 13 N -0.678765 6.642646 1.105134 0
M  V30 14 C -1.183957 5.505318 0.595148 0
M  V30 15 C -2.141539 2.501725 0.611261 0
M  V30 16 C -2.273098 1.118697 0.438485 0
M  V30 17 C -1.197805 0.294694 0.722810 0
M  V30 18 N -1.594542 -1.069044 0.462432 0
M  V30 19 C -1.449598 -1.739552 -0.778835 0
M  V30 20 O -0.930332 -1.087775 -1.730268 0
M  V30 21 C -1.891817 -3.145294 -0.942492 0
M  V30 22 C -0.803423 -4.018463 -1.512033 0
M  V30 23 O -1.069860 -5.393894 -1.318159 0
M  V30 24 C -2.185495 -5.765191 -0.585755 0
M  V30 25 C -2.511769 -7.115843 -0.750913 0
M  V30 26 C -3.615226 -7.638499 -0.073950 0
M  V30 27 C -4.364639 -6.811918 0.746663 0
M  V30 28 C -4.034438 -5.472363 0.905460 0
M  V30 29 C -2.941253 -4.955308 0.234596 0
M  V30 30 O -2.444078 -3.665319 0.251681 0
M  V30 31 H 4.965521 2.101630 0.178342 0
M  V30 32 H 6.319993 0.896202 0.501054 0
M  V30 33 H 5.076384 0.529022 -0.734011 0
M  V30 34 H 4.349213 -1.503738 0.255463 0
M  V30 35 H 4.554733 -1.618919 2.027984 0
M  V30 36 H 5.966183 -1.106600 0.936496 0
M  V30 37 H 2.965475 -0.169726 -0.167619 0
M  V30 38 H 2.757273 1.387934 0.623705 0
M  V30 39 H 2.290922 0.071466 2.821197 0
M  V30 40 H 2.482764 -1.423122 1.784078 0
M  V30 41 H 1.050113 2.465721 1.696827 0
M  V30 42 H 0.756098 4.421022 2.945810 0
M  V30 43 H -0.915334 7.610203 0.758510 0
M  V30 44 H -1.892404 5.427598 -0.229123 0
M  V30 45 H -2.890615 3.252407 0.429344 0
M  V30 46 H -3.249357 0.866729 0.087186 0
M  V30 47 H -2.016208 -1.542979 1.301098 0
M  V30 48 H -2.705419 -3.102531 -1.719444 0
M  V30 49 H 0.137090 -3.802462 -0.934110 0
M  V30 50 H -0.673681 -3.763696 -2.585323 0
M  V30 51 H -1.986435 -7.831510 -1.367919 0
M  V30 52 H -3.902311 -8.683701 -0.175750 0
M  V30 53 H -5.233978 -7.163206 1.298546 0
M  V30 54 H -4.551968 -4.750205 1.518462 0
M  V30 END ATOM
M  V30 BEGIN BOND
M  V30 1 1 1 2
M  V30 2 1 2 3
M  V30 3 1 2 4
M  V30 4 1 4 5
M  V30 5 1 5 6
M  V30 6 1 6 7
M  V30 7 2 7 8
M  V30 8 1 8 9
M  V30 9 1 9 10
M  V30 10 1 10 11
M  V30 11 2 11 12
M  V30 12 1 12 13
M  V30 13 1 13 14
M  V30 14 2 9 15
M  V30 15 1 15 16
M  V30 16 2 16 17
M  V30 17 1 17 18
M  V30 18 1 18 19
M  V30 19 2 19 20
M  V30 20 1 19 21
M  V30 21 1 21 22
M  V30 22 1 22 23
M  V30 23 1 23 24
M  V30 24 2 24 25
M  V30 25 1 25 26
M  V30 26 2 26 27
M  V30 27 1 27 28
M  V30 28 2 28 29
M  V30 29 1 29 30
M  V30 30 1 17 7
M  V30 31 1 30 21
M  V30 32 2 14 10
M  V30 33 1 29 24
M  V30 34 1 1 31
M  V30 35 1 1 32
M  V30 36 1 1 33
M  V30 37 1 3 34
M  V30 38 1 3 35
M  V30 39 1 3 36
M  V30 40 1 4 37
M  V30 41 1 4 38
M  V30 42 1 5 39
M  V30 43 1 5 40
M  V30 44 1 8 41
M  V30 45 1 11 42
M  V30 46 1 13 43
M  V30 47 1 14 44
M  V30 48 1 15 45
M  V30 49 1 16 46
M  V30 50 1 18 47
M  V30 51 1 21 48
M  V30 52 1 22 49
M  V30 53 1 22 50
M  V30 54 1 25 51
M  V30 55 1 26 52
M  V30 56 1 27 53
M  V30 57 1 28 54
M  V30 END BOND
M  V30 END CTAB
M  END
>  <Dataset>  (162) 
ChEMBL_Kinases

>  <Ligand_Instance>  (162) 
nan

>  <PDB_ID>  (162) 
nan

>  <Standardized_SMILES>  (162) 
CN(C)CCOc1cc(-c2cn[nH]c2)ccc1NC(=O)C1COc2ccccc2O1

>  <Name>  (162) 
SR-3677

>  <Pocket>  (162) 
nan

>  <ATP_Site>  (162) 
nan

>  <Peripheral>  (162) 
nan

>  <Num_H_Atoms_ProtBoundConf>  (162) 
nan

>  <Num_Resolved_Atoms>  (162) 
nan

>  <Num_Not_Resolved_Atoms>  (162) 
nan

$$$$
CHEMBL4750046
     RDKit          3D

  0  0  0  0  0  0  0  0  0  0999 V3000
M  V30 BEGIN CTAB
M  V30 COUNTS 43 45 0 0 0
M  V30 BEGIN ATOM
M  V30 1 C 1.070103 -3.647808 3.901766 0
M  V30 2 C 0.574953 -2.569533 3.002661 0
M  V30 3 C 1.093707 -1.295430 2.790580 0
M  V30 4 N 0.330381 -0.636404 1.886159 0
M  V30 5 C 0.550015 0.724461 1.401998 0 CFG=2
M  V30 6 C -0.747715 1.376997 0.990022 0
M  V30 7 C 1.477065 0.768705 0.231003 0 CFG=1
M  V30 8 C 1.623339 2.197763 -0.171470 0
M  V30 9 C 2.867566 2.561524 -0.899594 0
M  V30 10 N 4.027342 1.789873 -0.538607 0
M  V30 11 C 3.676940 0.374136 -0.724299 0
M  V30 12 C 2.791497 0.063211 0.469669 0 CFG=2
M  V30 13 F 2.577777 -1.290851 0.511022 0
M  V30 14 C -0.678353 -1.471450 1.509995 0
M  V30 15 N -1.668486 -1.230399 0.631513 0
M  V30 16 C -2.594006 -2.172172 0.370682 0
M  V30 17 C -3.725808 -2.081638 -0.544648 0
M  V30 18 N -3.794247 -0.809869 -1.207812 0
M  V30 19 O -4.580037 -2.958413 -0.781846 0
M  V30 20 C -2.510402 -3.402480 1.025760 0
M  V30 21 C -1.482939 -3.619070 1.921258 0
M  V30 22 Cl -1.311645 -5.151473 2.788968 0
M  V30 23 C -0.533341 -2.651339 2.188173 0
M  V30 24 H 2.036932 -3.337795 4.338162 0
M  V30 25 H 0.346605 -3.668177 4.758004 0
M  V30 26 H 1.109390 -4.625107 3.392105 0
M  V30 27 H 1.986260 -0.929610 3.302531 0
M  V30 28 H 0.991792 1.364161 2.205120 0
M  V30 29 H -0.579370 2.478633 0.972422 0
M  V30 30 H -1.567004 1.193141 1.687311 0
M  V30 31 H -1.001062 1.100574 -0.069859 0
M  V30 32 H 0.973603 0.215972 -0.602568 0
M  V30 33 H 0.757894 2.447924 -0.838188 0
M  V30 34 H 1.472433 2.855539 0.720893 0
M  V30 35 H 3.114356 3.619712 -0.671918 0
M  V30 36 H 2.753190 2.505167 -2.003278 0
M  V30 37 H 4.273860 1.921417 0.478816 0
M  V30 38 H 4.577926 -0.268405 -0.755446 0
M  V30 39 H 3.092808 0.336465 -1.665498 0
M  V30 40 H 3.323082 0.468850 1.347247 0
M  V30 41 H -3.507623 -0.921778 -2.211463 0
M  V30 42 H -4.009801 0.203108 -1.126482 0
M  V30 43 H -3.204011 -4.207513 0.877927 0
M  V30 END ATOM
M  V30 BEGIN BOND
M  V30 1 1 1 2
M  V30 2 2 2 3
M  V30 3 1 3 4
M  V30 4 1 4 5
M  V30 5 1 5 6
M  V30 6 1 5 7
M  V30 7 1 7 8
M  V30 8 1 8 9
M  V30 9 1 9 10
M  V30 10 1 10 11
M  V30 11 1 11 12
M  V30 12 1 12 13
M  V30 13 1 4 14
M  V30 14 2 14 15
M  V30 15 1 15 16
M  V30 16 1 16 17
M  V30 17 1 17 18
M  V30 18 2 17 19
M  V30 19 2 16 20
M  V30 20 1 20 21
M  V30 21 1 21 22
M  V30 22 2 21 23
M  V30 23 1 23 2
M  V30 24 1 12 7
M  V30 25 1 23 14
M  V30 26 1 1 24
M  V30 27 1 1 25
M  V30 28 1 1 26
M  V30 29 1 3 27
M  V30 30 1 5 28 CFG=1
M  V30 31 1 6 29
M  V30 32 1 6 30
M  V30 33 1 6 31
M  V30 34 1 7 32 CFG=3
M  V30 35 1 8 33
M  V30 36 1 8 34
M  V30 37 1 9 35
M  V30 38 1 9 36
M  V30 39 1 10 37
M  V30 40 1 11 38
M  V30 41 1 11 39
M  V30 42 1 12 40 CFG=1
M  V30 43 1 18 41
M  V30 44 1 18 42
M  V30 45 1 20 43
M  V30 END BOND
M  V30 END CTAB
M  END
>  <Dataset>  (163) 
ChEMBL_Kinases

>  <Ligand_Instance>  (163) 
nan

>  <PDB_ID>  (163) 
nan

>  <Standardized_SMILES>  (163) 
Cc1cn([C@H](C)[C@H]2CCNC[C@@H]2F)c2nc(C(N)=O)cc(Cl)c12

>  <Name>  (163) 
nan

>  <Pocket>  (163) 
nan

>  <ATP_Site>  (163) 
nan

>  <Peripheral>  (163) 
nan

>  <Num_H_Atoms_ProtBoundConf>  (163) 
nan

>  <Num_Resolved_Atoms>  (163) 
nan

>  <Num_Not_Resolved_Atoms>  (163) 
nan

$$$$
CHEMBL4750923
     RDKit          3D

  0  0  0  0  0  0  0  0  0  0999 V3000
M  V30 BEGIN CTAB
M  V30 COUNTS 45 50 0 0 0
M  V30 BEGIN ATOM
M  V30 1 C -1.565134 -5.288337 -0.568424 0
M  V30 2 C -0.498637 -4.665261 -1.182717 0
M  V30 3 C 0.387947 -3.891627 -0.424470 0
M  V30 4 C 1.448059 -3.316043 -1.227870 0
M  V30 5 C 2.123316 -4.122011 -2.118855 0
M  V30 6 C 3.123760 -3.512600 -2.845774 0
M  V30 7 N 3.449207 -2.213135 -2.720304 0
M  V30 8 C 2.807978 -1.399650 -1.858643 0
M  V30 9 N 2.866963 -0.107707 -1.491194 0
M  V30 10 C 1.962420 0.216905 -0.548176 0
M  V30 11 C 1.887522 1.565889 -0.037792 0
M  V30 12 N 2.673947 2.579911 -0.433349 0
M  V30 13 N 2.384757 3.701204 0.200676 0
M  V30 14 C 1.386342 3.495079 1.056454 0
M  V30 15 C 0.737554 4.334594 1.930152 0
M  V30 16 C -0.277523 3.791776 2.690352 0
M  V30 17 C -0.621247 2.464357 2.573986 0
M  V30 18 C -1.697904 1.860384 3.370725 0
M  V30 19 C -2.403158 0.810317 2.772314 0
M  V30 20 N -3.426682 0.157314 3.395125 0
M  V30 21 C -3.773232 0.547816 4.653293 0
M  V30 22 N -3.102984 1.555435 5.238719 0
M  V30 23 C -2.090433 2.209936 4.637016 0
M  V30 24 C 0.066832 1.678124 1.681429 0
M  V30 25 C 1.086219 2.164758 0.898871 0
M  V30 26 C 1.313741 -0.966926 -0.334600 0
M  V30 27 C 1.803319 -1.987889 -1.120722 0
M  V30 28 C 0.135737 -3.797711 0.919152 0
M  V30 29 C -0.921680 -4.418450 1.513427 0
M  V30 30 N -1.758470 -5.154912 0.766198 0
M  V30 31 H -2.323205 -5.909292 -1.014905 0
M  V30 32 H -0.471522 -4.860472 -2.245384 0
M  V30 33 H 1.891573 -5.173784 -2.250343 0
M  V30 34 H 3.697912 -4.094760 -3.569814 0
M  V30 35 H 3.595274 0.461589 -1.979271 0
M  V30 36 H 2.917138 4.579767 -0.004370 0
M  V30 37 H 1.015824 5.377030 2.013667 0
M  V30 38 H -0.837917 4.393592 3.404811 0
M  V30 39 H -2.226639 0.404310 1.776379 0
M  V30 40 H -4.586497 0.020481 5.134144 0
M  V30 41 H -1.536532 3.021000 5.083708 0
M  V30 42 H -0.210327 0.649014 1.601313 0
M  V30 43 H 0.516917 -1.099296 0.357013 0
M  V30 44 H 0.857644 -3.190511 1.444907 0
M  V30 45 H -0.979343 -4.243212 2.583291 0
M  V30 END ATOM
M  V30 BEGIN BOND
M  V30 1 2 1 2
M  V30 2 1 2 3
M  V30 3 1 3 4
M  V30 4 2 4 5
M  V30 5 1 5 6
M  V30 6 2 6 7
M  V30 7 1 7 8
M  V30 8 1 8 9
M  V30 9 1 9 10
M  V30 10 1 10 11
M  V30 11 2 11 12
M  V30 12 1 12 13
M  V30 13 1 13 14
M  V30 14 2 14 15
M  V30 15 1 15 16
M  V30 16 2 16 17
M  V30 17 1 17 18
M  V30 18 2 18 19
M  V30 19 1 19 20
M  V30 20 2 20 21
M  V30 21 1 21 22
M  V30 22 2 22 23
M  V30 23 1 17 24
M  V30 24 2 24 25
M  V30 25 2 10 26
M  V30 26 1 26 27
M  V30 27 2 3 28
M  V30 28 1 28 29
M  V30 29 2 29 30
M  V30 30 1 30 1
M  V30 31 1 27 4
M  V30 32 2 27 8
M  V30 33 1 25 11
M  V30 34 1 25 14
M  V30 35 1 23 18
M  V30 36 1 1 31
M  V30 37 1 2 32
M  V30 38 1 5 33
M  V30 39 1 6 34
M  V30 40 1 9 35
M  V30 41 1 13 36
M  V30 42 1 15 37
M  V30 43 1 16 38
M  V30 44 1 19 39
M  V30 45 1 21 40
M  V30 46 1 23 41
M  V30 47 1 24 42
M  V30 48 1 26 43
M  V30 49 1 28 44
M  V30 50 1 29 45
M  V30 END BOND
M  V30 END CTAB
M  END
>  <Dataset>  (164) 
ChEMBL_Kinases

>  <Ligand_Instance>  (164) 
nan

>  <PDB_ID>  (164) 
nan

>  <Standardized_SMILES>  (164) 
c1cc(-c2ccnc3[nH]c(-c4n[nH]c5ccc(-c6cncnc6)cc45)cc23)ccn1

>  <Name>  (164) 
nan

>  <Pocket>  (164) 
nan

>  <ATP_Site>  (164) 
nan

>  <Peripheral>  (164) 
nan

>  <Num_H_Atoms_ProtBoundConf>  (164) 
nan

>  <Num_Resolved_Atoms>  (164) 
nan

>  <Num_Not_Resolved_Atoms>  (164) 
nan

$$$$
CHEMBL520911
     RDKit          3D

  0  0  0  0  0  0  0  0  0  0999 V3000
M  V30 BEGIN CTAB
M  V30 COUNTS 59 65 0 0 0
M  V30 BEGIN ATOM
M  V30 1 C 3.664637 -3.919828 0.785367 0
M  V30 2 N 3.846514 -2.518718 0.802257 0
M  V30 3 C 3.186206 -1.795954 1.808342 0
M  V30 4 C 3.303196 -0.318484 1.754238 0
M  V30 5 N 3.978992 0.217687 0.609784 0
M  V30 6 C 3.897642 1.635346 0.418974 0
M  V30 7 C 5.010881 2.461384 0.396970 0
M  V30 8 C 4.840076 3.823136 0.208042 0
M  V30 9 C 3.589102 4.387989 0.039894 0
M  V30 10 C 2.461958 3.593735 0.056679 0
M  V30 11 N 1.121457 3.819473 -0.075006 0
M  V30 12 C 0.481421 2.667162 0.024889 0
M  V30 13 C -0.956672 2.429512 -0.055115 0
M  V30 14 N -1.939453 3.314105 -0.245375 0
M  V30 15 N -3.126410 2.724599 -0.261024 0
M  V30 16 C -2.975621 1.384075 -0.076271 0
M  V30 17 C -3.795264 0.271326 0.003775 0
M  V30 18 C -3.252390 -0.980824 0.207160 0
M  V30 19 C -4.087938 -2.172628 0.295399 0
M  V30 20 C -5.245862 -2.161810 -0.458801 0
M  V30 21 C -6.031982 -3.299408 -0.367024 0
M  V30 22 C -5.651469 -4.354450 0.435238 0
M  V30 23 N -6.267657 -5.532401 0.658365 0
M  V30 24 C -5.537456 -6.271627 1.520212 0
M  V30 25 C -4.424686 -5.559567 1.863758 0
M  V30 26 C -4.488746 -4.346688 1.182635 0
M  V30 27 C -3.674793 -3.218635 1.113975 0
M  V30 28 C -1.886811 -1.133206 0.332439 0
M  V30 29 C -1.050516 -0.037522 0.255943 0
M  V30 30 C -1.607777 1.218880 0.050848 0
M  V30 31 N 1.405424 1.711837 0.218943 0
M  V30 32 C 2.646114 2.235538 0.246164 0
M  V30 33 C 4.737370 -0.552046 -0.373223 0
M  V30 34 C 4.053848 -1.892413 -0.458299 0
M  V30 35 H 2.705426 -4.148646 1.336461 0
M  V30 36 H 3.514379 -4.367595 -0.233967 0
M  V30 37 H 4.440000 -4.526157 1.293246 0
M  V30 38 H 2.111387 -2.121785 1.862496 0
M  V30 39 H 3.600315 -2.141237 2.799824 0
M  V30 40 H 2.268571 0.123718 1.764235 0
M  V30 41 H 3.827013 0.094073 2.648283 0
M  V30 42 H 5.993310 2.025495 0.528066 0
M  V30 43 H 5.719332 4.485273 0.189423 0
M  V30 44 H 3.482370 5.469557 -0.107645 0
M  V30 45 H 0.684716 4.755235 -0.229552 0
M  V30 46 H -4.096891 3.106040 -0.385954 0
M  V30 47 H -4.843421 0.420096 -0.096679 0
M  V30 48 H -5.503291 -1.321074 -1.068248 0
M  V30 49 H -6.951885 -3.316587 -0.951828 0
M  V30 50 H -7.176489 -5.903921 0.266807 0
M  V30 51 H -5.702288 -7.261474 1.935340 0
M  V30 52 H -3.590718 -5.748736 2.502928 0
M  V30 53 H -2.770852 -3.179552 1.678469 0
M  V30 54 H -1.463181 -2.119088 0.492250 0
M  V30 55 H 0.020156 -0.223075 0.362764 0
M  V30 56 H 5.800992 -0.597474 -0.129810 0
M  V30 57 H 4.640595 -0.071409 -1.372991 0
M  V30 58 H 4.687023 -2.557041 -1.080212 0
M  V30 59 H 3.048967 -1.719143 -0.914307 0
M  V30 END ATOM
M  V30 BEGIN BOND
M  V30 1 1 1 2
M  V30 2 1 2 3
M  V30 3 1 3 4
M  V30 4 1 4 5
M  V30 5 1 5 6
M  V30 6 2 6 7
M  V30 7 1 7 8
M  V30 8 2 8 9
M  V30 9 1 9 10
M  V30 10 1 10 11
M  V30 11 1 11 12
M  V30 12 1 12 13
M  V30 13 2 13 14
M  V30 14 1 14 15
M  V30 15 1 15 16
M  V30 16 2 16 17
M  V30 17 1 17 18
M  V30 18 1 18 19
M  V30 19 2 19 20
M  V30 20 1 20 21
M  V30 21 2 21 22
M  V30 22 1 22 23
M  V30 23 1 23 24
M  V30 24 2 24 25
M  V30 25 1 25 26
M  V30 26 2 26 27
M  V30 27 2 18 28
M  V30 28 1 28 29
M  V30 29 2 29 30
M  V30 30 2 12 31
M  V30 31 1 31 32
M  V30 32 1 5 33
M  V30 33 1 33 34
M  V30 34 1 34 2
M  V30 35 1 32 6
M  V30 36 2 32 10
M  V30 37 1 30 13
M  V30 38 1 30 16
M  V30 39 1 27 19
M  V30 40 1 26 22
M  V30 41 1 1 35
M  V30 42 1 1 36
M  V30 43 1 1 37
M  V30 44 1 3 38
M  V30 45 1 3 39
M  V30 46 1 4 40
M  V30 47 1 4 41
M  V30 48 1 7 42
M  V30 49 1 8 43
M  V30 50 1 9 44
M  V30 51 1 11 45
M  V30 52 1 15 46
M  V30 53 1 17 47
M  V30 54 1 20 48
M  V30 55 1 21 49
M  V30 56 1 23 50
M  V30 57 1 24 51
M  V30 58 1 25 52
M  V30 59 1 27 53
M  V30 60 1 28 54
M  V30 61 1 29 55
M  V30 62 1 33 56
M  V30 63 1 33 57
M  V30 64 1 34 58
M  V30 65 1 34 59
M  V30 END BOND
M  V30 END CTAB
M  END
>  <Dataset>  (165) 
ChEMBL_Kinases

>  <Ligand_Instance>  (165) 
nan

>  <PDB_ID>  (165) 
nan

>  <Standardized_SMILES>  (165) 
CN1CCN(c2cccc3[nH]c(-c4n[nH]c5cc(-c6ccc7[nH]ccc7c6)ccc45)nc23)CC1

>  <Name>  (165) 
nan

>  <Pocket>  (165) 
nan

>  <ATP_Site>  (165) 
nan

>  <Peripheral>  (165) 
nan

>  <Num_H_Atoms_ProtBoundConf>  (165) 
nan

>  <Num_Resolved_Atoms>  (165) 
nan

>  <Num_Not_Resolved_Atoms>  (165) 
nan

$$$$
CHEMBL4750622
     RDKit          3D

  0  0  0  0  0  0  0  0  0  0999 V3000
M  V30 BEGIN CTAB
M  V30 COUNTS 45 48 0 0 0
M  V30 BEGIN ATOM
M  V30 1 C 1.071802 -7.812283 -0.871422 0
M  V30 2 C 1.572273 -6.444371 -0.597596 0
M  V30 3 O 2.709128 -6.163669 -1.060709 0
M  V30 4 N 0.808476 -5.489425 0.152867 0
M  V30 5 C 1.382471 -4.198997 0.360753 0
M  V30 6 C 2.154264 -4.037045 1.494124 0
M  V30 7 C 2.696354 -2.776525 1.671109 0
M  V30 8 C 2.483035 -1.744926 0.776588 0
M  V30 9 C 1.695774 -1.945445 -0.360630 0
M  V30 10 C 1.539637 -0.759694 -1.244673 0
M  V30 11 N 0.374727 0.018426 -0.857215 0
M  V30 12 C 0.475589 1.007499 0.051381 0
M  V30 13 C -0.638240 1.751662 0.425020 0
M  V30 14 C -0.585214 2.847696 1.416447 0
M  V30 15 C 0.510840 3.659629 1.599153 0
M  V30 16 C 0.398981 4.638412 2.568792 0
M  V30 17 C -0.748105 4.812654 3.330919 0
M  V30 18 C -1.110575 5.688493 4.336257 0
M  V30 19 N -2.359071 5.379307 4.701820 0
M  V30 20 N -2.809846 4.360227 3.988819 0
M  V30 21 C -1.823639 3.988366 3.126018 0
M  V30 22 C -1.743825 2.997083 2.161583 0
M  V30 23 C -1.839044 1.415422 -0.187918 0
M  V30 24 C -1.951187 0.398917 -1.124104 0
M  V30 25 C -0.809401 -0.306064 -1.455537 0
M  V30 26 O -0.976227 -1.204211 -2.300337 0
M  V30 27 C 1.147289 -3.194927 -0.553674 0
M  V30 28 H 1.644650 -8.496890 -0.184122 0
M  V30 29 H 1.232170 -8.138636 -1.919740 0
M  V30 30 H -0.008046 -7.943487 -0.616413 0
M  V30 31 H -0.124166 -5.838111 0.486709 0
M  V30 32 H 2.321158 -4.833825 2.189302 0
M  V30 33 H 3.309027 -2.608781 2.548954 0
M  V30 34 H 2.966040 -0.787383 1.023524 0
M  V30 35 H 2.451386 -0.126713 -1.224786 0
M  V30 36 H 1.394165 -1.128474 -2.297022 0
M  V30 37 H 1.394253 1.262916 0.518586 0
M  V30 38 H 1.379482 3.489130 0.985550 0
M  V30 39 H 1.250176 5.285664 2.726968 0
M  V30 40 H -0.506642 6.476871 4.754325 0
M  V30 41 H -3.751412 3.905239 4.057136 0
M  V30 42 H -2.631029 2.390874 2.062002 0
M  V30 43 H -2.737212 1.967304 0.071061 0
M  V30 44 H -2.928902 0.183068 -1.572152 0
M  V30 45 H 0.547467 -3.317981 -1.437570 0
M  V30 END ATOM
M  V30 BEGIN BOND
M  V30 1 1 1 2
M  V30 2 2 2 3
M  V30 3 1 2 4
M  V30 4 1 4 5
M  V30 5 2 5 6
M  V30 6 1 6 7
M  V30 7 2 7 8
M  V30 8 1 8 9
M  V30 9 1 9 10
M  V30 10 1 10 11
M  V30 11 1 11 12
M  V30 12 2 12 13
M  V30 13 1 13 14
M  V30 14 2 14 15
M  V30 15 1 15 16
M  V30 16 2 16 17
M  V30 17 1 17 18
M  V30 18 2 18 19
M  V30 19 1 19 20
M  V30 20 1 20 21
M  V30 21 2 21 22
M  V30 22 1 13 23
M  V30 23 2 23 24
M  V30 24 1 24 25
M  V30 25 2 25 26
M  V30 26 2 9 27
M  V30 27 1 27 5
M  V30 28 1 25 11
M  V30 29 1 22 14
M  V30 30 1 21 17
M  V30 31 1 1 28
M  V30 32 1 1 29
M  V30 33 1 1 30
M  V30 34 1 4 31
M  V30 35 1 6 32
M  V30 36 1 7 33
M  V30 37 1 8 34
M  V30 38 1 10 35
M  V30 39 1 10 36
M  V30 40 1 12 37
M  V30 41 1 15 38
M  V30 42 1 16 39
M  V30 43 1 18 40
M  V30 44 1 20 41
M  V30 45 1 22 42
M  V30 46 1 23 43
M  V30 47 1 24 44
M  V30 48 1 27 45
M  V30 END BOND
M  V30 END CTAB
M  END
>  <Dataset>  (166) 
ChEMBL_Kinases

>  <Ligand_Instance>  (166) 
nan

>  <PDB_ID>  (166) 
nan

>  <Standardized_SMILES>  (166) 
CC(=O)Nc1cccc(Cn2cc(-c3ccc4cn[nH]c4c3)ccc2=O)c1

>  <Name>  (166) 
nan

>  <Pocket>  (166) 
nan

>  <ATP_Site>  (166) 
nan

>  <Peripheral>  (166) 
nan

>  <Num_H_Atoms_ProtBoundConf>  (166) 
nan

>  <Num_Resolved_Atoms>  (166) 
nan

>  <Num_Not_Resolved_Atoms>  (166) 
nan

$$$$
CHEMBL4750687
     RDKit          3D

  0  0  0  0  0  0  0  0  0  0999 V3000
M  V30 BEGIN CTAB
M  V30 COUNTS 44 47 0 0 0
M  V30 BEGIN ATOM
M  V30 1 C 0.067934 -3.272921 3.014007 0
M  V30 2 C 1.166729 -2.563607 2.315876 0
M  V30 3 N 2.494969 -2.763762 2.348545 0
M  V30 4 C 3.314689 -1.987528 1.620888 0
M  V30 5 C 2.926639 -0.955053 0.803491 0
M  V30 6 C 3.795320 -0.099811 0.011545 0
M  V30 7 C 4.961337 0.546321 0.409997 0
M  V30 8 C 5.663913 1.345082 -0.498994 0
M  V30 9 Cl 7.118967 2.112433 0.117425 0
M  V30 10 C 5.207380 1.498320 -1.793850 0
M  V30 11 C 4.043907 0.857943 -2.205307 0
M  V30 12 C 3.352293 0.062245 -1.285223 0
M  V30 13 F 2.239536 -0.496941 -1.839314 0
M  V30 14 C 1.548474 -0.748605 0.770797 0
M  V30 15 C 0.652514 -1.535605 1.514027 0
M  V30 16 N -0.716034 -1.121943 1.319365 0
M  V30 17 C -1.412485 -0.309229 2.163669 0
M  V30 18 O -0.900120 0.145316 3.208196 0
M  V30 19 N -2.620369 -0.197859 1.570174 0
M  V30 20 C -3.649144 0.625895 2.207288 0
M  V30 21 C -3.545380 2.039438 1.697680 0
M  V30 22 N -2.587924 2.856024 2.387131 0
M  V30 23 O -3.725352 3.086118 1.037654 0
M  V30 24 C -2.670234 -0.899476 0.426228 0
M  V30 25 C -3.708417 -1.047485 -0.475702 0
M  V30 26 N -3.456378 -1.823429 -1.549671 0
M  V30 27 C -2.279230 -2.432992 -1.764151 0
M  V30 28 C -1.247941 -2.282737 -0.862946 0
M  V30 29 C -1.438805 -1.503096 0.254747 0
M  V30 30 H 0.548969 -4.019118 3.681293 0
M  V30 31 H -0.580640 -3.834105 2.329919 0
M  V30 32 H -0.489257 -2.587226 3.680589 0
M  V30 33 H 4.383097 -2.188575 1.677704 0
M  V30 34 H 5.206228 0.347787 1.430572 0
M  V30 35 H 5.803212 2.142288 -2.462652 0
M  V30 36 H 3.758953 1.031051 -3.231162 0
M  V30 37 H 1.212389 0.064347 0.127829 0
M  V30 38 H -4.665230 0.271712 1.887597 0
M  V30 39 H -3.608464 0.636949 3.290192 0
M  V30 40 H -2.108251 3.528560 3.041287 0
M  V30 41 H -1.569880 3.146424 2.439933 0
M  V30 42 H -4.645244 -0.547804 -0.281500 0
M  V30 43 H -2.145125 -3.041773 -2.650493 0
M  V30 44 H -0.299663 -2.754393 -1.007097 0
M  V30 END ATOM
M  V30 BEGIN BOND
M  V30 1 1 1 2
M  V30 2 2 2 3
M  V30 3 1 3 4
M  V30 4 2 4 5
M  V30 5 1 5 6
M  V30 6 2 6 7
M  V30 7 1 7 8
M  V30 8 1 8 9
M  V30 9 2 8 10
M  V30 10 1 10 11
M  V30 11 2 11 12
M  V30 12 1 12 13
M  V30 13 1 5 14
M  V30 14 2 14 15
M  V30 15 1 15 16
M  V30 16 1 16 17
M  V30 17 2 17 18
M  V30 18 1 17 19
M  V30 19 1 19 20
M  V30 20 1 20 21
M  V30 21 1 21 22
M  V30 22 2 21 23
M  V30 23 1 19 24
M  V30 24 2 24 25
M  V30 25 1 25 26
M  V30 26 2 26 27
M  V30 27 1 27 28
M  V30 28 2 28 29
M  V30 29 1 15 2
M  V30 30 1 29 16
M  V30 31 1 12 6
M  V30 32 1 29 24
M  V30 33 1 1 30
M  V30 34 1 1 31
M  V30 35 1 1 32
M  V30 36 1 4 33
M  V30 37 1 7 34
M  V30 38 1 10 35
M  V30 39 1 11 36
M  V30 40 1 14 37
M  V30 41 1 20 38
M  V30 42 1 20 39
M  V30 43 1 22 40
M  V30 44 1 22 41
M  V30 45 1 25 42
M  V30 46 1 27 43
M  V30 47 1 28 44
M  V30 END BOND
M  V30 END CTAB
M  END
>  <Dataset>  (167) 
ChEMBL_Kinases

>  <Ligand_Instance>  (167) 
nan

>  <PDB_ID>  (167) 
nan

>  <Standardized_SMILES>  (167) 
Cc1ncc(-c2cc(Cl)ccc2F)cc1-n1c(=O)n(CC(N)=O)c2cnccc21

>  <Name>  (167) 
nan

>  <Pocket>  (167) 
nan

>  <ATP_Site>  (167) 
nan

>  <Peripheral>  (167) 
nan

>  <Num_H_Atoms_ProtBoundConf>  (167) 
nan

>  <Num_Resolved_Atoms>  (167) 
nan

>  <Num_Not_Resolved_Atoms>  (167) 
nan

$$$$
CHEMBL520655
     RDKit          3D

  0  0  0  0  0  0  0  0  0  0999 V3000
M  V30 BEGIN CTAB
M  V30 COUNTS 40 43 0 0 0
M  V30 BEGIN ATOM
M  V30 1 O -0.447567 -2.267435 3.966813 0
M  V30 2 S -1.232142 -2.302670 2.705888 0
M  V30 3 O -1.667792 -3.717346 2.452303 0
M  V30 4 C -0.244041 -1.810185 1.361066 0
M  V30 5 C 0.681686 -0.822828 1.628706 0
M  V30 6 C 1.534103 -0.331350 0.662008 0
M  V30 7 C 1.485607 -0.827052 -0.641519 0
M  V30 8 C 2.300055 -0.426924 -1.767362 0
M  V30 9 C 2.825961 -1.453994 -2.551086 0
M  V30 10 C 3.615577 -1.170169 -3.647068 0
M  V30 11 N 3.906919 0.107224 -3.999599 0
M  V30 12 C 3.410018 1.114304 -3.257482 0
M  V30 13 N 3.508439 2.459817 -3.336223 0
M  V30 14 C 2.807045 3.051741 -2.325415 0
M  V30 15 C 2.235602 2.034499 -1.568115 0
M  V30 16 C 2.618450 0.854821 -2.157686 0
M  V30 17 C 0.554427 -1.812778 -0.889106 0
M  V30 18 C -0.307052 -2.318041 0.063015 0
M  V30 19 N -2.667681 -1.347918 2.788514 0
M  V30 20 C -2.369009 0.055281 2.990767 0
M  V30 21 C -2.053167 0.129768 4.449220 0
M  V30 22 C -2.778172 -1.008758 5.121898 0
M  V30 23 C -3.459846 -1.667980 3.946676 0
M  V30 24 H 0.806902 -0.370280 2.591419 0
M  V30 25 H 2.274033 0.438760 0.820704 0
M  V30 26 H 2.688349 -2.525930 -2.405291 0
M  V30 27 H 4.068194 -1.891626 -4.314377 0
M  V30 28 H 4.031253 3.025442 -4.045191 0
M  V30 29 H 2.707372 4.118281 -2.138379 0
M  V30 30 H 1.626161 2.172835 -0.706469 0
M  V30 31 H 0.405780 -2.286981 -1.848910 0
M  V30 32 H -1.040112 -3.081402 -0.095194 0
M  V30 33 H -1.511360 0.397177 2.379823 0
M  V30 34 H -3.252392 0.635905 2.723716 0
M  V30 35 H -2.376599 1.127145 4.818750 0
M  V30 36 H -0.957360 0.033336 4.561685 0
M  V30 37 H -2.064969 -1.652910 5.636749 0
M  V30 38 H -3.478897 -0.562320 5.849244 0
M  V30 39 H -3.527505 -2.755692 4.065309 0
M  V30 40 H -4.452790 -1.192214 3.816025 0
M  V30 END ATOM
M  V30 BEGIN BOND
M  V30 1 2 1 2
M  V30 2 2 2 3
M  V30 3 1 2 4
M  V30 4 2 4 5
M  V30 5 1 5 6
M  V30 6 2 6 7
M  V30 7 1 7 8
M  V30 8 2 8 9
M  V30 9 1 9 10
M  V30 10 2 10 11
M  V30 11 1 11 12
M  V30 12 1 12 13
M  V30 13 1 13 14
M  V30 14 2 14 15
M  V30 15 1 15 16
M  V30 16 1 7 17
M  V30 17 2 17 18
M  V30 18 1 2 19
M  V30 19 1 19 20
M  V30 20 1 20 21
M  V30 21 1 21 22
M  V30 22 1 22 23
M  V30 23 1 18 4
M  V30 24 1 23 19
M  V30 25 1 16 8
M  V30 26 2 16 12
M  V30 27 1 5 24
M  V30 28 1 6 25
M  V30 29 1 9 26
M  V30 30 1 10 27
M  V30 31 1 13 28
M  V30 32 1 14 29
M  V30 33 1 15 30
M  V30 34 1 17 31
M  V30 35 1 18 32
M  V30 36 1 20 33
M  V30 37 1 20 34
M  V30 38 1 21 35
M  V30 39 1 21 36
M  V30 40 1 22 37
M  V30 41 1 22 38
M  V30 42 1 23 39
M  V30 43 1 23 40
M  V30 END BOND
M  V30 END CTAB
M  END
>  <Dataset>  (168) 
ChEMBL_Kinases

>  <Ligand_Instance>  (168) 
nan

>  <PDB_ID>  (168) 
nan

>  <Standardized_SMILES>  (168) 
O=S(=O)(c1ccc(-c2ccnc3[nH]ccc23)cc1)N1CCCC1

>  <Name>  (168) 
nan

>  <Pocket>  (168) 
nan

>  <ATP_Site>  (168) 
nan

>  <Peripheral>  (168) 
nan

>  <Num_H_Atoms_ProtBoundConf>  (168) 
nan

>  <Num_Resolved_Atoms>  (168) 
nan

>  <Num_Not_Resolved_Atoms>  (168) 
nan

$$$$
CHEMBL520473
     RDKit          3D

  0  0  0  0  0  0  0  0  0  0999 V3000
M  V30 BEGIN CTAB
M  V30 COUNTS 41 43 0 0 0
M  V30 BEGIN ATOM
M  V30 1 C 1.764712 -5.190065 3.091522 0
M  V30 2 C 0.442926 -4.593344 2.778816 0
M  V30 3 C 0.291073 -3.442114 2.006286 0
M  V30 4 C -1.055864 -3.182140 1.924483 0
M  V30 5 C -1.701572 -2.158445 1.273614 0
M  V30 6 C -1.068256 -1.094833 0.505172 0
M  V30 7 C -0.054175 -1.195690 -0.423805 0
M  V30 8 C 0.419541 -0.061966 -1.054979 0
M  V30 9 C -0.103677 1.203368 -0.778302 0
M  V30 10 N 0.524731 2.211606 -1.532769 0
M  V30 11 S 0.993215 3.662818 -0.753027 0
M  V30 12 O 1.596010 4.650247 -1.714214 0
M  V30 13 O -0.185469 4.380101 -0.138543 0
M  V30 14 C 2.174910 3.398470 0.523795 0
M  V30 15 C 3.448941 2.767438 0.015575 0
M  V30 16 N 4.123530 3.562427 -0.982422 0
M  V30 17 C -1.116860 1.295987 0.151214 0
M  V30 18 C -1.595012 0.170445 0.785156 0
M  V30 19 C -3.089836 -2.167097 1.377523 0
M  V30 20 C -3.759205 -3.154013 2.096227 0
M  V30 21 N -3.065832 -4.135486 2.715006 0
M  V30 22 C -1.728653 -4.153297 2.632707 0
M  V30 23 N -0.795085 -4.979487 3.128915 0
M  V30 24 H 1.678816 -6.297180 3.122374 0
M  V30 25 H 2.118247 -4.867471 4.090031 0
M  V30 26 H 2.499135 -4.953190 2.291171 0
M  V30 27 H 1.102729 -2.879354 1.566146 0
M  V30 28 H 0.296341 -2.186503 -0.585295 0
M  V30 29 H 1.219534 -0.285815 -1.763743 0
M  V30 30 H 0.715643 2.105033 -2.554106 0
M  V30 31 H 2.467188 4.399422 0.917209 0
M  V30 32 H 1.821403 2.818738 1.378064 0
M  V30 33 H 3.242175 1.733705 -0.322274 0
M  V30 34 H 4.157794 2.682747 0.864733 0
M  V30 35 H 5.162358 3.619946 -0.843691 0
M  V30 36 H 4.027976 3.016371 -1.889531 0
M  V30 37 H -1.461858 2.305892 0.304318 0
M  V30 38 H -2.387756 0.378858 1.489730 0
M  V30 39 H -3.739222 -1.439757 0.928544 0
M  V30 40 H -4.826819 -3.212251 2.211236 0
M  V30 41 H -1.000943 -5.830174 3.722217 0
M  V30 END ATOM
M  V30 BEGIN BOND
M  V30 1 1 1 2
M  V30 2 2 2 3
M  V30 3 1 3 4
M  V30 4 2 4 5
M  V30 5 1 5 6
M  V30 6 2 6 7
M  V30 7 1 7 8
M  V30 8 2 8 9
M  V30 9 1 9 10
M  V30 10 1 10 11
M  V30 11 2 11 12
M  V30 12 2 11 13
M  V30 13 1 11 14
M  V30 14 1 14 15
M  V30 15 1 15 16
M  V30 16 1 9 17
M  V30 17 2 17 18
M  V30 18 1 5 19
M  V30 19 2 19 20
M  V30 20 1 20 21
M  V30 21 2 21 22
M  V30 22 1 22 23
M  V30 23 1 23 2
M  V30 24 1 22 4
M  V30 25 1 18 6
M  V30 26 1 1 24
M  V30 27 1 1 25
M  V30 28 1 1 26
M  V30 29 1 3 27
M  V30 30 1 7 28
M  V30 31 1 8 29
M  V30 32 1 10 30
M  V30 33 1 14 31
M  V30 34 1 14 32
M  V30 35 1 15 33
M  V30 36 1 15 34
M  V30 37 1 16 35
M  V30 38 1 16 36
M  V30 39 1 17 37
M  V30 40 1 18 38
M  V30 41 1 19 39
M  V30 42 1 20 40
M  V30 43 1 23 41
M  V30 END BOND
M  V30 END CTAB
M  END
>  <Dataset>  (169) 
ChEMBL_Kinases

>  <Ligand_Instance>  (169) 
nan

>  <PDB_ID>  (169) 
nan

>  <Standardized_SMILES>  (169) 
Cc1cc2c(-c3ccc(NS(=O)(=O)CCN)cc3)ccnc2[nH]1

>  <Name>  (169) 
nan

>  <Pocket>  (169) 
nan

>  <ATP_Site>  (169) 
nan

>  <Peripheral>  (169) 
nan

>  <Num_H_Atoms_ProtBoundConf>  (169) 
nan

>  <Num_Resolved_Atoms>  (169) 
nan

>  <Num_Not_Resolved_Atoms>  (169) 
nan

$$$$
CHEMBL4750822
     RDKit          3D

  0  0  0  0  0  0  0  0  0  0999 V3000
M  V30 BEGIN CTAB
M  V30 COUNTS 65 69 0 0 0
M  V30 BEGIN ATOM
M  V30 1 C 6.435950 -0.298201 3.548351 0
M  V30 2 C 6.582923 -1.653169 2.889493 0
M  V30 3 C 6.078925 -2.764700 3.778356 0
M  V30 4 C 5.837917 -1.642987 1.596371 0
M  V30 5 N 6.145952 -1.801695 0.301533 0
M  V30 6 O 5.071428 -1.690813 -0.407715 0
M  V30 7 C 4.006692 -1.459807 0.319978 0
M  V30 8 C 2.709565 -1.308279 -0.325941 0
M  V30 9 C 2.572388 -1.408608 -1.688008 0
M  V30 10 N 1.360770 -1.267705 -2.233120 0
M  V30 11 C 0.245180 -1.032812 -1.560868 0
M  V30 12 N -0.933762 -0.933210 -2.344087 0
M  V30 13 C -2.238957 -0.618643 -1.880534 0
M  V30 14 C -2.537842 -0.141372 -0.623390 0
M  V30 15 C -3.806473 0.145585 -0.167743 0
M  V30 16 C -4.850156 -0.062872 -1.041637 0
M  V30 17 C -4.652064 -0.537462 -2.320436 0
M  V30 18 C -3.337041 -0.798218 -2.689054 0
M  V30 19 C -5.905058 -0.682428 -3.072827 0
M  V30 20 C -6.131304 -2.098706 -3.555385 0
M  V30 21 C -5.978061 0.295626 -4.243734 0
M  V30 22 O -6.895686 -0.263028 -2.163683 0
M  V30 23 C -6.295718 0.102673 -0.972542 0
M  V30 24 O -6.920330 0.522470 0.035142 0
M  V30 25 N 0.356011 -0.931508 -0.236105 0
M  V30 26 C 1.536235 -1.061058 0.382813 0
M  V30 27 N 1.509432 -0.918349 1.797907 0
M  V30 28 C 0.514134 -0.680888 2.788352 0 CFG=2
M  V30 29 C -0.428087 -1.833517 2.852168 0
M  V30 30 O -1.078477 -2.062762 1.667953 0
M  V30 31 C -0.180638 0.628232 2.654869 0
M  V30 32 C -1.513325 0.936922 2.780231 0
M  V30 33 C -1.939092 2.235813 2.611538 0
M  V30 34 C -1.050809 3.254599 2.314969 0
M  V30 35 C 0.290775 2.962479 2.185593 0
M  V30 36 C 0.707508 1.657057 2.356690 0
M  V30 37 N 4.526068 -1.438374 1.548115 0
M  V30 38 H 5.361062 -0.019242 3.661156 0
M  V30 39 H 6.898314 -0.283481 4.543032 0
M  V30 40 H 6.851391 0.457074 2.844037 0
M  V30 41 H 7.649771 -1.838892 2.709110 0
M  V30 42 H 5.857473 -3.666943 3.172050 0
M  V30 43 H 6.876260 -3.093774 4.492972 0
M  V30 44 H 5.227437 -2.463929 4.424947 0
M  V30 45 H 3.432060 -1.598926 -2.312764 0
M  V30 46 H -0.880553 -1.102682 -3.393407 0
M  V30 47 H -1.747327 0.035840 0.068495 0
M  V30 48 H -3.989674 0.521650 0.837552 0
M  V30 49 H -3.181824 -1.178316 -3.712904 0
M  V30 50 H -5.442173 -2.256221 -4.429333 0
M  V30 51 H -7.147488 -2.122557 -3.984332 0
M  V30 52 H -5.923355 -2.847304 -2.789604 0
M  V30 53 H -7.040244 0.584698 -4.463114 0
M  V30 54 H -5.598923 -0.172017 -5.187377 0
M  V30 55 H -5.472845 1.228523 -3.969129 0
M  V30 56 H 2.442452 -1.007224 2.223731 0
M  V30 57 H 1.010705 -0.624477 3.798876 0
M  V30 58 H -1.097416 -1.812371 3.736381 0
M  V30 59 H 0.214205 -2.746154 3.030932 0
M  V30 60 H -0.936912 -2.967398 1.291256 0
M  V30 61 H -2.119137 0.067482 3.012820 0
M  V30 62 H -3.022610 2.376276 2.733184 0
M  V30 63 H -1.472007 4.253633 2.197707 0
M  V30 64 H 0.961039 3.778866 1.953427 0
M  V30 65 H 1.794284 1.539777 2.231482 0
M  V30 END ATOM
M  V30 BEGIN BOND
M  V30 1 1 1 2
M  V30 2 1 2 3
M  V30 3 1 2 4
M  V30 4 2 4 5
M  V30 5 1 5 6
M  V30 6 1 6 7
M  V30 7 1 7 8
M  V30 8 2 8 9
M  V30 9 1 9 10
M  V30 10 2 10 11
M  V30 11 1 11 12
M  V30 12 1 12 13
M  V30 13 2 13 14
M  V30 14 1 14 15
M  V30 15 2 15 16
M  V30 16 1 16 17
M  V30 17 2 17 18
M  V30 18 1 17 19
M  V30 19 1 19 20
M  V30 20 1 19 21
M  V30 21 1 19 22
M  V30 22 1 22 23
M  V30 23 2 23 24
M  V30 24 1 11 25
M  V30 25 2 25 26
M  V30 26 1 26 27
M  V30 27 1 27 28
M  V30 28 1 28 29
M  V30 29 1 29 30
M  V30 30 1 28 31
M  V30 31 2 31 32
M  V30 32 1 32 33
M  V30 33 2 33 34
M  V30 34 1 34 35
M  V30 35 2 35 36
M  V30 36 2 7 37
M  V30 37 1 37 4
M  V30 38 1 26 8
M  V30 39 1 36 31
M  V30 40 1 18 13
M  V30 41 1 23 16
M  V30 42 1 1 38
M  V30 43 1 1 39
M  V30 44 1 1 40
M  V30 45 1 2 41
M  V30 46 1 3 42
M  V30 47 1 3 43
M  V30 48 1 3 44
M  V30 49 1 9 45
M  V30 50 1 12 46
M  V30 51 1 14 47
M  V30 52 1 15 48
M  V30 53 1 18 49
M  V30 54 1 20 50
M  V30 55 1 20 51
M  V30 56 1 20 52
M  V30 57 1 21 53
M  V30 58 1 21 54
M  V30 59 1 21 55
M  V30 60 1 27 56
M  V30 61 1 28 57 CFG=1
M  V30 62 1 29 58
M  V30 63 1 29 59
M  V30 64 1 30 60
M  V30 65 1 32 61
M  V30 66 1 33 62
M  V30 67 1 34 63
M  V30 68 1 35 64
M  V30 69 1 36 65
M  V30 END BOND
M  V30 END CTAB
M  END
>  <Dataset>  (170) 
ChEMBL_Kinases

>  <Ligand_Instance>  (170) 
nan

>  <PDB_ID>  (170) 
nan

>  <Standardized_SMILES>  (170) 
CC(C)c1noc(-c2cnc(Nc3ccc4c(c3)C(C)(C)OC4=O)nc2N[C@H](CO)c2ccccc2)n1

>  <Name>  (170) 
nan

>  <Pocket>  (170) 
nan

>  <ATP_Site>  (170) 
nan

>  <Peripheral>  (170) 
nan

>  <Num_H_Atoms_ProtBoundConf>  (170) 
nan

>  <Num_Resolved_Atoms>  (170) 
nan

>  <Num_Not_Resolved_Atoms>  (170) 
nan

$$$$
CHEMBL520308
     RDKit          3D

  0  0  0  0  0  0  0  0  0  0999 V3000
M  V30 BEGIN CTAB
M  V30 COUNTS 43 45 0 0 0
M  V30 BEGIN ATOM
M  V30 1 C -1.990654 -6.432009 1.781638 0
M  V30 2 C -0.961193 -5.437938 2.185951 0
M  V30 3 C -0.720526 -4.195635 1.681843 0
M  V30 4 C 0.322441 -3.641213 2.359795 0
M  V30 5 C 0.920534 -2.407270 2.205491 0
M  V30 6 C 0.530536 -1.394861 1.229347 0
M  V30 7 C -0.732805 -0.951861 0.895025 0
M  V30 8 C -0.875814 0.026395 -0.068356 0
M  V30 9 C 0.249703 0.560215 -0.696420 0
M  V30 10 S 0.032877 1.802834 -1.917126 0
M  V30 11 O -1.300012 1.513491 -2.591900 0
M  V30 12 O 1.067615 1.679618 -3.000020 0
M  V30 13 N 0.041553 3.348684 -1.307173 0
M  V30 14 C -0.931483 3.740731 -0.379769 0
M  V30 15 C 1.250060 4.085254 -1.355047 0
M  V30 16 C 2.124755 3.916933 -0.140209 0
M  V30 17 O 1.452870 4.335979 1.016290 0
M  V30 18 C 1.515169 0.136304 -0.381307 0
M  V30 19 C 1.643015 -0.842367 0.583780 0
M  V30 20 C 1.983590 -2.149602 3.078610 0
M  V30 21 C 2.394943 -3.068319 4.020184 0
M  V30 22 N 1.759422 -4.258380 4.112361 0
M  V30 23 C 0.734871 -4.555597 3.299840 0
M  V30 24 N -0.053140 -5.642162 3.183385 0
M  V30 25 H -2.644233 -6.693136 2.633202 0
M  V30 26 H -2.590903 -5.980501 0.951413 0
M  V30 27 H -1.444324 -7.316847 1.415789 0
M  V30 28 H -1.286845 -3.761047 0.877579 0
M  V30 29 H -1.519201 -1.443090 1.451944 0
M  V30 30 H -1.891970 0.337962 -0.292616 0
M  V30 31 H -1.912497 3.296923 -0.639174 0
M  V30 32 H -1.074569 4.860941 -0.400585 0
M  V30 33 H -0.738478 3.484916 0.676450 0
M  V30 34 H 1.028945 5.154523 -1.482366 0
M  V30 35 H 1.841088 3.777001 -2.241636 0
M  V30 36 H 2.519781 2.895237 -0.041707 0
M  V30 37 H 3.005854 4.583409 -0.245967 0
M  V30 38 H 1.427911 5.302204 1.107040 0
M  V30 39 H 2.361931 0.578342 -0.894158 0
M  V30 40 H 2.687385 -1.124938 0.776756 0
M  V30 41 H 2.495587 -1.180619 2.998273 0
M  V30 42 H 3.234461 -2.811933 4.678328 0
M  V30 43 H 0.016717 -6.507954 3.764011 0
M  V30 END ATOM
M  V30 BEGIN BOND
M  V30 1 1 1 2
M  V30 2 2 2 3
M  V30 3 1 3 4
M  V30 4 2 4 5
M  V30 5 1 5 6
M  V30 6 2 6 7
M  V30 7 1 7 8
M  V30 8 2 8 9
M  V30 9 1 9 10
M  V30 10 2 10 11
M  V30 11 2 10 12
M  V30 12 1 10 13
M  V30 13 1 13 14
M  V30 14 1 13 15
M  V30 15 1 15 16
M  V30 16 1 16 17
M  V30 17 1 9 18
M  V30 18 2 18 19
M  V30 19 1 5 20
M  V30 20 2 20 21
M  V30 21 1 21 22
M  V30 22 2 22 23
M  V30 23 1 23 24
M  V30 24 1 24 2
M  V30 25 1 23 4
M  V30 26 1 19 6
M  V30 27 1 1 25
M  V30 28 1 1 26
M  V30 29 1 1 27
M  V30 30 1 3 28
M  V30 31 1 7 29
M  V30 32 1 8 30
M  V30 33 1 14 31
M  V30 34 1 14 32
M  V30 35 1 14 33
M  V30 36 1 15 34
M  V30 37 1 15 35
M  V30 38 1 16 36
M  V30 39 1 16 37
M  V30 40 1 17 38
M  V30 41 1 18 39
M  V30 42 1 19 40
M  V30 43 1 20 41
M  V30 44 1 21 42
M  V30 45 1 24 43
M  V30 END BOND
M  V30 END CTAB
M  END
>  <Dataset>  (171) 
ChEMBL_Kinases

>  <Ligand_Instance>  (171) 
nan

>  <PDB_ID>  (171) 
nan

>  <Standardized_SMILES>  (171) 
Cc1cc2c(-c3ccc(S(=O)(=O)N(C)CCO)cc3)ccnc2[nH]1

>  <Name>  (171) 
nan

>  <Pocket>  (171) 
nan

>  <ATP_Site>  (171) 
nan

>  <Peripheral>  (171) 
nan

>  <Num_H_Atoms_ProtBoundConf>  (171) 
nan

>  <Num_Resolved_Atoms>  (171) 
nan

>  <Num_Not_Resolved_Atoms>  (171) 
nan

$$$$
CHEMBL4750857
     RDKit          3D

  0  0  0  0  0  0  0  0  0  0999 V3000
M  V30 BEGIN CTAB
M  V30 COUNTS 46 49 0 0 0
M  V30 BEGIN ATOM
M  V30 1 C 3.731226 -3.060154 3.892955 0
M  V30 2 C 3.378194 -1.944606 2.900455 0
M  V30 3 C 1.902685 -2.060024 2.649436 0
M  V30 4 N 4.175669 -2.045479 1.710986 0
M  V30 5 C 4.964898 -3.074791 1.338821 0
M  V30 6 N 5.520642 -2.725519 0.146557 0
M  V30 7 N 5.071877 -1.538862 -0.162647 0
M  V30 8 C 4.224057 -1.068279 0.787210 0
M  V30 9 C 3.579100 0.238399 0.688181 0
M  V30 10 C 4.236810 1.273458 0.035752 0
M  V30 11 C 3.677599 2.527861 -0.088769 0
M  V30 12 C 2.430259 2.785938 0.441754 0
M  V30 13 C 1.795042 1.740811 1.086340 0
M  V30 14 N 0.504814 1.734096 1.722192 0
M  V30 15 C -0.542026 1.368702 0.821896 0
M  V30 16 O -0.367091 1.080524 -0.401721 0
M  V30 17 N -1.886964 1.313718 1.295898 0
M  V30 18 C -2.946219 0.952309 0.417626 0
M  V30 19 N -3.657948 1.823117 -0.328170 0
M  V30 20 C -4.656175 1.396949 -1.143889 0
M  V30 21 C -4.943645 0.032773 -1.205270 0
M  V30 22 C -5.948428 -0.435882 -2.020798 0
M  V30 23 C -6.206899 -1.793490 -2.057667 0
M  V30 24 C -5.477030 -2.687049 -1.292786 0
M  V30 25 C -4.472628 -2.203476 -0.479677 0
M  V30 26 C -4.196732 -0.832630 -0.429377 0
M  V30 27 N -3.209546 -0.369175 0.371449 0
M  V30 28 N 2.387638 0.533896 1.179350 0
M  V30 29 H 3.167703 -2.818934 4.818330 0
M  V30 30 H 4.806093 -3.053325 4.140759 0
M  V30 31 H 3.376656 -4.048276 3.530279 0
M  V30 32 H 3.664864 -0.997390 3.431108 0
M  V30 33 H 1.429004 -1.191662 3.176222 0
M  V30 34 H 1.440772 -2.975315 3.113609 0
M  V30 35 H 1.621755 -2.129414 1.579409 0
M  V30 36 H 5.119932 -3.991110 1.884186 0
M  V30 37 H 5.215213 1.102068 -0.390268 0
M  V30 38 H 4.139172 3.373025 -0.584429 0
M  V30 39 H 1.856195 3.695186 0.434367 0
M  V30 40 H 0.325136 1.965457 2.724699 0
M  V30 41 H -2.145665 1.535875 2.302749 0
M  V30 42 H -5.206413 2.114849 -1.726705 0
M  V30 43 H -6.539006 0.245102 -2.633845 0
M  V30 44 H -6.985989 -2.211817 -2.682322 0
M  V30 45 H -5.605434 -3.760737 -1.255289 0
M  V30 46 H -3.860872 -2.863183 0.148953 0
M  V30 END ATOM
M  V30 BEGIN BOND
M  V30 1 1 1 2
M  V30 2 1 2 3
M  V30 3 1 2 4
M  V30 4 1 4 5
M  V30 5 2 5 6
M  V30 6 1 6 7
M  V30 7 2 7 8
M  V30 8 1 8 9
M  V30 9 2 9 10
M  V30 10 1 10 11
M  V30 11 2 11 12
M  V30 12 1 12 13
M  V30 13 1 13 14
M  V30 14 1 14 15
M  V30 15 2 15 16
M  V30 16 1 15 17
M  V30 17 1 17 18
M  V30 18 2 18 19
M  V30 19 1 19 20
M  V30 20 2 20 21
M  V30 21 1 21 22
M  V30 22 2 22 23
M  V30 23 1 23 24
M  V30 24 2 24 25
M  V30 25 1 25 26
M  V30 26 2 26 27
M  V30 27 2 13 28
M  V30 28 1 8 4
M  V30 29 1 28 9
M  V30 30 1 27 18
M  V30 31 1 26 21
M  V30 32 1 1 29
M  V30 33 1 1 30
M  V30 34 1 1 31
M  V30 35 1 2 32
M  V30 36 1 3 33
M  V30 37 1 3 34
M  V30 38 1 3 35
M  V30 39 1 5 36
M  V30 40 1 10 37
M  V30 41 1 11 38
M  V30 42 1 12 39
M  V30 43 1 14 40
M  V30 44 1 17 41
M  V30 45 1 20 42
M  V30 46 1 22 43
M  V30 47 1 23 44
M  V30 48 1 24 45
M  V30 49 1 25 46
M  V30 END BOND
M  V30 END CTAB
M  END
>  <Dataset>  (172) 
ChEMBL_Kinases

>  <Ligand_Instance>  (172) 
nan

>  <PDB_ID>  (172) 
nan

>  <Standardized_SMILES>  (172) 
CC(C)n1cnnc1-c1cccc(NC(=O)Nc2ncc3ccccc3n2)n1

>  <Name>  (172) 
nan

>  <Pocket>  (172) 
nan

>  <ATP_Site>  (172) 
nan

>  <Peripheral>  (172) 
nan

>  <Num_H_Atoms_ProtBoundConf>  (172) 
nan

>  <Num_Resolved_Atoms>  (172) 
nan

>  <Num_Not_Resolved_Atoms>  (172) 
nan

$$$$
CHEMBL519795
     RDKit          3D

  0  0  0  0  0  0  0  0  0  0999 V3000
M  V30 BEGIN CTAB
M  V30 COUNTS 57 62 0 0 0
M  V30 BEGIN ATOM
M  V30 1 C 5.022943 -3.219953 1.603297 0
M  V30 2 N 3.898996 -3.400787 0.711090 0
M  V30 3 C 2.654183 -2.937385 1.240284 0
M  V30 4 C 2.698353 -1.477707 1.574212 0
M  V30 5 N 3.502687 -0.779577 0.622041 0
M  V30 6 C 3.608508 0.625072 0.852293 0
M  V30 7 C 4.830941 1.249382 1.081949 0
M  V30 8 C 4.897786 2.623445 1.303966 0
M  V30 9 C 3.739977 3.392653 1.299084 0
M  V30 10 C 2.508864 2.810608 1.075023 0
M  V30 11 N 1.222810 3.266521 1.007442 0
M  V30 12 C 0.424992 2.233903 0.759929 0
M  V30 13 C -1.026431 2.234565 0.603814 0
M  V30 14 N -1.861852 3.279054 0.677634 0
M  V30 15 N -3.129665 2.888013 0.479968 0
M  V30 16 C -3.143165 1.558195 0.270078 0
M  V30 17 C -4.157389 0.653913 0.019100 0
M  V30 18 C -3.850994 -0.679903 -0.157202 0
M  V30 19 C -4.814922 -1.741747 -0.428022 0
M  V30 20 C -5.945814 -1.404881 -1.160671 0
M  V30 21 C -6.894668 -2.395933 -1.441711 0
M  V30 22 C -6.628143 -3.674756 -0.954841 0
M  V30 23 N -7.577539 -4.702607 -1.226614 0
M  V30 24 C -5.508169 -4.026958 -0.224404 0
M  V30 25 F -5.340723 -5.305918 0.206030 0
M  V30 26 C -4.573715 -3.018697 0.043901 0
M  V30 27 C -2.517348 -1.067720 -0.074590 0
M  V30 28 C -1.462730 -0.185344 0.177356 0
M  V30 29 C -1.828875 1.141439 0.346117 0
M  V30 30 N 1.208201 1.143278 0.673958 0
M  V30 31 C 2.497949 1.451027 0.861361 0
M  V30 32 C 4.211413 -1.305638 -0.526478 0
M  V30 33 C 4.158057 -2.814147 -0.582456 0
M  V30 34 H 4.933910 -3.861478 2.503055 0
M  V30 35 H 5.227049 -2.176320 1.878554 0
M  V30 36 H 5.925067 -3.578235 1.025269 0
M  V30 37 H 1.899127 -3.064007 0.423429 0
M  V30 38 H 2.277374 -3.561612 2.078621 0
M  V30 39 H 3.002437 -1.289998 2.627838 0
M  V30 40 H 1.660611 -1.041083 1.491332 0
M  V30 41 H 5.729637 0.646615 1.084824 0
M  V30 42 H 5.851654 3.121820 1.485113 0
M  V30 43 H 3.796254 4.466880 1.473292 0
M  V30 44 H 0.951462 4.270193 1.135133 0
M  V30 45 H -3.985950 3.516593 0.486391 0
M  V30 46 H -5.184698 0.936401 -0.047156 0
M  V30 47 H -6.147958 -0.415443 -1.535038 0
M  V30 48 H -7.802345 -2.209246 -2.007677 0
M  V30 49 H -8.149067 -5.283651 -0.544083 0
M  V30 50 H -7.991621 -5.183678 -2.079523 0
M  V30 51 H -3.695401 -3.265319 0.609076 0
M  V30 52 H -2.237384 -2.095634 -0.206062 0
M  V30 53 H -0.446155 -0.535436 0.231678 0
M  V30 54 H 5.278967 -1.007584 -0.412168 0
M  V30 55 H 3.862197 -0.908436 -1.485692 0
M  V30 56 H 5.113697 -3.238639 -0.951759 0
M  V30 57 H 3.368632 -3.167863 -1.286294 0
M  V30 END ATOM
M  V30 BEGIN BOND
M  V30 1 1 1 2
M  V30 2 1 2 3
M  V30 3 1 3 4
M  V30 4 1 4 5
M  V30 5 1 5 6
M  V30 6 2 6 7
M  V30 7 1 7 8
M  V30 8 2 8 9
M  V30 9 1 9 10
M  V30 10 1 10 11
M  V30 11 1 11 12
M  V30 12 1 12 13
M  V30 13 2 13 14
M  V30 14 1 14 15
M  V30 15 1 15 16
M  V30 16 2 16 17
M  V30 17 1 17 18
M  V30 18 1 18 19
M  V30 19 2 19 20
M  V30 20 1 20 21
M  V30 21 2 21 22
M  V30 22 1 22 23
M  V30 23 1 22 24
M  V30 24 1 24 25
M  V30 25 2 24 26
M  V30 26 2 18 27
M  V30 27 1 27 28
M  V30 28 2 28 29
M  V30 29 2 12 30
M  V30 30 1 30 31
M  V30 31 1 5 32
M  V30 32 1 32 33
M  V30 33 1 33 2
M  V30 34 1 31 6
M  V30 35 2 31 10
M  V30 36 1 29 13
M  V30 37 1 29 16
M  V30 38 1 26 19
M  V30 39 1 1 34
M  V30 40 1 1 35
M  V30 41 1 1 36
M  V30 42 1 3 37
M  V30 43 1 3 38
M  V30 44 1 4 39
M  V30 45 1 4 40
M  V30 46 1 7 41
M  V30 47 1 8 42
M  V30 48 1 9 43
M  V30 49 1 11 44
M  V30 50 1 15 45
M  V30 51 1 17 46
M  V30 52 1 20 47
M  V30 53 1 21 48
M  V30 54 1 23 49
M  V30 55 1 23 50
M  V30 56 1 26 51
M  V30 57 1 27 52
M  V30 58 1 28 53
M  V30 59 1 32 54
M  V30 60 1 32 55
M  V30 61 1 33 56
M  V30 62 1 33 57
M  V30 END BOND
M  V30 END CTAB
M  END
>  <Dataset>  (173) 
ChEMBL_Kinases

>  <Ligand_Instance>  (173) 
nan

>  <PDB_ID>  (173) 
nan

>  <Standardized_SMILES>  (173) 
CN1CCN(c2cccc3[nH]c(-c4n[nH]c5cc(-c6ccc(N)c(F)c6)ccc45)nc23)CC1

>  <Name>  (173) 
nan

>  <Pocket>  (173) 
nan

>  <ATP_Site>  (173) 
nan

>  <Peripheral>  (173) 
nan

>  <Num_H_Atoms_ProtBoundConf>  (173) 
nan

>  <Num_Resolved_Atoms>  (173) 
nan

>  <Num_Not_Resolved_Atoms>  (173) 
nan

$$$$
CHEMBL519741
     RDKit          3D

  0  0  0  0  0  0  0  0  0  0999 V3000
M  V30 BEGIN CTAB
M  V30 COUNTS 61 63 0 0 0
M  V30 BEGIN ATOM
M  V30 1 C 0.178396 4.365829 3.868272 0
M  V30 2 C 0.882126 3.135016 4.368233 0
M  V30 3 C 2.311963 3.033395 3.969797 0
M  V30 4 C 2.517141 3.004858 2.469341 0
M  V30 5 C 3.939301 2.905470 2.075657 0
M  V30 6 C 4.714247 1.732056 2.539710 0
M  V30 7 C 4.182546 0.398755 2.071377 0
M  V30 8 C 1.706218 1.996985 1.795782 0
M  V30 9 O 0.882904 2.392820 0.898036 0
M  V30 10 O 1.205963 0.771448 1.472071 0
M  V30 11 C 0.212124 0.565854 0.488505 0
M  V30 12 C 0.003240 -0.958020 0.528471 0
M  V30 13 C 1.300432 -1.611028 0.140076 0
M  V30 14 O 1.602382 -1.266531 -1.174369 0
M  V30 15 C -1.075779 -1.380047 -0.403603 0
M  V30 16 C -2.019533 -2.105357 0.488185 0
M  V30 17 C -2.901307 -3.013273 0.120166 0
M  V30 18 C -3.012955 -3.388782 -1.284549 0
M  V30 19 C -2.921322 -2.703261 -2.474310 0
M  V30 20 N -3.108023 -3.550822 -3.513123 0
M  V30 21 C -3.067966 -3.117068 -4.896697 0
M  V30 22 C -3.320174 -4.779993 -3.011415 0
M  V30 23 C -3.560737 -5.978139 -3.681714 0
M  V30 24 C -3.749088 -7.117973 -2.927560 0
M  V30 25 C -3.705979 -7.103020 -1.542958 0
M  V30 26 C -3.462219 -5.881056 -0.916148 0
M  V30 27 C -3.268981 -4.719926 -1.634333 0
M  V30 28 C -1.768483 -1.611754 1.838454 0
M  V30 29 O -2.638355 -1.569204 2.751359 0
M  V30 30 O -0.411970 -1.231044 1.842098 0
M  V30 31 H -0.418531 4.084476 2.976265 0
M  V30 32 H -0.576351 4.703459 4.636763 0
M  V30 33 H 0.831902 5.236539 3.712671 0
M  V30 34 H 0.309829 2.223922 4.053900 0
M  V30 35 H 0.848038 3.148507 5.477409 0
M  V30 36 H 2.692128 2.079137 4.394697 0
M  V30 37 H 2.852160 3.932289 4.345820 0
M  V30 38 H 2.186680 4.053516 2.145907 0
M  V30 39 H 4.509173 3.824884 2.403386 0
M  V30 40 H 4.055490 2.940784 0.953965 0
M  V30 41 H 4.827978 1.670160 3.643546 0
M  V30 42 H 5.782973 1.781346 2.174423 0
M  V30 43 H 5.048135 -0.333280 2.107732 0
M  V30 44 H 3.865744 0.384190 1.020895 0
M  V30 45 H 3.450243 -0.032376 2.790205 0
M  V30 46 H 0.543623 0.868223 -0.536078 0
M  V30 47 H -0.761559 1.019791 0.721616 0
M  V30 48 H 1.230300 -2.717359 0.155639 0
M  V30 49 H 2.133564 -1.334196 0.840092 0
M  V30 50 H 2.295132 -1.899567 -1.535917 0
M  V30 51 H -0.713706 -2.012044 -1.242777 0
M  V30 52 H -1.589484 -0.454952 -0.756106 0
M  V30 53 H -3.534030 -3.469930 0.868072 0
M  V30 54 H -2.727919 -1.648321 -2.492080 0
M  V30 55 H -1.984895 -2.905760 -5.134603 0
M  V30 56 H -3.600860 -2.146829 -5.027040 0
M  V30 57 H -3.406458 -3.901919 -5.589679 0
M  V30 58 H -3.600281 -6.022108 -4.765239 0
M  V30 59 H -3.941256 -8.081237 -3.412929 0
M  V30 60 H -3.856045 -8.011766 -0.940913 0
M  V30 61 H -3.425641 -5.856385 0.180975 0
M  V30 END ATOM
M  V30 BEGIN BOND
M  V30 1 1 1 2
M  V30 2 1 2 3
M  V30 3 1 3 4
M  V30 4 1 4 5
M  V30 5 1 5 6
M  V30 6 1 6 7
M  V30 7 1 4 8
M  V30 8 2 8 9
M  V30 9 1 8 10
M  V30 10 1 10 11
M  V30 11 1 11 12
M  V30 12 1 12 13
M  V30 13 1 13 14
M  V30 14 1 12 15
M  V30 15 1 15 16
M  V30 16 2 16 17
M  V30 17 1 17 18
M  V30 18 2 18 19
M  V30 19 1 19 20
M  V30 20 1 20 21
M  V30 21 1 20 22
M  V30 22 2 22 23
M  V30 23 1 23 24
M  V30 24 2 24 25
M  V30 25 1 25 26
M  V30 26 2 26 27
M  V30 27 1 16 28
M  V30 28 2 28 29
M  V30 29 1 28 30
M  V30 30 1 30 12
M  V30 31 1 27 18
M  V30 32 1 27 22
M  V30 33 1 1 31
M  V30 34 1 1 32
M  V30 35 1 1 33
M  V30 36 1 2 34
M  V30 37 1 2 35
M  V30 38 1 3 36
M  V30 39 1 3 37
M  V30 40 1 4 38
M  V30 41 1 5 39
M  V30 42 1 5 40
M  V30 43 1 6 41
M  V30 44 1 6 42
M  V30 45 1 7 43
M  V30 46 1 7 44
M  V30 47 1 7 45
M  V30 48 1 11 46
M  V30 49 1 11 47
M  V30 50 1 13 48
M  V30 51 1 13 49
M  V30 52 1 14 50
M  V30 53 1 15 51
M  V30 54 1 15 52
M  V30 55 1 17 53
M  V30 56 1 19 54
M  V30 57 1 21 55
M  V30 58 1 21 56
M  V30 59 1 21 57
M  V30 60 1 23 58
M  V30 61 1 24 59
M  V30 62 1 25 60
M  V30 63 1 26 61
M  V30 END BOND
M  V30 END CTAB
M  END
>  <Dataset>  (174) 
ChEMBL_Kinases

>  <Ligand_Instance>  (174) 
nan

>  <PDB_ID>  (174) 
nan

>  <Standardized_SMILES>  (174) 
CCCC(CCC)C(=O)OCC1(CO)C/C(=C\c2cn(C)c3ccccc23)C(=O)O1

>  <Name>  (174) 
nan

>  <Pocket>  (174) 
nan

>  <ATP_Site>  (174) 
nan

>  <Peripheral>  (174) 
nan

>  <Num_H_Atoms_ProtBoundConf>  (174) 
nan

>  <Num_Resolved_Atoms>  (174) 
nan

>  <Num_Not_Resolved_Atoms>  (174) 
nan

$$$$
CHEMBL1947110
     RDKit          3D

  0  0  0  0  0  0  0  0  0  0999 V3000
M  V30 BEGIN CTAB
M  V30 COUNTS 29 32 0 0 0
M  V30 BEGIN ATOM
M  V30 1 O -2.054092 1.092391 3.806462 0
M  V30 2 C -1.076190 0.769932 3.087690 0
M  V30 3 O 0.125370 1.212698 3.373933 0
M  V30 4 C 1.197258 0.901836 2.645443 0
M  V30 5 C 2.374912 1.464459 3.105332 0
M  V30 6 C 3.498948 1.156164 2.366057 0
M  V30 7 C 3.444887 0.335398 1.236920 0
M  V30 8 O 4.603314 0.051029 0.521526 0
M  V30 9 C 2.208503 -0.161278 0.885125 0
M  V30 10 C 1.055984 0.086440 1.547808 0
M  V30 11 C -0.188765 -0.374434 1.248216 0
M  V30 12 C -1.293644 -0.051308 2.002887 0
M  V30 13 N -2.398084 -0.631355 1.498538 0
M  V30 14 C -1.961355 -1.327881 0.407404 0
M  V30 15 C -2.761439 -2.082420 -0.423992 0
M  V30 16 C -2.169850 -2.728284 -1.487172 0
M  V30 17 C -0.788242 -2.587447 -1.671352 0
M  V30 18 O -0.322889 -3.294580 -2.785172 0
M  V30 19 C -0.043930 -1.820499 -0.807301 0
M  V30 20 C -0.606333 -1.180335 0.239896 0
M  V30 21 H 2.421748 2.089927 3.964238 0
M  V30 22 H 4.451685 1.562600 2.670188 0
M  V30 23 H 4.563305 0.218858 -0.485439 0
M  V30 24 H 2.221079 -0.773338 0.028543 0
M  V30 25 H -3.360853 -0.540016 1.890995 0
M  V30 26 H -3.825727 -2.185173 -0.274113 0
M  V30 27 H -2.803354 -3.316449 -2.132540 0
M  V30 28 H 0.259669 -4.102971 -2.708012 0
M  V30 29 H 0.950982 -1.836366 -1.103414 0
M  V30 END ATOM
M  V30 BEGIN BOND
M  V30 1 2 1 2
M  V30 2 1 2 3
M  V30 3 1 3 4
M  V30 4 2 4 5
M  V30 5 1 5 6
M  V30 6 2 6 7
M  V30 7 1 7 8
M  V30 8 1 7 9
M  V30 9 2 9 10
M  V30 10 1 10 11
M  V30 11 2 11 12
M  V30 12 1 12 13
M  V30 13 1 13 14
M  V30 14 2 14 15
M  V30 15 1 15 16
M  V30 16 2 16 17
M  V30 17 1 17 18
M  V30 18 1 17 19
M  V30 19 2 19 20
M  V30 20 1 12 2
M  V30 21 1 20 14
M  V30 22 1 10 4
M  V30 23 1 20 11
M  V30 24 1 5 21
M  V30 25 1 6 22
M  V30 26 1 8 23
M  V30 27 1 9 24
M  V30 28 1 13 25
M  V30 29 1 15 26
M  V30 30 1 16 27
M  V30 31 1 18 28
M  V30 32 1 19 29
M  V30 END BOND
M  V30 END CTAB
M  END
>  <Dataset>  (175) 
ChEMBL_Kinases

>  <Ligand_Instance>  (175) 
nan

>  <PDB_ID>  (175) 
nan

>  <Standardized_SMILES>  (175) 
O=c1oc2ccc(O)cc2c2c1[nH]c1ccc(O)cc12

>  <Name>  (175) 
nan

>  <Pocket>  (175) 
nan

>  <ATP_Site>  (175) 
nan

>  <Peripheral>  (175) 
nan

>  <Num_H_Atoms_ProtBoundConf>  (175) 
nan

>  <Num_Resolved_Atoms>  (175) 
nan

>  <Num_Not_Resolved_Atoms>  (175) 
nan

$$$$
CHEMBL4754031
     RDKit          3D

  0  0  0  0  0  0  0  0  0  0999 V3000
M  V30 BEGIN CTAB
M  V30 COUNTS 57 60 0 0 0
M  V30 BEGIN ATOM
M  V30 1 C 3.940185 -2.645194 -4.610566 0
M  V30 2 N 4.706719 -2.799072 -3.417805 0
M  V30 3 C 3.971580 -3.082637 -2.233912 0
M  V30 4 C 3.553162 -1.891591 -1.424409 0
M  V30 5 C 4.460019 -0.717730 -1.654097 0
M  V30 6 C 4.497382 0.161572 -0.414862 0
M  V30 7 N 3.184642 0.672602 -0.072249 0
M  V30 8 C 2.503564 1.472928 -1.006010 0
M  V30 9 O 2.901476 1.818401 -2.148373 0
M  V30 10 C 1.158045 1.967257 -0.594511 0
M  V30 11 C 0.434321 1.812221 0.500580 0
M  V30 12 C -0.784156 2.385430 0.612597 0
M  V30 13 N -1.639821 2.278909 1.747939 0
M  V30 14 C -2.536011 1.332188 2.061686 0
M  V30 15 C -3.152198 1.617908 3.259103 0
M  V30 16 N -4.154209 0.907746 3.974822 0
M  V30 17 C -4.726514 -0.312414 3.529269 0
M  V30 18 O -4.368981 -0.832319 2.462806 0
M  V30 19 N -5.714488 -1.005876 4.242041 0
M  V30 20 C -6.109437 -2.210180 3.554507 0
M  V30 21 C -7.129009 -2.302458 2.623979 0
M  V30 22 C -7.401992 -3.522852 2.040013 0
M  V30 23 C -6.682259 -4.655920 2.361360 0
M  V30 24 C -5.653933 -4.558756 3.301036 0
M  V30 25 C -5.381517 -3.338141 3.884559 0
M  V30 26 Cl -4.078504 -3.287863 5.054851 0
M  V30 27 C -2.572855 2.801649 3.655519 0
M  V30 28 N -1.669507 3.183407 2.739199 0
M  V30 29 C -1.209118 3.124321 -0.467127 0
M  V30 30 S 0.210682 2.997669 -1.721196 0
M  V30 31 C 5.856061 -1.158380 -1.998383 0
M  V30 32 C 5.834685 -1.944534 -3.282778 0
M  V30 33 H 2.904390 -2.301877 -4.423237 0
M  V30 34 H 4.468248 -2.019436 -5.355344 0
M  V30 35 H 3.833639 -3.653240 -5.073175 0
M  V30 36 H 4.569702 -3.763269 -1.577802 0
M  V30 37 H 3.081053 -3.685132 -2.553995 0
M  V30 38 H 3.440729 -2.119744 -0.356524 0
M  V30 39 H 2.524255 -1.605320 -1.777185 0
M  V30 40 H 4.079454 -0.157126 -2.529493 0
M  V30 41 H 4.828688 -0.488927 0.416111 0
M  V30 42 H 5.196186 1.008735 -0.567571 0
M  V30 43 H 2.735331 0.451891 0.866775 0
M  V30 44 H 0.885870 1.202541 1.283711 0
M  V30 45 H -2.731430 0.471890 1.444756 0
M  V30 46 H -4.509419 1.273077 4.875845 0
M  V30 47 H -6.075356 -0.635601 5.156452 0
M  V30 48 H -7.660443 -1.380116 2.410739 0
M  V30 49 H -8.209816 -3.568813 1.310321 0
M  V30 50 H -6.879528 -5.620353 1.916224 0
M  V30 51 H -5.079132 -5.435921 3.565446 0
M  V30 52 H -2.746276 3.400906 4.536350 0
M  V30 53 H -2.206170 3.689758 -0.575517 0
M  V30 54 H 6.253846 -1.774835 -1.183172 0
M  V30 55 H 6.499430 -0.274663 -2.132310 0
M  V30 56 H 5.840212 -1.260474 -4.180485 0
M  V30 57 H 6.770535 -2.535992 -3.365415 0
M  V30 END ATOM
M  V30 BEGIN BOND
M  V30 1 1 1 2
M  V30 2 1 2 3
M  V30 3 1 3 4
M  V30 4 1 4 5
M  V30 5 1 5 6
M  V30 6 1 6 7
M  V30 7 1 7 8
M  V30 8 2 8 9
M  V30 9 1 8 10
M  V30 10 2 10 11
M  V30 11 1 11 12
M  V30 12 1 12 13
M  V30 13 1 13 14
M  V30 14 2 14 15
M  V30 15 1 15 16
M  V30 16 1 16 17
M  V30 17 2 17 18
M  V30 18 1 17 19
M  V30 19 1 19 20
M  V30 20 2 20 21
M  V30 21 1 21 22
M  V30 22 2 22 23
M  V30 23 1 23 24
M  V30 24 2 24 25
M  V30 25 1 25 26
M  V30 26 1 15 27
M  V30 27 2 27 28
M  V30 28 2 12 29
M  V30 29 1 29 30
M  V30 30 1 5 31
M  V30 31 1 31 32
M  V30 32 1 32 2
M  V30 33 1 30 10
M  V30 34 1 28 13
M  V30 35 1 25 20
M  V30 36 1 1 33
M  V30 37 1 1 34
M  V30 38 1 1 35
M  V30 39 1 3 36
M  V30 40 1 3 37
M  V30 41 1 4 38
M  V30 42 1 4 39
M  V30 43 1 5 40
M  V30 44 1 6 41
M  V30 45 1 6 42
M  V30 46 1 7 43
M  V30 47 1 11 44
M  V30 48 1 14 45
M  V30 49 1 16 46
M  V30 50 1 19 47
M  V30 51 1 21 48
M  V30 52 1 22 49
M  V30 53 1 23 50
M  V30 54 1 24 51
M  V30 55 1 27 52
M  V30 56 1 29 53
M  V30 57 1 31 54
M  V30 58 1 31 55
M  V30 59 1 32 56
M  V30 60 1 32 57
M  V30 END BOND
M  V30 END CTAB
M  END
>  <Dataset>  (176) 
ChEMBL_Kinases

>  <Ligand_Instance>  (176) 
nan

>  <PDB_ID>  (176) 
nan

>  <Standardized_SMILES>  (176) 
CN1CCC(CNC(=O)c2cc(-n3cc(NC(=O)Nc4ccccc4Cl)cn3)cs2)CC1

>  <Name>  (176) 
nan

>  <Pocket>  (176) 
nan

>  <ATP_Site>  (176) 
nan

>  <Peripheral>  (176) 
nan

>  <Num_H_Atoms_ProtBoundConf>  (176) 
nan

>  <Num_Resolved_Atoms>  (176) 
nan

>  <Num_Not_Resolved_Atoms>  (176) 
nan

$$$$
CHEMBL510515
     RDKit          3D

  0  0  0  0  0  0  0  0  0  0999 V3000
M  V30 BEGIN CTAB
M  V30 COUNTS 37 40 0 0 0
M  V30 BEGIN ATOM
M  V30 1 O -2.790688 0.247317 0.801698 0
M  V30 2 C -2.064200 -0.299392 1.661828 0
M  V30 3 N -0.714308 0.017074 1.975914 0
M  V30 4 C -0.018915 1.076903 1.273341 0
M  V30 5 N 0.617395 1.040040 0.305599 0
M  V30 6 C 1.232462 2.074070 -0.284639 0
M  V30 7 C 2.019650 1.950722 -1.506915 0
M  V30 8 C 2.650196 3.018393 -2.109562 0
M  V30 9 C 3.400817 2.934583 -3.264135 0
M  V30 10 N 3.541620 1.738911 -3.861459 0
M  V30 11 C 2.958211 0.645789 -3.337829 0
M  V30 12 C 2.214530 0.765317 -2.182156 0
M  V30 13 C 1.078401 3.325873 0.350761 0
M  V30 14 S 0.002215 2.851880 1.814410 0
M  V30 15 C -2.818068 -1.370706 2.348644 0
M  V30 16 C -3.135803 -2.415548 1.289202 0
M  V30 17 O -1.913225 -2.877258 0.724552 0
M  V30 18 C -0.922087 -3.306806 1.594469 0
M  V30 19 C 0.072650 -4.155772 1.146228 0
M  V30 20 C 1.054514 -4.576727 2.022469 0
M  V30 21 C 1.031344 -4.140767 3.348936 0
M  V30 22 C 0.015615 -3.297132 3.733128 0
M  V30 23 C -0.986746 -2.847883 2.900277 0
M  V30 24 O -2.000730 -1.993156 3.323464 0
M  V30 25 H -0.222526 -0.509832 2.709315 0
M  V30 26 H 2.577183 4.008330 -1.680464 0
M  V30 27 H 3.871127 3.801853 -3.690755 0
M  V30 28 H 3.075090 -0.327488 -3.827456 0
M  V30 29 H 1.756410 -0.143089 -1.787127 0
M  V30 30 H 1.498693 4.264785 0.022408 0
M  V30 31 H -3.761279 -1.018708 2.806213 0
M  V30 32 H -3.635186 -3.295632 1.773992 0
M  V30 33 H -3.779785 -1.985031 0.503869 0
M  V30 34 H 0.034691 -4.461886 0.092936 0
M  V30 35 H 1.828624 -5.248152 1.639633 0
M  V30 36 H 1.805868 -4.473469 4.038118 0
M  V30 37 H 0.023888 -2.973832 4.774065 0
M  V30 END ATOM
M  V30 BEGIN BOND
M  V30 1 2 1 2
M  V30 2 1 2 3
M  V30 3 1 3 4
M  V30 4 2 4 5
M  V30 5 1 5 6
M  V30 6 1 6 7
M  V30 7 2 7 8
M  V30 8 1 8 9
M  V30 9 2 9 10
M  V30 10 1 10 11
M  V30 11 2 11 12
M  V30 12 2 6 13
M  V30 13 1 13 14
M  V30 14 1 2 15
M  V30 15 1 15 16
M  V30 16 1 16 17
M  V30 17 1 17 18
M  V30 18 2 18 19
M  V30 19 1 19 20
M  V30 20 2 20 21
M  V30 21 1 21 22
M  V30 22 2 22 23
M  V30 23 1 23 24
M  V30 24 1 14 4
M  V30 25 1 24 15
M  V30 26 1 12 7
M  V30 27 1 23 18
M  V30 28 1 3 25
M  V30 29 1 8 26
M  V30 30 1 9 27
M  V30 31 1 11 28
M  V30 32 1 12 29
M  V30 33 1 13 30
M  V30 34 1 15 31
M  V30 35 1 16 32
M  V30 36 1 16 33
M  V30 37 1 19 34
M  V30 38 1 20 35
M  V30 39 1 21 36
M  V30 40 1 22 37
M  V30 END BOND
M  V30 END CTAB
M  END
>  <Dataset>  (177) 
ChEMBL_Kinases

>  <Ligand_Instance>  (177) 
nan

>  <PDB_ID>  (177) 
nan

>  <Standardized_SMILES>  (177) 
O=C(Nc1nc(-c2ccncc2)cs1)C1COc2ccccc2O1

>  <Name>  (177) 
nan

>  <Pocket>  (177) 
nan

>  <ATP_Site>  (177) 
nan

>  <Peripheral>  (177) 
nan

>  <Num_H_Atoms_ProtBoundConf>  (177) 
nan

>  <Num_Resolved_Atoms>  (177) 
nan

>  <Num_Not_Resolved_Atoms>  (177) 
nan

$$$$
CHEMBL510009
     RDKit          3D

  0  0  0  0  0  0  0  0  0  0999 V3000
M  V30 BEGIN CTAB
M  V30 COUNTS 42 45 0 0 0
M  V30 BEGIN ATOM
M  V30 1 N -1.996758 -4.141155 -2.522023 0
M  V30 2 C -0.869276 -4.251308 -2.234622 0
M  V30 3 C 0.498633 -4.399806 -1.864960 0
M  V30 4 C 1.072232 -5.661360 -1.878818 0
M  V30 5 C 2.394760 -5.784286 -1.516478 0
M  V30 6 C 3.175026 -4.708354 -1.140157 0
M  V30 7 C 2.534080 -3.480709 -1.150484 0
M  V30 8 C 1.213568 -3.277174 -1.500872 0
M  V30 9 C 0.667034 -1.922115 -1.468711 0
M  V30 10 C -0.088921 -1.518682 -2.556199 0
M  V30 11 C -0.605460 -0.245371 -2.530044 0
M  V30 12 C -0.375074 0.584804 -1.463737 0
M  V30 13 N -0.899984 1.845574 -1.463659 0
M  V30 14 C -0.658768 2.656802 -0.392728 0
M  V30 15 N 0.067232 2.283072 0.662244 0
M  V30 16 C 0.602359 1.055506 0.706720 0
M  V30 17 N 1.375467 0.648417 1.819030 0
M  V30 18 C 1.671133 1.442687 2.979922 0
M  V30 19 C 0.487347 1.855109 3.759248 0
M  V30 20 C 0.027389 0.937269 4.713697 0
M  V30 21 C -1.051243 1.127361 5.551667 0
M  V30 22 C -1.739289 2.317575 5.447224 0
M  V30 23 C -1.321348 3.250295 4.521234 0
M  V30 24 C -0.237788 3.024774 3.700393 0
M  V30 25 C 0.371299 0.218963 -0.364922 0
M  V30 26 C 0.871269 -1.051296 -0.419411 0
M  V30 27 H 0.461012 -6.505989 -2.173880 0
M  V30 28 H 2.822682 -6.785170 -1.535289 0
M  V30 29 H 4.214951 -4.799182 -0.854421 0
M  V30 30 H 3.123618 -2.599835 -0.856595 0
M  V30 31 H -0.318563 -2.099394 -3.430675 0
M  V30 32 H -1.209865 0.146116 -3.346253 0
M  V30 33 H -1.082077 3.667889 -0.396882 0
M  V30 34 H 1.804538 -0.298228 1.879153 0
M  V30 35 H 2.218838 2.384436 2.707088 0
M  V30 36 H 2.350435 0.934214 3.691529 0
M  V30 37 H 0.537851 -0.024378 4.838228 0
M  V30 38 H -1.351455 0.387447 6.258800 0
M  V30 39 H -2.594117 2.540425 6.067899 0
M  V30 40 H -1.857770 4.178480 4.439650 0
M  V30 41 H 0.095786 3.739375 2.991673 0
M  V30 42 H 1.464111 -1.465342 0.358138 0
M  V30 END ATOM
M  V30 BEGIN BOND
M  V30 1 3 1 2
M  V30 2 1 2 3
M  V30 3 2 3 4
M  V30 4 1 4 5
M  V30 5 2 5 6
M  V30 6 1 6 7
M  V30 7 2 7 8
M  V30 8 1 8 9
M  V30 9 2 9 10
M  V30 10 1 10 11
M  V30 11 2 11 12
M  V30 12 1 12 13
M  V30 13 2 13 14
M  V30 14 1 14 15
M  V30 15 2 15 16
M  V30 16 1 16 17
M  V30 17 1 17 18
M  V30 18 1 18 19
M  V30 19 2 19 20
M  V30 20 1 20 21
M  V30 21 2 21 22
M  V30 22 1 22 23
M  V30 23 2 23 24
M  V30 24 1 16 25
M  V30 25 2 25 26
M  V30 26 1 8 3
M  V30 27 1 26 9
M  V30 28 1 25 12
M  V30 29 1 24 19
M  V30 30 1 4 27
M  V30 31 1 5 28
M  V30 32 1 6 29
M  V30 33 1 7 30
M  V30 34 1 10 31
M  V30 35 1 11 32
M  V30 36 1 14 33
M  V30 37 1 17 34
M  V30 38 1 18 35
M  V30 39 1 18 36
M  V30 40 1 20 37
M  V30 41 1 21 38
M  V30 42 1 22 39
M  V30 43 1 23 40
M  V30 44 1 24 41
M  V30 45 1 26 42
M  V30 END BOND
M  V30 END CTAB
M  END
>  <Dataset>  (178) 
ChEMBL_Kinases

>  <Ligand_Instance>  (178) 
nan

>  <PDB_ID>  (178) 
nan

>  <Standardized_SMILES>  (178) 
N#Cc1ccccc1-c1ccc2ncnc(NCc3ccccc3)c2c1

>  <Name>  (178) 
nan

>  <Pocket>  (178) 
nan

>  <ATP_Site>  (178) 
nan

>  <Peripheral>  (178) 
nan

>  <Num_H_Atoms_ProtBoundConf>  (178) 
nan

>  <Num_Resolved_Atoms>  (178) 
nan

>  <Num_Not_Resolved_Atoms>  (178) 
nan

$$$$
CHEMBL4754518
     RDKit          3D

  0  0  0  0  0  0  0  0  0  0999 V3000
M  V30 BEGIN CTAB
M  V30 COUNTS 44 46 0 0 0
M  V30 BEGIN ATOM
M  V30 1 C -4.223355 -5.611149 2.122409 0
M  V30 2 O -3.065409 -5.781861 1.323084 0
M  V30 3 C -2.394941 -4.648444 0.839230 0
M  V30 4 C -1.254222 -4.742020 0.050553 0
M  V30 5 C -0.605754 -3.608664 -0.418075 0
M  V30 6 C -1.091188 -2.356098 -0.103178 0
M  V30 7 C -0.486182 -1.172971 -0.542532 0
M  V30 8 C -0.979506 0.075346 -0.222095 0
M  V30 9 C -0.303560 1.308813 -0.711630 0 CFG=2
M  V30 10 C -0.204477 1.290726 -2.220816 0
M  V30 11 C 1.066140 1.371512 -0.087315 0
M  V30 12 O 1.211526 0.356626 0.655818 0
M  V30 13 N 1.964998 2.421780 -0.346207 0
M  V30 14 C 3.182126 2.192365 0.397679 0
M  V30 15 C 3.253030 2.721227 1.673074 0
M  V30 16 C 4.427729 2.502397 2.396389 0
M  V30 17 C 4.597956 3.030424 3.772986 0
M  V30 18 C 5.434748 1.772801 1.784883 0
M  V30 19 C 5.353637 1.248840 0.510048 0
M  V30 20 N 4.189675 1.485548 -0.161487 0
M  V30 21 C -2.127568 0.176380 0.571552 0
M  V30 22 C -2.720880 -1.011371 1.002880 0
M  V30 23 C -2.227876 -2.238774 0.682298 0
M  V30 24 C -2.859092 -3.390025 1.139276 0
M  V30 25 H -3.985014 -5.106260 3.098660 0
M  V30 26 H -4.668542 -6.582209 2.353320 0
M  V30 27 H -4.951443 -4.933441 1.622752 0
M  V30 28 H -0.881037 -5.735209 -0.191030 0
M  V30 29 H 0.283616 -3.666460 -1.033247 0
M  V30 30 H 0.412755 -1.276751 -1.163534 0
M  V30 31 H -0.853349 2.185979 -0.344547 0
M  V30 32 H 0.786509 1.573731 -2.591913 0
M  V30 33 H -0.572838 0.317410 -2.598246 0
M  V30 34 H -0.917738 2.077600 -2.600942 0
M  V30 35 H 1.582498 3.149977 -1.014765 0
M  V30 36 H 2.436540 3.289823 2.116749 0
M  V30 37 H 3.708922 2.771938 4.400970 0
M  V30 38 H 4.814489 4.109170 3.799069 0
M  V30 39 H 5.450151 2.486684 4.238851 0
M  V30 40 H 6.349423 1.615922 2.378725 0
M  V30 41 H 6.177679 0.681566 0.077339 0
M  V30 42 H -2.554283 1.128180 0.850898 0
M  V30 43 H -3.613557 -0.912077 1.619619 0
M  V30 44 H -3.744451 -3.239799 1.750034 0
M  V30 END ATOM
M  V30 BEGIN BOND
M  V30 1 1 1 2
M  V30 2 1 2 3
M  V30 3 2 3 4
M  V30 4 1 4 5
M  V30 5 2 5 6
M  V30 6 1 6 7
M  V30 7 2 7 8
M  V30 8 1 8 9
M  V30 9 1 9 10
M  V30 10 1 9 11
M  V30 11 2 11 12
M  V30 12 1 11 13
M  V30 13 1 13 14
M  V30 14 2 14 15
M  V30 15 1 15 16
M  V30 16 1 16 17
M  V30 17 2 16 18
M  V30 18 1 18 19
M  V30 19 2 19 20
M  V30 20 1 8 21
M  V30 21 2 21 22
M  V30 22 1 22 23
M  V30 23 2 23 24
M  V30 24 1 24 3
M  V30 25 1 23 6
M  V30 26 1 20 14
M  V30 27 1 1 25
M  V30 28 1 1 26
M  V30 29 1 1 27
M  V30 30 1 4 28
M  V30 31 1 5 29
M  V30 32 1 7 30
M  V30 33 1 9 31 CFG=3
M  V30 34 1 10 32
M  V30 35 1 10 33
M  V30 36 1 10 34
M  V30 37 1 13 35
M  V30 38 1 15 36
M  V30 39 1 17 37
M  V30 40 1 17 38
M  V30 41 1 17 39
M  V30 42 1 18 40
M  V30 43 1 19 41
M  V30 44 1 21 42
M  V30 45 1 22 43
M  V30 46 1 24 44
M  V30 END BOND
M  V30 END CTAB
M  END
>  <Dataset>  (179) 
ChEMBL_Kinases

>  <Ligand_Instance>  (179) 
nan

>  <PDB_ID>  (179) 
nan

>  <Standardized_SMILES>  (179) 
COc1ccc2cc([C@H](C)C(=O)Nc3cc(C)ccn3)ccc2c1

>  <Name>  (179) 
nan

>  <Pocket>  (179) 
nan

>  <ATP_Site>  (179) 
nan

>  <Peripheral>  (179) 
nan

>  <Num_H_Atoms_ProtBoundConf>  (179) 
nan

>  <Num_Resolved_Atoms>  (179) 
nan

>  <Num_Not_Resolved_Atoms>  (179) 
nan

$$$$
CHEMBL1343539
     RDKit          3D

  0  0  0  0  0  0  0  0  0  0999 V3000
M  V30 BEGIN CTAB
M  V30 COUNTS 47 48 0 0 0
M  V30 BEGIN ATOM
M  V30 1 C -1.274275 -5.608633 3.537813 0
M  V30 2 C -0.322928 -4.608179 2.978823 0
M  V30 3 C 0.588792 -5.054778 2.036108 0
M  V30 4 C 1.495415 -4.145623 1.490559 0
M  V30 5 C 1.480031 -2.822244 1.887526 0
M  V30 6 N 2.470124 -1.994038 1.244010 0
M  V30 7 C 1.975943 -1.405581 0.037069 0
M  V30 8 O 0.779351 -1.790546 -0.124807 0
M  V30 9 C 2.884712 -0.523428 -0.739584 0
M  V30 10 C 2.180355 -0.005077 -1.971056 0
M  V30 11 C 0.940208 0.798132 -1.625060 0
M  V30 12 C 1.272868 1.995604 -0.772934 0
M  V30 13 C 0.039287 2.793990 -0.437090 0
M  V30 14 C -0.910973 1.921059 0.322085 0
M  V30 15 N -0.337432 1.420553 1.556838 0
M  V30 16 C -1.325816 1.325745 2.577505 0
M  V30 17 O -1.246739 0.925667 3.768393 0
M  V30 18 N -2.529846 1.809805 1.949299 0
M  V30 19 C -2.080282 2.713898 0.891774 0
M  V30 20 C -3.112322 2.830448 -0.202456 0
M  V30 21 C 0.565677 -2.383678 2.830265 0
M  V30 22 C -0.328843 -3.286421 3.366875 0
M  V30 23 H -2.243731 -5.552179 3.006403 0
M  V30 24 H -0.862817 -6.631976 3.519968 0
M  V30 25 H -1.476359 -5.270725 4.585549 0
M  V30 26 H 0.621266 -6.086107 1.708466 0
M  V30 27 H 2.196664 -4.531540 0.753201 0
M  V30 28 H 3.447823 -1.846748 1.631349 0
M  V30 29 H 3.321508 0.276782 -0.127969 0
M  V30 30 H 3.714585 -1.164886 -1.100218 0
M  V30 31 H 1.831549 -0.880277 -2.554849 0
M  V30 32 H 2.820922 0.604143 -2.605615 0
M  V30 33 H 0.564574 1.188787 -2.593539 0
M  V30 34 H 0.140768 0.174202 -1.219081 0
M  V30 35 H 2.029669 2.640090 -1.291629 0
M  V30 36 H 1.791720 1.676455 0.163670 0
M  V30 37 H 0.342357 3.677562 0.162466 0
M  V30 38 H -0.400123 3.184164 -1.369443 0
M  V30 39 H -1.338574 1.084560 -0.220749 0
M  V30 40 H 0.646152 1.142428 1.766151 0
M  V30 41 H -3.520052 1.548625 2.217880 0
M  V30 42 H -1.781043 3.660011 1.344522 0
M  V30 43 H -3.221360 1.820117 -0.646332 0
M  V30 44 H -2.722379 3.540841 -0.947624 0
M  V30 45 H -4.082355 3.201264 0.146576 0
M  V30 46 H 0.607662 -1.345741 3.093385 0
M  V30 47 H -1.041646 -2.960797 4.097104 0
M  V30 END ATOM
M  V30 BEGIN BOND
M  V30 1 1 1 2
M  V30 2 2 2 3
M  V30 3 1 3 4
M  V30 4 2 4 5
M  V30 5 1 5 6
M  V30 6 1 6 7
M  V30 7 2 7 8
M  V30 8 1 7 9
M  V30 9 1 9 10
M  V30 10 1 10 11
M  V30 11 1 11 12
M  V30 12 1 12 13
M  V30 13 1 13 14
M  V30 14 1 14 15
M  V30 15 1 15 16
M  V30 16 2 16 17
M  V30 17 1 16 18
M  V30 18 1 18 19
M  V30 19 1 19 20
M  V30 20 1 5 21
M  V30 21 2 21 22
M  V30 22 1 22 2
M  V30 23 1 19 14
M  V30 24 1 1 23
M  V30 25 1 1 24
M  V30 26 1 1 25
M  V30 27 1 3 26
M  V30 28 1 4 27
M  V30 29 1 6 28
M  V30 30 1 9 29
M  V30 31 1 9 30
M  V30 32 1 10 31
M  V30 33 1 10 32
M  V30 34 1 11 33
M  V30 35 1 11 34
M  V30 36 1 12 35
M  V30 37 1 12 36
M  V30 38 1 13 37
M  V30 39 1 13 38
M  V30 40 1 14 39
M  V30 41 1 15 40
M  V30 42 1 18 41
M  V30 43 1 19 42
M  V30 44 1 20 43
M  V30 45 1 20 44
M  V30 46 1 20 45
M  V30 47 1 21 46
M  V30 48 1 22 47
M  V30 END BOND
M  V30 END CTAB
M  END
>  <Dataset>  (180) 
ChEMBL_Kinases

>  <Ligand_Instance>  (180) 
nan

>  <PDB_ID>  (180) 
nan

>  <Standardized_SMILES>  (180) 
Cc1ccc(NC(=O)CCCCCC2NC(=O)NC2C)cc1

>  <Name>  (180) 
nan

>  <Pocket>  (180) 
nan

>  <ATP_Site>  (180) 
nan

>  <Peripheral>  (180) 
nan

>  <Num_H_Atoms_ProtBoundConf>  (180) 
nan

>  <Num_Resolved_Atoms>  (180) 
nan

>  <Num_Not_Resolved_Atoms>  (180) 
nan

$$$$
CHEMBL1928909
     RDKit          3D

  0  0  0  0  0  0  0  0  0  0999 V3000
M  V30 BEGIN CTAB
M  V30 COUNTS 35 36 0 0 0
M  V30 BEGIN ATOM
M  V30 1 C -0.773504 -3.216703 1.876413 0
M  V30 2 N 0.523960 -2.887649 1.332653 0
M  V30 3 C 1.416789 -4.061026 1.257903 0
M  V30 4 C 1.041397 -1.652696 0.876969 0
M  V30 5 N 2.324891 -1.526440 0.426168 0
M  V30 6 C 2.547107 -0.260983 0.063359 0
M  V30 7 C 3.740314 0.209485 -0.437577 0
M  V30 8 Br 5.283941 -0.869957 -0.697647 0
M  V30 9 C 3.788969 1.563488 -0.764495 0
M  V30 10 Br 5.362643 2.337947 -1.461713 0
M  V30 11 C 2.666246 2.339119 -0.573041 0
M  V30 12 Br 2.716121 4.188597 -1.014751 0
M  V30 13 C 1.514236 1.780471 -0.065555 0
M  V30 14 Br -0.025519 2.860399 0.194366 0
M  V30 15 C 1.390722 0.454696 0.279427 0
M  V30 16 N 0.505258 -0.424132 0.771301 0
M  V30 17 C -0.824273 -0.042680 1.117148 0
M  V30 18 C -1.726636 -0.195700 -0.092481 0
M  V30 19 C -3.153331 0.175629 0.205359 0
M  V30 20 C -3.353539 1.558525 0.646656 0
M  V30 21 O -3.393280 2.387913 -0.318251 0
M  V30 22 O -3.491330 1.969594 1.976319 0
M  V30 23 H -1.623098 -2.994124 1.218514 0
M  V30 24 H -0.904449 -2.824041 2.931685 0
M  V30 25 H -0.861189 -4.334847 2.047431 0
M  V30 26 H 1.229150 -4.624184 0.319103 0
M  V30 27 H 2.483381 -3.759929 1.199805 0
M  V30 28 H 1.305102 -4.717629 2.125737 0
M  V30 29 H -1.228843 -0.767778 1.854783 0
M  V30 30 H -0.928528 0.931961 1.633988 0
M  V30 31 H -1.712287 -1.265169 -0.375448 0
M  V30 32 H -1.330335 0.334044 -0.985771 0
M  V30 33 H -3.746144 -0.040423 -0.705467 0
M  V30 34 H -3.526677 -0.474740 1.046476 0
M  V30 35 H -3.343104 2.977508 2.119925 0
M  V30 END ATOM
M  V30 BEGIN BOND
M  V30 1 1 1 2
M  V30 2 1 2 3
M  V30 3 1 2 4
M  V30 4 2 4 5
M  V30 5 1 5 6
M  V30 6 2 6 7
M  V30 7 1 7 8
M  V30 8 1 7 9
M  V30 9 1 9 10
M  V30 10 2 9 11
M  V30 11 1 11 12
M  V30 12 1 11 13
M  V30 13 1 13 14
M  V30 14 2 13 15
M  V30 15 1 15 16
M  V30 16 1 16 17
M  V30 17 1 17 18
M  V30 18 1 18 19
M  V30 19 1 19 20
M  V30 20 2 20 21
M  V30 21 1 20 22
M  V30 22 1 16 4
M  V30 23 1 15 6
M  V30 24 1 1 23
M  V30 25 1 1 24
M  V30 26 1 1 25
M  V30 27 1 3 26
M  V30 28 1 3 27
M  V30 29 1 3 28
M  V30 30 1 17 29
M  V30 31 1 17 30
M  V30 32 1 18 31
M  V30 33 1 18 32
M  V30 34 1 19 33
M  V30 35 1 19 34
M  V30 36 1 22 35
M  V30 END BOND
M  V30 END CTAB
M  END
>  <Dataset>  (181) 
ChEMBL_Kinases

>  <Ligand_Instance>  (181) 
nan

>  <PDB_ID>  (181) 
nan

>  <Standardized_SMILES>  (181) 
CN(C)c1nc2c(Br)c(Br)c(Br)c(Br)c2n1CCCC(=O)O

>  <Name>  (181) 
nan

>  <Pocket>  (181) 
nan

>  <ATP_Site>  (181) 
nan

>  <Peripheral>  (181) 
nan

>  <Num_H_Atoms_ProtBoundConf>  (181) 
nan

>  <Num_Resolved_Atoms>  (181) 
nan

>  <Num_Not_Resolved_Atoms>  (181) 
nan

$$$$
CHEMBL509747
     RDKit          3D

  0  0  0  0  0  0  0  0  0  0999 V3000
M  V30 BEGIN CTAB
M  V30 COUNTS 78 85 0 0 0
M  V30 BEGIN ATOM
M  V30 1 N 11.109671 4.095530 2.882152 0
M  V30 2 C 9.889123 3.681084 2.241595 0
M  V30 3 O 9.875082 4.016752 1.044475 0
M  V30 4 N 8.880440 2.983316 2.956743 0
M  V30 5 C 7.720647 2.622218 2.232105 0
M  V30 6 N 7.498885 2.884709 0.937794 0
M  V30 7 N 6.296492 2.397879 0.576178 0
M  V30 8 C 5.824723 1.840206 1.711987 0
M  V30 9 C 4.599255 1.208585 1.823212 0
M  V30 10 C 3.712622 1.078588 0.766791 0
M  V30 11 C 2.506697 0.432802 0.974649 0
M  V30 12 C 1.554613 0.282290 -0.115052 0
M  V30 13 C 1.088528 -0.888688 -0.640391 0
M  V30 14 C 0.184421 -0.876056 -1.681856 0
M  V30 15 C -0.293051 0.292828 -2.243971 0
M  V30 16 C 0.151226 1.518061 -1.744489 0
M  V30 17 C 1.059901 1.449870 -0.697023 0
M  V30 18 C 2.165663 -0.090416 2.223281 0
M  V30 19 C 0.875829 -0.752646 2.381300 0
M  V30 20 C -0.235232 0.050765 2.223816 0
M  V30 21 C -1.482905 -0.563996 2.373416 0
M  V30 22 C -1.619850 -1.925603 2.668849 0
M  V30 23 C -3.033014 -2.289710 2.773928 0
M  V30 24 N -3.659461 -2.662195 1.527813 0
M  V30 25 C -5.078275 -2.914405 1.842816 0
M  V30 26 C -5.881985 -2.953369 0.553983 0
M  V30 27 C -5.239644 -3.882171 -0.477651 0
M  V30 28 C -4.728522 -3.117981 -1.626302 0
M  V30 29 N -3.445585 -2.741027 -1.766847 0
M  V30 30 N -3.305284 -2.064980 -2.893318 0
M  V30 31 C -4.506506 -1.995359 -3.499667 0
M  V30 32 C -4.807966 -1.351570 -4.765140 0
M  V30 33 C -6.084837 -1.310140 -5.261880 0
M  V30 34 C -6.557544 -0.726289 -6.417150 0
M  V30 35 C -5.536337 -0.100918 -7.151203 0
M  V30 36 C -4.239538 -0.118042 -6.687824 0
M  V30 37 N -3.852460 -0.725732 -5.516900 0
M  V30 38 N -5.365687 -2.645642 -2.709847 0
M  V30 39 C -4.200597 -4.693807 0.220840 0
M  V30 40 C -3.146185 -3.853641 0.920079 0
M  V30 41 C -0.469687 -2.672002 2.813077 0
M  V30 42 C 0.772583 -2.095833 2.671497 0
M  V30 43 N 3.065243 0.064843 3.210582 0
M  V30 44 C 4.248020 0.680826 3.070622 0
M  V30 45 C 5.129162 0.812005 4.120075 0
M  V30 46 C 6.345630 1.449187 3.974070 0
M  V30 47 N 6.669785 1.955351 2.757138 0
M  V30 48 H 12.026424 3.696192 2.540019 0
M  V30 49 H 10.828031 4.762141 3.617900 0
M  V30 50 H 9.025339 2.768911 3.958397 0
M  V30 51 H 3.981089 1.481344 -0.185103 0
M  V30 52 H 1.472703 -1.789819 -0.188127 0
M  V30 53 H -0.150129 -1.846115 -2.058581 0
M  V30 54 H -1.012818 0.299512 -3.072092 0
M  V30 55 H -0.171854 2.473263 -2.127808 0
M  V30 56 H 1.399849 2.407370 -0.314586 0
M  V30 57 H -0.137060 1.103678 1.993264 0
M  V30 58 H -2.311400 0.152956 2.229969 0
M  V30 59 H -3.090367 -3.199560 3.423307 0
M  V30 60 H -3.629938 -1.526682 3.323727 0
M  V30 61 H -5.453052 -2.117042 2.482402 0
M  V30 62 H -5.144036 -3.878189 2.379503 0
M  V30 63 H -6.081120 -1.961244 0.152692 0
M  V30 64 H -6.854138 -3.413074 0.832570 0
M  V30 65 H -6.033746 -4.585537 -0.866195 0
M  V30 66 H -2.396698 -1.653808 -3.245474 0
M  V30 67 H -6.883880 -1.800201 -4.685200 0
M  V30 68 H -7.569291 -0.732182 -6.738495 0
M  V30 69 H -5.757546 0.395890 -8.082060 0
M  V30 70 H -3.456391 0.366945 -7.258382 0
M  V30 71 H -4.733322 -5.317161 0.991017 0
M  V30 72 H -3.682775 -5.415073 -0.444192 0
M  V30 73 H -2.682970 -4.544538 1.679155 0
M  V30 74 H -2.355399 -3.625902 0.175608 0
M  V30 75 H -0.677604 -3.703186 3.038108 0
M  V30 76 H 1.642212 -2.721472 2.791659 0
M  V30 77 H 4.897031 0.415466 5.111245 0
M  V30 78 H 7.073614 1.571173 4.789315 0
M  V30 END ATOM
M  V30 BEGIN BOND
M  V30 1 1 1 2
M  V30 2 2 2 3
M  V30 3 1 2 4
M  V30 4 1 4 5
M  V30 5 2 5 6
M  V30 6 1 6 7
M  V30 7 2 7 8
M  V30 8 1 8 9
M  V30 9 2 9 10
M  V30 10 1 10 11
M  V30 11 1 11 12
M  V30 12 2 12 13
M  V30 13 1 13 14
M  V30 14 2 14 15
M  V30 15 1 15 16
M  V30 16 2 16 17
M  V30 17 2 11 18
M  V30 18 1 18 19
M  V30 19 2 19 20
M  V30 20 1 20 21
M  V30 21 2 21 22
M  V30 22 1 22 23
M  V30 23 1 23 24
M  V30 24 1 24 25
M  V30 25 1 25 26
M  V30 26 1 26 27
M  V30 27 1 27 28
M  V30 28 2 28 29
M  V30 29 1 29 30
M  V30 30 1 30 31
M  V30 31 1 31 32
M  V30 32 2 32 33
M  V30 33 1 33 34
M  V30 34 2 34 35
M  V30 35 1 35 36
M  V30 36 2 36 37
M  V30 37 2 31 38
M  V30 38 1 27 39
M  V30 39 1 39 40
M  V30 40 1 22 41
M  V30 41 2 41 42
M  V30 42 1 18 43
M  V30 43 2 43 44
M  V30 44 1 44 45
M  V30 45 2 45 46
M  V30 46 1 46 47
M  V30 47 1 47 5
M  V30 48 1 47 8
M  V30 49 1 44 9
M  V30 50 1 17 12
M  V30 51 1 42 19
M  V30 52 1 40 24
M  V30 53 1 38 28
M  V30 54 1 37 32
M  V30 55 1 1 48
M  V30 56 1 1 49
M  V30 57 1 4 50
M  V30 58 1 10 51
M  V30 59 1 13 52
M  V30 60 1 14 53
M  V30 61 1 15 54
M  V30 62 1 16 55
M  V30 63 1 17 56
M  V30 64 1 20 57
M  V30 65 1 21 58
M  V30 66 1 23 59
M  V30 67 1 23 60
M  V30 68 1 25 61
M  V30 69 1 25 62
M  V30 70 1 26 63
M  V30 71 1 26 64
M  V30 72 1 27 65
M  V30 73 1 30 66
M  V30 74 1 33 67
M  V30 75 1 34 68
M  V30 76 1 35 69
M  V30 77 1 36 70
M  V30 78 1 39 71
M  V30 79 1 39 72
M  V30 80 1 40 73
M  V30 81 1 40 74
M  V30 82 1 41 75
M  V30 83 1 42 76
M  V30 84 1 45 77
M  V30 85 1 46 78
M  V30 END BOND
M  V30 END CTAB
M  END
>  <Dataset>  (182) 
ChEMBL_Kinases

>  <Ligand_Instance>  (182) 
nan

>  <PDB_ID>  (182) 
nan

>  <Standardized_SMILES>  (182) 
NC(=O)Nc1nnc2c3cc(-c4ccccc4)c(-c4ccc(CN5CCC(c6n[nH]c(-c7ccccn7)n6)CC5)cc4)nc3ccn12

>  <Name>  (182) 
nan

>  <Pocket>  (182) 
nan

>  <ATP_Site>  (182) 
nan

>  <Peripheral>  (182) 
nan

>  <Num_H_Atoms_ProtBoundConf>  (182) 
nan

>  <Num_Resolved_Atoms>  (182) 
nan

>  <Num_Not_Resolved_Atoms>  (182) 
nan

$$$$
CHEMBL1928908
     RDKit          3D

  0  0  0  0  0  0  0  0  0  0999 V3000
M  V30 BEGIN CTAB
M  V30 COUNTS 27 28 0 0 0
M  V30 BEGIN ATOM
M  V30 1 O -1.211745 -4.309034 2.267517 0
M  V30 2 C -1.479816 -3.059174 2.261322 0
M  V30 3 O -2.768489 -3.167388 1.842845 0
M  V30 4 C -0.437341 -2.067863 2.654051 0
M  V30 5 C 0.840131 -2.230274 1.877382 0
M  V30 6 C 0.599405 -2.041736 0.405708 0
M  V30 7 N 0.077124 -0.742409 0.077532 0
M  V30 8 C -1.243004 -0.413598 0.013901 0
M  V30 9 N -1.405003 0.900258 -0.326316 0
M  V30 10 C -0.189257 1.448681 -0.489825 0
M  V30 11 C 0.206263 2.729008 -0.836874 0
M  V30 12 Br -1.141923 4.025120 -1.151796 0
M  V30 13 C 1.569469 2.915924 -0.913052 0
M  V30 14 Br 2.045119 4.720190 -1.411840 0
M  V30 15 C 2.510978 1.940273 -0.673151 0
M  V30 16 Br 4.363271 2.423122 -0.841098 0
M  V30 17 C 2.084846 0.667833 -0.327856 0
M  V30 18 Br 3.408196 -0.664135 -0.000650 0
M  V30 19 C 0.721280 0.421168 -0.236338 0
M  V30 20 H -3.553493 -3.218022 2.438330 0
M  V30 21 H -0.237174 -2.242914 3.745617 0
M  V30 22 H -0.844869 -1.026977 2.589279 0
M  V30 23 H 1.622386 -1.631286 2.323660 0
M  V30 24 H 1.141314 -3.306960 2.021894 0
M  V30 25 H -0.205573 -2.773211 0.139322 0
M  V30 26 H 1.459960 -2.370354 -0.177530 0
M  V30 27 H -2.086397 -1.070609 0.206200 0
M  V30 END ATOM
M  V30 BEGIN BOND
M  V30 1 2 1 2
M  V30 2 1 2 3
M  V30 3 1 2 4
M  V30 4 1 4 5
M  V30 5 1 5 6
M  V30 6 1 6 7
M  V30 7 1 7 8
M  V30 8 2 8 9
M  V30 9 1 9 10
M  V30 10 2 10 11
M  V30 11 1 11 12
M  V30 12 1 11 13
M  V30 13 1 13 14
M  V30 14 2 13 15
M  V30 15 1 15 16
M  V30 16 1 15 17
M  V30 17 1 17 18
M  V30 18 2 17 19
M  V30 19 1 19 7
M  V30 20 1 19 10
M  V30 21 1 3 20
M  V30 22 1 4 21
M  V30 23 1 4 22
M  V30 24 1 5 23
M  V30 25 1 5 24
M  V30 26 1 6 25
M  V30 27 1 6 26
M  V30 28 1 8 27
M  V30 END BOND
M  V30 END CTAB
M  END
>  <Dataset>  (183) 
ChEMBL_Kinases

>  <Ligand_Instance>  (183) 
nan

>  <PDB_ID>  (183) 
nan

>  <Standardized_SMILES>  (183) 
O=C(O)CCCn1cnc2c(Br)c(Br)c(Br)c(Br)c21

>  <Name>  (183) 
nan

>  <Pocket>  (183) 
nan

>  <ATP_Site>  (183) 
nan

>  <Peripheral>  (183) 
nan

>  <Num_H_Atoms_ProtBoundConf>  (183) 
nan

>  <Num_Resolved_Atoms>  (183) 
nan

>  <Num_Not_Resolved_Atoms>  (183) 
nan

$$$$
CHEMBL1928907
     RDKit          3D

  0  0  0  0  0  0  0  0  0  0999 V3000
M  V30 BEGIN CTAB
M  V30 COUNTS 31 32 0 0 0
M  V30 BEGIN ATOM
M  V30 1 C -1.745054 -1.385807 2.303604 0
M  V30 2 N -0.640079 -0.523992 1.934515 0
M  V30 3 C 0.716708 -0.661533 1.927590 0
M  V30 4 S 1.298347 -2.239558 2.503763 0
M  V30 5 C 1.455080 -3.500066 1.265080 0
M  V30 6 C 2.525683 -3.341533 0.245214 0
M  V30 7 C 2.434103 -2.117252 -0.595892 0
M  V30 8 C 1.181986 -2.005866 -1.375124 0
M  V30 9 O 1.202773 -0.929494 -2.059493 0
M  V30 10 O 0.070385 -2.794811 -1.492259 0
M  V30 11 N 1.208173 0.510109 1.475915 0
M  V30 12 C 0.211207 1.361000 1.205344 0
M  V30 13 C 0.307096 2.667606 0.721594 0
M  V30 14 Br 1.994579 3.471171 0.353940 0
M  V30 15 C -0.877281 3.343905 0.523729 0
M  V30 16 Br -0.863128 5.134470 -0.131875 0
M  V30 17 C -2.100212 2.763362 0.789015 0
M  V30 18 Br -3.745839 3.704130 0.514156 0
M  V30 19 C -2.091704 1.469496 1.263589 0
M  V30 20 Br -3.788332 0.678082 1.620901 0
M  V30 21 C -0.966986 0.703852 1.496723 0
M  V30 22 H -2.380686 -0.941968 3.102775 0
M  V30 23 H -2.296946 -1.793439 1.447009 0
M  V30 24 H -1.284193 -2.280511 2.821708 0
M  V30 25 H 0.481247 -3.497208 0.676435 0
M  V30 26 H 1.469813 -4.527747 1.701293 0
M  V30 27 H 2.460310 -4.272354 -0.399970 0
M  V30 28 H 3.522283 -3.347514 0.776441 0
M  V30 29 H 3.249741 -2.213470 -1.390612 0
M  V30 30 H 2.686327 -1.233396 0.004579 0
M  V30 31 H -0.540764 -2.723977 -2.314223 0
M  V30 END ATOM
M  V30 BEGIN BOND
M  V30 1 1 1 2
M  V30 2 1 2 3
M  V30 3 1 3 4
M  V30 4 1 4 5
M  V30 5 1 5 6
M  V30 6 1 6 7
M  V30 7 1 7 8
M  V30 8 2 8 9
M  V30 9 1 8 10
M  V30 10 2 3 11
M  V30 11 1 11 12
M  V30 12 2 12 13
M  V30 13 1 13 14
M  V30 14 1 13 15
M  V30 15 1 15 16
M  V30 16 2 15 17
M  V30 17 1 17 18
M  V30 18 1 17 19
M  V30 19 1 19 20
M  V30 20 2 19 21
M  V30 21 1 21 2
M  V30 22 1 21 12
M  V30 23 1 1 22
M  V30 24 1 1 23
M  V30 25 1 1 24
M  V30 26 1 5 25
M  V30 27 1 5 26
M  V30 28 1 6 27
M  V30 29 1 6 28
M  V30 30 1 7 29
M  V30 31 1 7 30
M  V30 32 1 10 31
M  V30 END BOND
M  V30 END CTAB
M  END
>  <Dataset>  (184) 
ChEMBL_Kinases

>  <Ligand_Instance>  (184) 
nan

>  <PDB_ID>  (184) 
nan

>  <Standardized_SMILES>  (184) 
Cn1c(SCCCC(=O)O)nc2c(Br)c(Br)c(Br)c(Br)c21

>  <Name>  (184) 
nan

>  <Pocket>  (184) 
nan

>  <ATP_Site>  (184) 
nan

>  <Peripheral>  (184) 
nan

>  <Num_H_Atoms_ProtBoundConf>  (184) 
nan

>  <Num_Resolved_Atoms>  (184) 
nan

>  <Num_Not_Resolved_Atoms>  (184) 
nan

$$$$
CHEMBL513827
     RDKit          3D

  0  0  0  0  0  0  0  0  0  0999 V3000
M  V30 BEGIN CTAB
M  V30 COUNTS 45 48 0 0 0
M  V30 BEGIN ATOM
M  V30 1 C 1.749675 -5.635397 1.380360 0
M  V30 2 O 1.381407 -4.334761 1.032700 0
M  V30 3 C 2.273825 -3.441162 0.411110 0
M  V30 4 C 3.568540 -3.733222 0.084196 0
M  V30 5 C 4.297017 -2.740532 -0.518468 0
M  V30 6 C 3.702345 -1.520355 -0.761466 0
M  V30 7 C 2.372860 -1.194683 -0.435221 0
M  V30 8 C 2.030046 0.164954 -0.808228 0
M  V30 9 C 2.478418 0.652162 -2.042188 0
M  V30 10 N 2.250727 1.904772 -2.466502 0
M  V30 11 C 1.565826 2.770973 -1.709744 0
M  V30 12 C 1.094855 2.363707 -0.488819 0
M  V30 13 C 0.370632 3.324547 0.281384 0
M  V30 14 N -0.211232 4.118729 0.893497 0
M  V30 15 C 1.327288 1.077613 -0.052734 0
M  V30 16 N 0.770095 0.697208 1.191574 0
M  V30 17 C -0.567059 0.736365 1.677009 0
M  V30 18 C -0.575432 1.500662 2.853825 0
M  V30 19 C -1.737016 1.743036 3.573224 0
M  V30 20 C -2.937682 1.221892 3.131162 0
M  V30 21 N -4.231232 1.231740 3.533274 0
M  V30 22 C -5.007257 0.530680 2.687539 0
M  V30 23 C -4.187216 0.029376 1.671463 0
M  V30 24 C -2.924506 0.481901 1.989480 0
M  V30 25 C -1.784811 0.239886 1.276467 0
M  V30 26 C -1.701573 -0.531432 0.022998 0
M  V30 27 C 1.700861 -2.221405 0.161120 0
M  V30 28 H 2.434227 -6.118045 0.671750 0
M  V30 29 H 2.125189 -5.729504 2.419324 0
M  V30 30 H 0.810216 -6.253192 1.339930 0
M  V30 31 H 3.882485 -4.720589 0.336625 0
M  V30 32 H 5.314073 -2.968776 -0.775607 0
M  V30 33 H 4.390994 -0.818135 -1.245695 0
M  V30 34 H 3.034787 -0.027869 -2.673359 0
M  V30 35 H 1.441718 3.747750 -2.145267 0
M  V30 36 H 1.547059 0.338767 1.789210 0
M  V30 37 H 0.270627 1.991835 3.355788 0
M  V30 38 H -1.805211 2.322542 4.484002 0
M  V30 39 H -4.492984 1.753832 4.414301 0
M  V30 40 H -6.071220 0.429296 2.849944 0
M  V30 41 H -4.538238 -0.569822 0.855206 0
M  V30 42 H -1.679966 -1.626132 0.245889 0
M  V30 43 H -2.684885 -0.397094 -0.517568 0
M  V30 44 H -0.909593 -0.215134 -0.658815 0
M  V30 45 H 0.690153 -1.949985 0.405476 0
M  V30 END ATOM
M  V30 BEGIN BOND
M  V30 1 1 1 2
M  V30 2 1 2 3
M  V30 3 2 3 4
M  V30 4 1 4 5
M  V30 5 2 5 6
M  V30 6 1 6 7
M  V30 7 1 7 8
M  V30 8 2 8 9
M  V30 9 1 9 10
M  V30 10 2 10 11
M  V30 11 1 11 12
M  V30 12 1 12 13
M  V30 13 3 13 14
M  V30 14 2 12 15
M  V30 15 1 15 16
M  V30 16 1 16 17
M  V30 17 2 17 18
M  V30 18 1 18 19
M  V30 19 2 19 20
M  V30 20 1 20 21
M  V30 21 1 21 22
M  V30 22 2 22 23
M  V30 23 1 23 24
M  V30 24 2 24 25
M  V30 25 1 25 26
M  V30 26 2 7 27
M  V30 27 1 27 3
M  V30 28 1 15 8
M  V30 29 1 25 17
M  V30 30 1 24 20
M  V30 31 1 1 28
M  V30 32 1 1 29
M  V30 33 1 1 30
M  V30 34 1 4 31
M  V30 35 1 5 32
M  V30 36 1 6 33
M  V30 37 1 9 34
M  V30 38 1 11 35
M  V30 39 1 16 36
M  V30 40 1 18 37
M  V30 41 1 19 38
M  V30 42 1 21 39
M  V30 43 1 22 40
M  V30 44 1 23 41
M  V30 45 1 26 42
M  V30 46 1 26 43
M  V30 47 1 26 44
M  V30 48 1 27 45
M  V30 END BOND
M  V30 END CTAB
M  END
>  <Dataset>  (185) 
ChEMBL_Kinases

>  <Ligand_Instance>  (185) 
nan

>  <PDB_ID>  (185) 
nan

>  <Standardized_SMILES>  (185) 
COc1cccc(-c2cncc(C#N)c2Nc2ccc3[nH]ccc3c2C)c1

>  <Name>  (185) 
nan

>  <Pocket>  (185) 
nan

>  <ATP_Site>  (185) 
nan

>  <Peripheral>  (185) 
nan

>  <Num_H_Atoms_ProtBoundConf>  (185) 
nan

>  <Num_Resolved_Atoms>  (185) 
nan

>  <Num_Not_Resolved_Atoms>  (185) 
nan

$$$$
CHEMBL1928905
     RDKit          3D

  0  0  0  0  0  0  0  0  0  0999 V3000
M  V30 BEGIN CTAB
M  V30 COUNTS 25 26 0 0 0
M  V30 BEGIN ATOM
M  V30 1 C -0.775420 -0.978364 2.427366 0
M  V30 2 N -0.443974 -0.453879 1.110103 0
M  V30 3 C -0.362454 -1.090354 -0.056404 0
M  V30 4 S -0.638389 -2.866875 -0.299288 0
M  V30 5 C 1.002802 -3.659925 -0.057743 0
M  V30 6 C 1.336766 -3.468127 1.374301 0
M  V30 7 O 0.767095 -4.394514 2.006587 0
M  V30 8 O 2.079614 -2.574306 2.118586 0
M  V30 9 N -0.028896 -0.315089 -1.080193 0
M  V30 10 C 0.129795 0.944353 -0.576350 0
M  V30 11 C 0.469910 2.172621 -1.107187 0
M  V30 12 Br 0.819423 2.256059 -2.989503 0
M  V30 13 C 0.549160 3.270346 -0.283480 0
M  V30 14 Br 1.033091 4.925511 -1.095168 0
M  V30 15 C 0.302835 3.226243 1.078033 0
M  V30 16 Br 0.432147 4.768406 2.167305 0
M  V30 17 C -0.038537 1.968989 1.573529 0
M  V30 18 Br -0.401075 1.816466 3.434286 0
M  V30 19 C -0.135218 0.816501 0.781609 0
M  V30 20 H -1.719215 -0.522013 2.808546 0
M  V30 21 H 0.060013 -0.871288 3.121095 0
M  V30 22 H -0.992227 -2.063590 2.358604 0
M  V30 23 H 0.994897 -4.686070 -0.407160 0
M  V30 24 H 1.693103 -3.039196 -0.704999 0
M  V30 25 H 1.950199 -2.586541 3.127486 0
M  V30 END ATOM
M  V30 BEGIN BOND
M  V30 1 1 1 2
M  V30 2 1 2 3
M  V30 3 1 3 4
M  V30 4 1 4 5
M  V30 5 1 5 6
M  V30 6 2 6 7
M  V30 7 1 6 8
M  V30 8 2 3 9
M  V30 9 1 9 10
M  V30 10 2 10 11
M  V30 11 1 11 12
M  V30 12 1 11 13
M  V30 13 1 13 14
M  V30 14 2 13 15
M  V30 15 1 15 16
M  V30 16 1 15 17
M  V30 17 1 17 18
M  V30 18 2 17 19
M  V30 19 1 19 2
M  V30 20 1 19 10
M  V30 21 1 1 20
M  V30 22 1 1 21
M  V30 23 1 1 22
M  V30 24 1 5 23
M  V30 25 1 5 24
M  V30 26 1 8 25
M  V30 END BOND
M  V30 END CTAB
M  END
>  <Dataset>  (186) 
ChEMBL_Kinases

>  <Ligand_Instance>  (186) 
nan

>  <PDB_ID>  (186) 
nan

>  <Standardized_SMILES>  (186) 
Cn1c(SCC(=O)O)nc2c(Br)c(Br)c(Br)c(Br)c21

>  <Name>  (186) 
nan

>  <Pocket>  (186) 
nan

>  <ATP_Site>  (186) 
nan

>  <Peripheral>  (186) 
nan

>  <Num_H_Atoms_ProtBoundConf>  (186) 
nan

>  <Num_Resolved_Atoms>  (186) 
nan

>  <Num_Not_Resolved_Atoms>  (186) 
nan

$$$$
CHEMBL5095192
     RDKit          3D

  0  0  0  0  0  0  0  0  0  0999 V3000
M  V30 BEGIN CTAB
M  V30 COUNTS 56 58 0 0 0
M  V30 BEGIN ATOM
M  V30 1 C -0.276139 -2.230809 4.235091 0
M  V30 2 C 0.676305 -2.196408 3.065829 0
M  V30 3 C 1.983143 -2.846435 3.526766 0
M  V30 4 C 0.956489 -0.812632 2.623498 0
M  V30 5 C 1.873689 -0.160994 3.434554 0
M  V30 6 N 2.271979 1.106086 3.202691 0
M  V30 7 C 1.827622 1.852520 2.179266 0
M  V30 8 C 2.326232 3.195939 2.032604 0
M  V30 9 C 3.241293 3.639263 2.963826 0
M  V30 10 C 3.784361 4.905245 2.921141 0
M  V30 11 Cl 4.942767 5.424086 4.125195 0
M  V30 12 C 3.437145 5.803215 1.934867 0
M  V30 13 C 2.524674 5.396628 0.985217 0
M  V30 14 C 2.012545 4.121560 1.073680 0
M  V30 15 F 1.124142 3.779896 0.116948 0
M  V30 16 C 0.922506 1.192487 1.389087 0
M  V30 17 C 0.467842 -0.089570 1.556699 0
M  V30 18 N -0.439300 -0.752987 0.700901 0
M  V30 19 C -1.730578 -1.286754 0.742542 0
M  V30 20 C -2.463332 -1.146103 1.896214 0
M  V30 21 C -3.736339 -1.645830 2.050132 0
M  V30 22 N -4.222256 -2.298980 0.957417 0
M  V30 23 C -3.513133 -2.433660 -0.156844 0
M  V30 24 C -2.235294 -1.942250 -0.336059 0
M  V30 25 C -1.597113 -2.161643 -1.581370 0
M  V30 26 O -0.469766 -1.851187 -2.041467 0
M  V30 27 N -2.214682 -2.855663 -2.635253 0
M  V30 28 C -1.714755 -3.161053 -3.943555 0
M  V30 29 C -2.515826 -2.500429 -5.042188 0
M  V30 30 O -1.989083 -2.828650 -6.303895 0
M  V30 31 C -1.595432 -4.643223 -4.124536 0
M  V30 32 O -1.106008 -4.981030 -5.401621 0
M  V30 33 H 0.190456 -2.681527 5.153248 0
M  V30 34 H -1.166902 -2.859146 4.039180 0
M  V30 35 H -0.560022 -1.199848 4.531820 0
M  V30 36 H 0.272891 -2.756801 2.197116 0
M  V30 37 H 2.081612 -2.615792 4.607189 0
M  V30 38 H 1.816253 -3.957665 3.492781 0
M  V30 39 H 2.850927 -2.542571 2.935036 0
M  V30 40 H 2.346006 -0.613968 4.320234 0
M  V30 41 H 3.591113 3.008057 3.795132 0
M  V30 42 H 3.848897 6.800813 1.880108 0
M  V30 43 H 2.226160 6.071334 0.195069 0
M  V30 44 H 0.506797 1.705905 0.541171 0
M  V30 45 H 0.156400 -0.784073 -0.153275 0
M  V30 46 H -2.079485 -0.617114 2.755656 0
M  V30 47 H -4.286141 -1.517642 2.973302 0
M  V30 48 H -4.113987 -2.982997 -0.865028 0
M  V30 49 H -3.193687 -3.275450 -2.610033 0
M  V30 50 H -0.689043 -2.750712 -4.041286 0
M  V30 51 H -2.421869 -1.401137 -4.925980 0
M  V30 52 H -3.573080 -2.766271 -5.056057 0
M  V30 53 H -2.064360 -2.039441 -6.891900 0
M  V30 54 H -2.542327 -5.177238 -3.916589 0
M  V30 55 H -0.821289 -5.005524 -3.404817 0
M  V30 56 H -0.305512 -4.437692 -5.576606 0
M  V30 END ATOM
M  V30 BEGIN BOND
M  V30 1 1 1 2
M  V30 2 1 2 3
M  V30 3 1 2 4
M  V30 4 2 4 5
M  V30 5 1 5 6
M  V30 6 2 6 7
M  V30 7 1 7 8
M  V30 8 2 8 9
M  V30 9 1 9 10
M  V30 10 1 10 11
M  V30 11 2 10 12
M  V30 12 1 12 13
M  V30 13 2 13 14
M  V30 14 1 14 15
M  V30 15 1 7 16
M  V30 16 2 16 17
M  V30 17 1 17 18
M  V30 18 1 18 19
M  V30 19 2 19 20
M  V30 20 1 20 21
M  V30 21 2 21 22
M  V30 22 1 22 23
M  V30 23 2 23 24
M  V30 24 1 24 25
M  V30 25 2 25 26
M  V30 26 1 25 27
M  V30 27 1 27 28
M  V30 28 1 28 29
M  V30 29 1 29 30
M  V30 30 1 28 31
M  V30 31 1 31 32
M  V30 32 1 17 4
M  V30 33 1 24 19
M  V30 34 1 14 8
M  V30 35 1 1 33
M  V30 36 1 1 34
M  V30 37 1 1 35
M  V30 38 1 2 36
M  V30 39 1 3 37
M  V30 40 1 3 38
M  V30 41 1 3 39
M  V30 42 1 5 40
M  V30 43 1 9 41
M  V30 44 1 12 42
M  V30 45 1 13 43
M  V30 46 1 16 44
M  V30 47 1 18 45
M  V30 48 1 20 46
M  V30 49 1 21 47
M  V30 50 1 23 48
M  V30 51 1 27 49
M  V30 52 1 28 50
M  V30 53 1 29 51
M  V30 54 1 29 52
M  V30 55 1 30 53
M  V30 56 1 31 54
M  V30 57 1 31 55
M  V30 58 1 32 56
M  V30 END BOND
M  V30 END CTAB
M  END
>  <Dataset>  (187) 
ChEMBL_Kinases

>  <Ligand_Instance>  (187) 
nan

>  <PDB_ID>  (187) 
nan

>  <Standardized_SMILES>  (187) 
CC(C)c1cnc(-c2cc(Cl)ccc2F)cc1Nc1ccncc1C(=O)NC(CO)CO

>  <Name>  (187) 
PF-06952229

>  <Pocket>  (187) 
nan

>  <ATP_Site>  (187) 
nan

>  <Peripheral>  (187) 
nan

>  <Num_H_Atoms_ProtBoundConf>  (187) 
nan

>  <Num_Resolved_Atoms>  (187) 
nan

>  <Num_Not_Resolved_Atoms>  (187) 
nan

$$$$
CHEMBL5094921
     RDKit          3D

  0  0  0  0  0  0  0  0  0  0999 V3000
M  V30 BEGIN CTAB
M  V30 COUNTS 66 70 0 0 0
M  V30 BEGIN ATOM
M  V30 1 C 2.597628 -5.624028 -0.116591 0
M  V30 2 C 3.491882 -4.446129 0.071586 0
M  V30 3 N 4.832021 -4.364841 0.162465 0
M  V30 4 N 5.215572 -3.110064 0.328452 0
M  V30 5 C 4.093743 -2.366184 0.344419 0
M  V30 6 N 3.977716 -1.033323 0.488798 0
M  V30 7 C 2.766370 -0.409123 0.486128 0
M  V30 8 C 2.653640 1.043854 0.643222 0
M  V30 9 C 3.825399 1.764086 0.795257 0
M  V30 10 C 3.789724 3.155625 0.949969 0
M  V30 11 C 2.565626 3.825350 0.951544 0
M  V30 12 N 2.651555 5.212970 1.112813 0
M  V30 13 S 1.614725 6.074824 2.194571 0
M  V30 14 O 1.926943 7.563302 2.135666 0
M  V30 15 O 1.810337 5.667756 3.624756 0
M  V30 16 C -0.059543 5.911074 1.740822 0
M  V30 17 C -0.982096 5.341958 2.618117 0
M  V30 18 C -2.330484 5.196819 2.283723 0
M  V30 19 Cl -3.464249 4.474592 3.414561 0
M  V30 20 C -2.726687 5.647538 1.024150 0
M  V30 21 C -1.813867 6.208170 0.161924 0
M  V30 22 C -0.475887 6.348035 0.503551 0
M  V30 23 F 0.354066 6.911897 -0.408678 0
M  V30 24 C 1.408857 3.090771 0.798854 0
M  V30 25 C 1.440616 1.702836 0.644299 0
M  V30 26 N 1.663742 -1.176245 0.331996 0
M  V30 27 C 1.717271 -2.517962 0.182710 0
M  V30 28 O 0.654726 -3.355374 0.023017 0
M  V30 29 C -0.712599 -2.988692 -0.014522 0
M  V30 30 C -1.357686 -3.624780 1.176935 0
M  V30 31 C -2.036903 -4.935019 0.858634 0
M  V30 32 N -2.833005 -4.901801 -0.305657 0
M  V30 33 C -4.147335 -4.431327 -0.254018 0
M  V30 34 C -5.087098 -5.179248 0.644710 0
M  V30 35 C -4.746384 -4.417462 -1.644038 0
M  V30 36 C -2.036844 -4.596667 -1.438625 0
M  V30 37 C -1.360984 -3.278758 -1.318532 0
M  V30 38 C 2.958029 -3.157816 0.185259 0
M  V30 39 H 2.177876 -5.667659 -1.140710 0
M  V30 40 H 3.159324 -6.535466 0.151896 0
M  V30 41 H 1.746732 -5.531913 0.592054 0
M  V30 42 H 6.195438 -2.750517 0.428845 0
M  V30 43 H 4.824254 1.303720 0.803575 0
M  V30 44 H 4.745206 3.689071 1.067773 0
M  V30 45 H 3.375065 5.746912 0.552878 0
M  V30 46 H -0.659806 4.999148 3.586988 0
M  V30 47 H -3.765759 5.549804 0.732659 0
M  V30 48 H -2.148490 6.547313 -0.804734 0
M  V30 49 H 0.477304 3.625238 0.802328 0
M  V30 50 H 0.528524 1.127720 0.524099 0
M  V30 51 H -0.717823 -1.886409 0.119501 0
M  V30 52 H -0.629795 -3.752797 2.003349 0
M  V30 53 H -2.142953 -2.942320 1.566485 0
M  V30 54 H -2.528072 -5.337007 1.767547 0
M  V30 55 H -1.199510 -5.654967 0.647736 0
M  V30 56 H -4.162202 -3.369480 0.094688 0
M  V30 57 H -4.627479 -5.391904 1.634286 0
M  V30 58 H -5.530816 -6.072919 0.164168 0
M  V30 59 H -5.947693 -4.510498 0.857633 0
M  V30 60 H -4.400546 -3.552269 -2.233233 0
M  V30 61 H -5.868865 -4.360843 -1.527978 0
M  V30 62 H -4.532740 -5.354163 -2.193100 0
M  V30 63 H -1.267642 -5.397672 -1.531784 0
M  V30 64 H -2.653992 -4.602324 -2.376309 0
M  V30 65 H -0.614711 -3.223374 -2.157143 0
M  V30 66 H -2.112587 -2.495340 -1.598508 0
M  V30 END ATOM
M  V30 BEGIN BOND
M  V30 1 1 1 2
M  V30 2 2 2 3
M  V30 3 1 3 4
M  V30 4 1 4 5
M  V30 5 2 5 6
M  V30 6 1 6 7
M  V30 7 1 7 8
M  V30 8 2 8 9
M  V30 9 1 9 10
M  V30 10 2 10 11
M  V30 11 1 11 12
M  V30 12 1 12 13
M  V30 13 2 13 14
M  V30 14 2 13 15
M  V30 15 1 13 16
M  V30 16 2 16 17
M  V30 17 1 17 18
M  V30 18 1 18 19
M  V30 19 2 18 20
M  V30 20 1 20 21
M  V30 21 2 21 22
M  V30 22 1 22 23
M  V30 23 1 11 24
M  V30 24 2 24 25
M  V30 25 2 7 26
M  V30 26 1 26 27
M  V30 27 1 27 28
M  V30 28 1 28 29
M  V30 29 1 29 30
M  V30 30 1 30 31
M  V30 31 1 31 32
M  V30 32 1 32 33
M  V30 33 1 33 34
M  V30 34 1 33 35
M  V30 35 1 32 36
M  V30 36 1 36 37
M  V30 37 2 27 38
M  V30 38 1 38 2
M  V30 39 1 38 5
M  V30 40 1 25 8
M  V30 41 1 37 29
M  V30 42 1 22 16
M  V30 43 1 1 39
M  V30 44 1 1 40
M  V30 45 1 1 41
M  V30 46 1 4 42
M  V30 47 1 9 43
M  V30 48 1 10 44
M  V30 49 1 12 45
M  V30 50 1 17 46
M  V30 51 1 20 47
M  V30 52 1 21 48
M  V30 53 1 24 49
M  V30 54 1 25 50
M  V30 55 1 29 51
M  V30 56 1 30 52
M  V30 57 1 30 53
M  V30 58 1 31 54
M  V30 59 1 31 55
M  V30 60 1 33 56
M  V30 61 1 34 57
M  V30 62 1 34 58
M  V30 63 1 34 59
M  V30 64 1 35 60
M  V30 65 1 35 61
M  V30 66 1 35 62
M  V30 67 1 36 63
M  V30 68 1 36 64
M  V30 69 1 37 65
M  V30 70 1 37 66
M  V30 END BOND
M  V30 END CTAB
M  END
>  <Dataset>  (188) 
ChEMBL_Kinases

>  <Ligand_Instance>  (188) 
nan

>  <PDB_ID>  (188) 
nan

>  <Standardized_SMILES>  (188) 
Cc1n[nH]c2nc(-c3ccc(NS(=O)(=O)c4cc(Cl)ccc4F)cc3)nc(OC3CCN(C(C)C)CC3)c12

>  <Name>  (188) 
nan

>  <Pocket>  (188) 
nan

>  <ATP_Site>  (188) 
nan

>  <Peripheral>  (188) 
nan

>  <Num_H_Atoms_ProtBoundConf>  (188) 
nan

>  <Num_Resolved_Atoms>  (188) 
nan

>  <Num_Not_Resolved_Atoms>  (188) 
nan

$$$$
CHEMBL1928904
     RDKit          3D

  0  0  0  0  0  0  0  0  0  0999 V3000
M  V30 BEGIN CTAB
M  V30 COUNTS 28 29 0 0 0
M  V30 BEGIN ATOM
M  V30 1 O 1.221728 -3.957005 4.275682 0
M  V30 2 C 0.328210 -3.153706 3.922362 0
M  V30 3 O 0.126663 -2.083934 4.812161 0
M  V30 4 C -0.443633 -3.321167 2.676159 0
M  V30 5 C 0.519767 -3.359619 1.501403 0
M  V30 6 C -0.315181 -3.540465 0.263119 0
M  V30 7 S -1.462149 -2.151172 0.129341 0
M  V30 8 C -0.511614 -0.679960 -0.200482 0
M  V30 9 N -1.331367 0.392424 -0.267663 0
M  V30 10 C -0.551824 1.485874 -0.517659 0
M  V30 11 C -0.760248 2.863757 -0.696141 0
M  V30 12 Br -2.566394 3.497708 -0.589942 0
M  V30 13 C 0.289838 3.707056 -0.936724 0
M  V30 14 Br -0.016289 5.576869 -1.170927 0
M  V30 15 C 1.597037 3.233904 -1.013706 0
M  V30 16 Br 3.091450 4.386871 -1.336672 0
M  V30 17 C 1.864082 1.884909 -0.846188 0
M  V30 18 Br 3.622021 1.165761 -0.939462 0
M  V30 19 C 0.769734 1.085403 -0.607066 0
M  V30 20 N 0.740009 -0.243318 -0.407558 0
M  V30 21 H 0.904960 -1.736248 5.367388 0
M  V30 22 H -1.052490 -4.258913 2.690766 0
M  V30 23 H -1.151557 -2.479821 2.573790 0
M  V30 24 H 1.081407 -2.410141 1.509631 0
M  V30 25 H 1.244397 -4.196735 1.631856 0
M  V30 26 H -0.862511 -4.500103 0.257693 0
M  V30 27 H 0.385149 -3.449275 -0.605928 0
M  V30 28 H 1.444410 -1.011941 -0.372622 0
M  V30 END ATOM
M  V30 BEGIN BOND
M  V30 1 2 1 2
M  V30 2 1 2 3
M  V30 3 1 2 4
M  V30 4 1 4 5
M  V30 5 1 5 6
M  V30 6 1 6 7
M  V30 7 1 7 8
M  V30 8 2 8 9
M  V30 9 1 9 10
M  V30 10 2 10 11
M  V30 11 1 11 12
M  V30 12 1 11 13
M  V30 13 1 13 14
M  V30 14 2 13 15
M  V30 15 1 15 16
M  V30 16 1 15 17
M  V30 17 1 17 18
M  V30 18 2 17 19
M  V30 19 1 19 20
M  V30 20 1 20 8
M  V30 21 1 19 10
M  V30 22 1 3 21
M  V30 23 1 4 22
M  V30 24 1 4 23
M  V30 25 1 5 24
M  V30 26 1 5 25
M  V30 27 1 6 26
M  V30 28 1 6 27
M  V30 29 1 20 28
M  V30 END BOND
M  V30 END CTAB
M  END
>  <Dataset>  (189) 
ChEMBL_Kinases

>  <Ligand_Instance>  (189) 
nan

>  <PDB_ID>  (189) 
nan

>  <Standardized_SMILES>  (189) 
O=C(O)CCCSc1nc2c(Br)c(Br)c(Br)c(Br)c2[nH]1

>  <Name>  (189) 
nan

>  <Pocket>  (189) 
nan

>  <ATP_Site>  (189) 
nan

>  <Peripheral>  (189) 
nan

>  <Num_H_Atoms_ProtBoundConf>  (189) 
nan

>  <Num_Resolved_Atoms>  (189) 
nan

>  <Num_Not_Resolved_Atoms>  (189) 
nan

$$$$
CHEMBL1928903
     RDKit          3D

  0  0  0  0  0  0  0  0  0  0999 V3000
M  V30 BEGIN CTAB
M  V30 COUNTS 25 26 0 0 0
M  V30 BEGIN ATOM
M  V30 1 O 0.373433 -3.657242 4.197770 0
M  V30 2 C 0.110080 -2.674719 3.453345 0
M  V30 3 O -1.249494 -2.887207 3.522870 0
M  V30 4 C 1.340662 -1.991902 3.026991 0
M  V30 5 C 2.051704 -2.784117 1.924360 0
M  V30 6 S 0.847206 -2.852455 0.538628 0
M  V30 7 C 0.622741 -1.169585 -0.059467 0
M  V30 8 N 1.236157 -0.409109 -0.981479 0
M  V30 9 C 0.641753 0.817737 -1.010958 0
M  V30 10 C 0.898793 1.938034 -1.771770 0
M  V30 11 Br 2.312370 1.865178 -3.035106 0
M  V30 12 C 0.127597 3.068930 -1.592278 0
M  V30 13 Br 0.470903 4.630832 -2.637568 0
M  V30 14 C -0.871520 3.008315 -0.644948 0
M  V30 15 Br -1.938267 4.566733 -0.393038 0
M  V30 16 C -1.150299 1.900977 0.130325 0
M  V30 17 Br -2.558023 1.941362 1.406554 0
M  V30 18 C -0.367566 0.755675 -0.053209 0
M  V30 19 N -0.382161 -0.467115 0.534939 0
M  V30 20 H -1.654412 -3.504781 2.810020 0
M  V30 21 H 1.072735 -1.021066 2.508635 0
M  V30 22 H 2.007801 -1.830831 3.871293 0
M  V30 23 H 2.901361 -2.184301 1.571174 0
M  V30 24 H 2.325241 -3.792577 2.234698 0
M  V30 25 H -1.083348 -0.671402 1.278182 0
M  V30 END ATOM
M  V30 BEGIN BOND
M  V30 1 2 1 2
M  V30 2 1 2 3
M  V30 3 1 2 4
M  V30 4 1 4 5
M  V30 5 1 5 6
M  V30 6 1 6 7
M  V30 7 2 7 8
M  V30 8 1 8 9
M  V30 9 2 9 10
M  V30 10 1 10 11
M  V30 11 1 10 12
M  V30 12 1 12 13
M  V30 13 2 12 14
M  V30 14 1 14 15
M  V30 15 1 14 16
M  V30 16 1 16 17
M  V30 17 2 16 18
M  V30 18 1 18 19
M  V30 19 1 19 7
M  V30 20 1 18 9
M  V30 21 1 3 20
M  V30 22 1 4 21
M  V30 23 1 4 22
M  V30 24 1 5 23
M  V30 25 1 5 24
M  V30 26 1 19 25
M  V30 END BOND
M  V30 END CTAB
M  END
>  <Dataset>  (190) 
ChEMBL_Kinases

>  <Ligand_Instance>  (190) 
nan

>  <PDB_ID>  (190) 
nan

>  <Standardized_SMILES>  (190) 
O=C(O)CCSc1nc2c(Br)c(Br)c(Br)c(Br)c2[nH]1

>  <Name>  (190) 
nan

>  <Pocket>  (190) 
nan

>  <ATP_Site>  (190) 
nan

>  <Peripheral>  (190) 
nan

>  <Num_H_Atoms_ProtBoundConf>  (190) 
nan

>  <Num_Resolved_Atoms>  (190) 
nan

>  <Num_Not_Resolved_Atoms>  (190) 
nan

$$$$
CHEMBL192889
     RDKit          3D

  0  0  0  0  0  0  0  0  0  0999 V3000
M  V30 BEGIN CTAB
M  V30 COUNTS 56 60 0 0 0
M  V30 BEGIN ATOM
M  V30 1 C 6.137433 0.360428 0.050812 0
M  V30 2 C 5.041633 -0.653618 0.161073 0
M  V30 3 C 5.612413 -1.950319 -0.449684 0
M  V30 4 S 3.602289 -0.289326 -0.782552 0
M  V30 5 O 4.088093 -0.017892 -2.207473 0
M  V30 6 O 2.679169 -1.460400 -0.881150 0
M  V30 7 N 2.733748 1.082051 -0.269546 0
M  V30 8 C 3.148976 2.359199 -0.221185 0
M  V30 9 N 4.404060 2.907693 -0.591893 0
M  V30 10 N 2.190497 3.207700 0.253662 0
M  V30 11 C 1.092162 2.449946 0.530276 0
M  V30 12 C -0.126705 2.809926 1.023188 0
M  V30 13 C -1.048014 1.804893 1.197927 0
M  V30 14 C -0.792563 0.488246 0.902346 0
M  V30 15 C -1.694269 -0.647855 1.045768 0
M  V30 16 N -1.549594 -1.707283 1.850691 0
M  V30 17 C -2.540730 -2.588561 1.752710 0
M  V30 18 C -2.858349 -3.857500 2.378955 0
M  V30 19 C -4.018521 -4.553103 2.034692 0
M  V30 20 Cl -5.111544 -3.879910 0.820833 0
M  V30 21 C -4.348101 -5.756604 2.609528 0
M  V30 22 C -3.549812 -6.348623 3.562031 0
M  V30 23 C -2.395482 -5.686379 3.924398 0
M  V30 24 C -2.092775 -4.481842 3.330110 0
M  V30 25 Cl -0.618807 -3.782387 3.891463 0
M  V30 26 N -3.353043 -2.045552 0.830413 0
M  V30 27 C -2.876370 -0.878334 0.383006 0
M  V30 28 C -3.548238 -0.067996 -0.611479 0
M  V30 29 C -4.160383 1.155833 -0.392470 0
M  V30 30 C -4.780018 1.882012 -1.382837 0
M  V30 31 C -4.814141 1.403104 -2.664071 0
M  V30 32 C -4.230212 0.197845 -2.962624 0
M  V30 33 C -3.621605 -0.494145 -1.938704 0
M  V30 34 C 0.485882 0.210693 0.401124 0
M  V30 35 C 1.472194 1.171362 0.196326 0
M  V30 36 H 7.149581 -0.090557 0.216958 0
M  V30 37 H 6.076626 1.178570 0.805502 0
M  V30 38 H 6.209813 0.827023 -0.955784 0
M  V30 39 H 4.822969 -0.822096 1.236936 0
M  V30 40 H 5.868274 -1.794916 -1.505333 0
M  V30 41 H 4.996026 -2.817898 -0.223729 0
M  V30 42 H 6.589437 -2.083849 0.092036 0
M  V30 43 H 5.146673 3.355615 -0.015416 0
M  V30 44 H 4.640642 2.862772 -1.617668 0
M  V30 45 H -0.366317 3.823113 1.266338 0
M  V30 46 H -2.028796 2.016305 1.586516 0
M  V30 47 H -0.735673 -1.809120 2.480862 0
M  V30 48 H -5.259164 -6.241985 2.299205 0
M  V30 49 H -3.877180 -7.291866 3.964738 0
M  V30 50 H -1.789218 -6.171569 4.673138 0
M  V30 51 H -4.142494 1.540648 0.614514 0
M  V30 52 H -5.241991 2.833678 -1.150046 0
M  V30 53 H -5.309096 1.999929 -3.417462 0
M  V30 54 H -4.237541 -0.213426 -3.966080 0
M  V30 55 H -3.171401 -1.434501 -2.195624 0
M  V30 56 H 0.723061 -0.815037 0.157580 0
M  V30 END ATOM
M  V30 BEGIN BOND
M  V30 1 1 1 2
M  V30 2 1 2 3
M  V30 3 1 2 4
M  V30 4 2 4 5
M  V30 5 2 4 6
M  V30 6 1 4 7
M  V30 7 1 7 8
M  V30 8 1 8 9
M  V30 9 2 8 10
M  V30 10 1 10 11
M  V30 11 2 11 12
M  V30 12 1 12 13
M  V30 13 2 13 14
M  V30 14 1 14 15
M  V30 15 1 15 16
M  V30 16 1 16 17
M  V30 17 1 17 18
M  V30 18 2 18 19
M  V30 19 1 19 20
M  V30 20 1 19 21
M  V30 21 2 21 22
M  V30 22 1 22 23
M  V30 23 2 23 24
M  V30 24 1 24 25
M  V30 25 2 17 26
M  V30 26 1 26 27
M  V30 27 1 27 28
M  V30 28 2 28 29
M  V30 29 1 29 30
M  V30 30 2 30 31
M  V30 31 1 31 32
M  V30 32 2 32 33
M  V30 33 1 14 34
M  V30 34 2 34 35
M  V30 35 1 35 7
M  V30 36 1 35 11
M  V30 37 2 27 15
M  V30 38 1 33 28
M  V30 39 1 24 18
M  V30 40 1 1 36
M  V30 41 1 1 37
M  V30 42 1 1 38
M  V30 43 1 2 39
M  V30 44 1 3 40
M  V30 45 1 3 41
M  V30 46 1 3 42
M  V30 47 1 9 43
M  V30 48 1 9 44
M  V30 49 1 12 45
M  V30 50 1 13 46
M  V30 51 1 16 47
M  V30 52 1 21 48
M  V30 53 1 22 49
M  V30 54 1 23 50
M  V30 55 1 29 51
M  V30 56 1 30 52
M  V30 57 1 31 53
M  V30 58 1 32 54
M  V30 59 1 33 55
M  V30 60 1 34 56
M  V30 END BOND
M  V30 END CTAB
M  END
>  <Dataset>  (191) 
ChEMBL_Kinases

>  <Ligand_Instance>  (191) 
nan

>  <PDB_ID>  (191) 
nan

>  <Standardized_SMILES>  (191) 
CC(C)S(=O)(=O)n1c(N)nc2ccc(-c3[nH]c(-c4c(Cl)cccc4Cl)nc3-c3ccccc3)cc21

>  <Name>  (191) 
nan

>  <Pocket>  (191) 
nan

>  <ATP_Site>  (191) 
nan

>  <Peripheral>  (191) 
nan

>  <Num_H_Atoms_ProtBoundConf>  (191) 
nan

>  <Num_Resolved_Atoms>  (191) 
nan

>  <Num_Not_Resolved_Atoms>  (191) 
nan

$$$$
CHEMBL509448
     RDKit          3D

  0  0  0  0  0  0  0  0  0  0999 V3000
M  V30 BEGIN CTAB
M  V30 COUNTS 50 53 0 0 0
M  V30 BEGIN ATOM
M  V30 1 C 2.575295 -4.864224 3.307681 0
M  V30 2 O 2.763609 -4.339264 2.027754 0
M  V30 3 C 2.534400 -3.038087 1.631953 0
M  V30 4 C 2.073791 -2.043005 2.469079 0
M  V30 5 C 1.848279 -0.743772 2.060494 0
M  V30 6 C 2.080086 -0.378834 0.766324 0
M  V30 7 C 1.907476 0.920611 0.141263 0
M  V30 8 C 2.945361 1.368710 -0.685815 0
M  V30 9 N 2.943453 2.550501 -1.340777 0
M  V30 10 C 1.903595 3.393771 -1.229452 0
M  V30 11 C 0.854938 2.996705 -0.424715 0
M  V30 12 C -0.284480 3.868198 -0.273455 0
M  V30 13 N -1.188099 4.577680 -0.139557 0
M  V30 14 C 0.841821 1.792502 0.251057 0
M  V30 15 N -0.216914 1.346963 1.088629 0
M  V30 16 C -1.266677 0.576934 0.523197 0
M  V30 17 C -1.235887 0.283212 -0.809904 0
M  V30 18 C -2.257124 -0.474521 -1.396327 0
M  V30 19 C -3.295827 -0.917468 -0.594050 0
M  V30 20 N -4.395033 -1.634507 -0.803719 0
M  V30 21 C -5.123805 -1.815189 0.314792 0
M  V30 22 C -4.461422 -1.171814 1.342712 0
M  V30 23 C -3.339363 -0.624943 0.767120 0
M  V30 24 C -2.310490 0.133268 1.335680 0
M  V30 25 O -2.295054 0.459178 2.686769 0
M  V30 26 C -2.947755 1.689377 3.028008 0
M  V30 27 C 2.548264 -1.376417 -0.098520 0
M  V30 28 C 2.774679 -2.691722 0.322826 0
M  V30 29 O 3.236598 -3.660899 -0.545632 0
M  V30 30 C 3.511602 -3.392572 -1.914373 0
M  V30 31 H 3.378430 -5.609331 3.581243 0
M  V30 32 H 1.615300 -5.428269 3.388295 0
M  V30 33 H 2.586134 -4.081304 4.091806 0
M  V30 34 H 1.874294 -2.267405 3.491894 0
M  V30 35 H 1.494237 0.032186 2.696448 0
M  V30 36 H 3.843948 0.753828 -0.845232 0
M  V30 37 H 1.844621 4.348726 -1.726620 0
M  V30 38 H -0.238788 1.578781 2.124360 0
M  V30 39 H -0.445682 0.602270 -1.496524 0
M  V30 40 H -2.338542 -0.767984 -2.437493 0
M  V30 41 H -4.730589 -2.048784 -1.701128 0
M  V30 42 H -6.042590 -2.340109 0.457183 0
M  V30 43 H -4.759751 -1.106304 2.396111 0
M  V30 44 H -2.467587 2.168105 3.898300 0
M  V30 45 H -3.047072 2.366880 2.157704 0
M  V30 46 H -3.985580 1.456622 3.344062 0
M  V30 47 H 2.760744 -1.180440 -1.145579 0
M  V30 48 H 2.585271 -3.290843 -2.521673 0
M  V30 49 H 4.095662 -2.438002 -2.035510 0
M  V30 50 H 4.153744 -4.180431 -2.357426 0
M  V30 END ATOM
M  V30 BEGIN BOND
M  V30 1 1 1 2
M  V30 2 1 2 3
M  V30 3 2 3 4
M  V30 4 1 4 5
M  V30 5 2 5 6
M  V30 6 1 6 7
M  V30 7 2 7 8
M  V30 8 1 8 9
M  V30 9 2 9 10
M  V30 10 1 10 11
M  V30 11 1 11 12
M  V30 12 3 12 13
M  V30 13 2 11 14
M  V30 14 1 14 15
M  V30 15 1 15 16
M  V30 16 2 16 17
M  V30 17 1 17 18
M  V30 18 2 18 19
M  V30 19 1 19 20
M  V30 20 1 20 21
M  V30 21 2 21 22
M  V30 22 1 22 23
M  V30 23 2 23 24
M  V30 24 1 24 25
M  V30 25 1 25 26
M  V30 26 1 6 27
M  V30 27 2 27 28
M  V30 28 1 28 29
M  V30 29 1 29 30
M  V30 30 1 28 3
M  V30 31 1 14 7
M  V30 32 1 24 16
M  V30 33 1 23 19
M  V30 34 1 1 31
M  V30 35 1 1 32
M  V30 36 1 1 33
M  V30 37 1 4 34
M  V30 38 1 5 35
M  V30 39 1 8 36
M  V30 40 1 10 37
M  V30 41 1 15 38
M  V30 42 1 17 39
M  V30 43 1 18 40
M  V30 44 1 20 41
M  V30 45 1 21 42
M  V30 46 1 22 43
M  V30 47 1 26 44
M  V30 48 1 26 45
M  V30 49 1 26 46
M  V30 50 1 27 47
M  V30 51 1 30 48
M  V30 52 1 30 49
M  V30 53 1 30 50
M  V30 END BOND
M  V30 END CTAB
M  END
>  <Dataset>  (192) 
ChEMBL_Kinases

>  <Ligand_Instance>  (192) 
nan

>  <PDB_ID>  (192) 
nan

>  <Standardized_SMILES>  (192) 
COc1ccc(-c2cncc(C#N)c2Nc2ccc3[nH]ccc3c2OC)cc1OC

>  <Name>  (192) 
nan

>  <Pocket>  (192) 
nan

>  <ATP_Site>  (192) 
nan

>  <Peripheral>  (192) 
nan

>  <Num_H_Atoms_ProtBoundConf>  (192) 
nan

>  <Num_Resolved_Atoms>  (192) 
nan

>  <Num_Not_Resolved_Atoms>  (192) 
nan

$$$$
CHEMBL1928703
     RDKit          3D

  0  0  0  0  0  0  0  0  0  0999 V3000
M  V30 BEGIN CTAB
M  V30 COUNTS 46 48 0 0 0
M  V30 BEGIN ATOM
M  V30 1 C -0.146654 -3.184806 1.944492 0
M  V30 2 C 1.029824 -2.806637 1.017243 0
M  V30 3 C 1.786545 -1.738858 1.828552 0
M  V30 4 N 2.948906 -1.295273 1.089803 0
M  V30 5 C 3.592960 -0.246345 1.858064 0
M  V30 6 C 3.913818 -2.372550 0.933347 0
M  V30 7 O 0.593739 -2.422837 -0.145541 0
M  V30 8 C 0.164871 -2.048360 -1.303059 0
M  V30 9 N -0.589853 -0.917379 -1.164844 0
M  V30 10 C -1.177241 -0.285363 -2.220863 0
M  V30 11 N -1.971105 0.921451 -2.089836 0
M  V30 12 C -2.017547 1.208182 -0.699713 0
M  V30 13 C -1.047711 1.791745 0.094789 0
M  V30 14 C -1.252052 1.986833 1.442485 0
M  V30 15 C -0.217998 2.564583 2.152436 0
M  V30 16 C -0.397197 2.759701 3.521051 0
M  V30 17 C -1.590941 2.368761 4.092297 0
M  V30 18 C -2.631743 1.790754 3.392416 0
M  V30 19 C -2.454201 1.594444 2.024883 0
M  V30 20 C -3.424342 1.005640 1.200078 0
M  V30 21 N -3.191793 0.827510 -0.118075 0
M  V30 22 C -0.947330 -0.888339 -3.466326 0
M  V30 23 N -0.220842 -1.985077 -3.630206 0
M  V30 24 C 0.338635 -2.572010 -2.560617 0
M  V30 25 C 1.146450 -3.754761 -2.616240 0
M  V30 26 N 1.788096 -4.727101 -2.666652 0
M  V30 27 H -0.766446 -3.981929 1.520664 0
M  V30 28 H 0.251635 -3.423316 2.971189 0
M  V30 29 H -0.738124 -2.246090 2.068403 0
M  V30 30 H 1.670047 -3.736328 1.036940 0
M  V30 31 H 1.069722 -0.926323 2.020832 0
M  V30 32 H 2.115626 -2.127337 2.812966 0
M  V30 33 H 3.469426 -0.505260 2.932719 0
M  V30 34 H 3.040428 0.703939 1.668142 0
M  V30 35 H 4.672019 -0.107926 1.593459 0
M  V30 36 H 4.818505 -2.006390 0.427497 0
M  V30 37 H 3.499259 -3.197172 0.312714 0
M  V30 38 H 4.199425 -2.778444 1.915626 0
M  V30 39 H -2.325207 1.314784 -2.982834 0
M  V30 40 H -0.157233 2.055148 -0.464140 0
M  V30 41 H 0.708445 2.862026 1.678960 0
M  V30 42 H 0.384565 3.213141 4.139544 0
M  V30 43 H -1.732845 2.518870 5.174002 0
M  V30 44 H -3.574163 1.475650 3.819166 0
M  V30 45 H -4.355848 0.709375 1.674927 0
M  V30 46 H -1.386236 -0.436794 -4.342841 0
M  V30 END ATOM
M  V30 BEGIN BOND
M  V30 1 1 1 2
M  V30 2 1 2 3
M  V30 3 1 3 4
M  V30 4 1 4 5
M  V30 5 1 4 6
M  V30 6 1 2 7
M  V30 7 1 7 8
M  V30 8 2 8 9
M  V30 9 1 9 10
M  V30 10 1 10 11
M  V30 11 1 11 12
M  V30 12 2 12 13
M  V30 13 1 13 14
M  V30 14 2 14 15
M  V30 15 1 15 16
M  V30 16 2 16 17
M  V30 17 1 17 18
M  V30 18 2 18 19
M  V30 19 1 19 20
M  V30 20 2 20 21
M  V30 21 2 10 22
M  V30 22 1 22 23
M  V30 23 2 23 24
M  V30 24 1 24 25
M  V30 25 3 25 26
M  V30 26 1 24 8
M  V30 27 1 21 12
M  V30 28 1 19 14
M  V30 29 1 1 27
M  V30 30 1 1 28
M  V30 31 1 1 29
M  V30 32 1 2 30
M  V30 33 1 3 31
M  V30 34 1 3 32
M  V30 35 1 5 33
M  V30 36 1 5 34
M  V30 37 1 5 35
M  V30 38 1 6 36
M  V30 39 1 6 37
M  V30 40 1 6 38
M  V30 41 1 11 39
M  V30 42 1 13 40
M  V30 43 1 15 41
M  V30 44 1 16 42
M  V30 45 1 17 43
M  V30 46 1 18 44
M  V30 47 1 20 45
M  V30 48 1 22 46
M  V30 END BOND
M  V30 END CTAB
M  END
>  <Dataset>  (193) 
ChEMBL_Kinases

>  <Ligand_Instance>  (193) 
nan

>  <PDB_ID>  (193) 
nan

>  <Standardized_SMILES>  (193) 
CC(CN(C)C)Oc1nc(Nc2cc3ccccc3cn2)cnc1C#N

>  <Name>  (193) 
nan

>  <Pocket>  (193) 
nan

>  <ATP_Site>  (193) 
nan

>  <Peripheral>  (193) 
nan

>  <Num_H_Atoms_ProtBoundConf>  (193) 
nan

>  <Num_Resolved_Atoms>  (193) 
nan

>  <Num_Not_Resolved_Atoms>  (193) 
nan

$$$$
CHEMBL1928701
     RDKit          3D

  0  0  0  0  0  0  0  0  0  0999 V3000
M  V30 BEGIN CTAB
M  V30 COUNTS 44 47 0 0 0
M  V30 BEGIN ATOM
M  V30 1 N 0.251995 -3.565645 5.418562 0
M  V30 2 C 0.871197 -2.857178 4.712863 0
M  V30 3 C 1.621762 -1.971511 3.858173 0
M  V30 4 N 2.727507 -1.326945 4.305653 0
M  V30 5 C 3.391344 -0.513210 3.465761 0
M  V30 6 C 2.994174 -0.303742 2.158521 0
M  V30 7 N 3.695447 0.571487 1.255796 0
M  V30 8 C 2.753257 1.580156 0.926766 0
M  V30 9 C 2.062634 1.223358 -0.231397 0
M  V30 10 C 1.069334 2.042932 -0.774264 0
M  V30 11 C 0.381885 1.705919 -1.913212 0
M  V30 12 C -0.573357 2.598752 -2.347856 0
M  V30 13 C -0.856739 3.785926 -1.699303 0
M  V30 14 C -0.125803 4.058982 -0.560361 0
M  V30 15 Cl -0.471011 5.570356 0.286425 0
M  V30 16 C 0.851195 3.221527 -0.051130 0
M  V30 17 C 1.528328 3.579052 1.091970 0
M  V30 18 N 2.485913 2.726046 1.561689 0
M  V30 19 N 1.884620 -0.969620 1.759218 0
M  V30 20 C 1.191603 -1.792599 2.568737 0
M  V30 21 O 0.056131 -2.417940 2.021431 0
M  V30 22 C -0.276829 -2.118548 0.678885 0
M  V30 23 C -0.163443 -3.407200 -0.120367 0
M  V30 24 C -1.123110 -4.379508 0.568339 0
M  V30 25 C -2.508165 -3.810344 0.468950 0
M  V30 26 N -2.502248 -2.531249 -0.169065 0
M  V30 27 C -1.684148 -1.603571 0.545124 0
M  V30 28 H 4.282482 0.002525 3.837002 0
M  V30 29 H 4.704073 0.332838 1.015894 0
M  V30 30 H 2.213777 0.307776 -0.816960 0
M  V30 31 H 0.600680 0.777078 -2.423932 0
M  V30 32 H -1.125138 2.353545 -3.243358 0
M  V30 33 H -1.617469 4.424185 -2.108251 0
M  V30 34 H 1.338427 4.492007 1.625699 0
M  V30 35 H 0.484189 -1.379734 0.311743 0
M  V30 36 H -0.667177 -3.175700 -1.097605 0
M  V30 37 H 0.850328 -3.790521 -0.217992 0
M  V30 38 H -1.024364 -5.401985 0.182497 0
M  V30 39 H -0.840641 -4.351008 1.639473 0
M  V30 40 H -2.998685 -3.666978 1.473808 0
M  V30 41 H -3.148952 -4.540960 -0.073904 0
M  V30 42 H -3.420582 -2.176027 -0.446315 0
M  V30 43 H -1.622402 -0.670981 -0.080804 0
M  V30 44 H -2.144136 -1.302562 1.514685 0
M  V30 END ATOM
M  V30 BEGIN BOND
M  V30 1 3 1 2
M  V30 2 1 2 3
M  V30 3 2 3 4
M  V30 4 1 4 5
M  V30 5 2 5 6
M  V30 6 1 6 7
M  V30 7 1 7 8
M  V30 8 2 8 9
M  V30 9 1 9 10
M  V30 10 2 10 11
M  V30 11 1 11 12
M  V30 12 2 12 13
M  V30 13 1 13 14
M  V30 14 1 14 15
M  V30 15 2 14 16
M  V30 16 1 16 17
M  V30 17 2 17 18
M  V30 18 1 6 19
M  V30 19 2 19 20
M  V30 20 1 20 21
M  V30 21 1 21 22
M  V30 22 1 22 23
M  V30 23 1 23 24
M  V30 24 1 24 25
M  V30 25 1 25 26
M  V30 26 1 26 27
M  V30 27 1 20 3
M  V30 28 1 27 22
M  V30 29 1 18 8
M  V30 30 1 16 10
M  V30 31 1 5 28
M  V30 32 1 7 29
M  V30 33 1 9 30
M  V30 34 1 11 31
M  V30 35 1 12 32
M  V30 36 1 13 33
M  V30 37 1 17 34
M  V30 38 1 22 35
M  V30 39 1 23 36
M  V30 40 1 23 37
M  V30 41 1 24 38
M  V30 42 1 24 39
M  V30 43 1 25 40
M  V30 44 1 25 41
M  V30 45 1 26 42
M  V30 46 1 27 43
M  V30 47 1 27 44
M  V30 END BOND
M  V30 END CTAB
M  END
>  <Dataset>  (194) 
ChEMBL_Kinases

>  <Ligand_Instance>  (194) 
nan

>  <PDB_ID>  (194) 
nan

>  <Standardized_SMILES>  (194) 
N#Cc1ncc(Nc2cc3cccc(Cl)c3cn2)nc1OC1CCCNC1

>  <Name>  (194) 
nan

>  <Pocket>  (194) 
nan

>  <ATP_Site>  (194) 
nan

>  <Peripheral>  (194) 
nan

>  <Num_H_Atoms_ProtBoundConf>  (194) 
nan

>  <Num_Resolved_Atoms>  (194) 
nan

>  <Num_Not_Resolved_Atoms>  (194) 
nan

$$$$
CHEMBL1928906
     RDKit          3D

  0  0  0  0  0  0  0  0  0  0999 V3000
M  V30 BEGIN CTAB
M  V30 COUNTS 28 29 0 0 0
M  V30 BEGIN ATOM
M  V30 1 C -1.864722 -1.560742 2.013959 0
M  V30 2 N -1.106005 -0.835763 1.035942 0
M  V30 3 C -0.375462 -1.405526 0.061092 0
M  V30 4 S -0.146045 -3.086860 -0.389117 0
M  V30 5 C 1.154889 -3.878246 0.530677 0
M  V30 6 C 2.512617 -3.319318 0.340287 0
M  V30 7 C 2.720851 -1.952309 0.849102 0
M  V30 8 O 1.977746 -1.219517 1.575422 0
M  V30 9 O 3.924153 -1.401620 0.459093 0
M  V30 10 N 0.229541 -0.453563 -0.709308 0
M  V30 11 C -0.129142 0.759041 -0.206306 0
M  V30 12 C 0.191563 2.049422 -0.594415 0
M  V30 13 Br 1.345726 2.246864 -2.110231 0
M  V30 14 C -0.330696 3.124340 0.119247 0
M  V30 15 Br 0.141361 4.865869 -0.463431 0
M  V30 16 C -1.149528 2.852210 1.187545 0
M  V30 17 Br -1.857249 4.338800 2.150860 0
M  V30 18 C -1.457853 1.555565 1.559900 0
M  V30 19 Br -2.601534 1.273310 3.055257 0
M  V30 20 C -0.953560 0.483540 0.870573 0
M  V30 21 H -1.390932 -1.457106 3.031146 0
M  V30 22 H -2.911094 -1.148765 2.054586 0
M  V30 23 H -1.901455 -2.629198 1.786757 0
M  V30 24 H 0.901321 -3.710384 1.632244 0
M  V30 25 H 1.125623 -4.995271 0.458205 0
M  V30 26 H 2.725203 -3.274442 -0.766585 0
M  V30 27 H 3.280015 -4.006406 0.796623 0
M  V30 28 H 4.150273 -0.466912 0.773485 0
M  V30 END ATOM
M  V30 BEGIN BOND
M  V30 1 1 1 2
M  V30 2 1 2 3
M  V30 3 1 3 4
M  V30 4 1 4 5
M  V30 5 1 5 6
M  V30 6 1 6 7
M  V30 7 2 7 8
M  V30 8 1 7 9
M  V30 9 2 3 10
M  V30 10 1 10 11
M  V30 11 2 11 12
M  V30 12 1 12 13
M  V30 13 1 12 14
M  V30 14 1 14 15
M  V30 15 2 14 16
M  V30 16 1 16 17
M  V30 17 1 16 18
M  V30 18 1 18 19
M  V30 19 2 18 20
M  V30 20 1 20 2
M  V30 21 1 20 11
M  V30 22 1 1 21
M  V30 23 1 1 22
M  V30 24 1 1 23
M  V30 25 1 5 24
M  V30 26 1 5 25
M  V30 27 1 6 26
M  V30 28 1 6 27
M  V30 29 1 9 28
M  V30 END BOND
M  V30 END CTAB
M  END
>  <Dataset>  (195) 
ChEMBL_Kinases

>  <Ligand_Instance>  (195) 
nan

>  <PDB_ID>  (195) 
nan

>  <Standardized_SMILES>  (195) 
Cn1c(SCCC(=O)O)nc2c(Br)c(Br)c(Br)c(Br)c21

>  <Name>  (195) 
nan

>  <Pocket>  (195) 
nan

>  <ATP_Site>  (195) 
nan

>  <Peripheral>  (195) 
nan

>  <Num_H_Atoms_ProtBoundConf>  (195) 
nan

>  <Num_Resolved_Atoms>  (195) 
nan

>  <Num_Not_Resolved_Atoms>  (195) 
nan

$$$$
CHEMBL4751918
     RDKit          3D

  0  0  0  0  0  0  0  0  0  0999 V3000
M  V30 BEGIN CTAB
M  V30 COUNTS 46 49 0 0 0
M  V30 BEGIN ATOM
M  V30 1 C 2.658527 -2.326997 -0.206184 0
M  V30 2 C 3.282588 -2.705792 1.101910 0
M  V30 3 C 2.338363 -2.524400 2.270198 0
M  V30 4 N 4.557170 -2.037889 1.317678 0
M  V30 5 C 5.781724 -2.587919 1.570143 0
M  V30 6 N 6.703347 -1.620903 1.707818 0
M  V30 7 N 6.089756 -0.484385 1.548776 0
M  V30 8 C 4.768057 -0.715846 1.307541 0
M  V30 9 C 3.828680 0.364035 1.088888 0
M  V30 10 C 4.252233 1.541689 0.472227 0
M  V30 11 C 3.462801 2.637011 0.207792 0
M  V30 12 C 2.135798 2.573565 0.581713 0
M  V30 13 C 1.708712 1.412122 1.192371 0
M  V30 14 N 0.359040 1.243521 1.617428 0
M  V30 15 C -0.656609 0.695067 0.783275 0
M  V30 16 O -0.235639 0.373800 -0.373715 0
M  V30 17 N -2.005233 0.497662 1.130081 0
M  V30 18 C -2.911338 -0.063664 0.186368 0
M  V30 19 N -2.403015 -0.378913 -1.018525 0
M  V30 20 C -3.151915 -0.916673 -2.001828 0
M  V30 21 N -4.462662 -1.153878 -1.785303 0
M  V30 22 C -4.989922 -0.842386 -0.578015 0
M  V30 23 C -6.339356 -1.095032 -0.378511 0
M  V30 24 C -6.880270 -0.783668 0.837160 0
M  V30 25 C -6.104771 -0.229956 1.846814 0
M  V30 26 C -4.757504 0.032451 1.675505 0
M  V30 27 C -4.228696 -0.287111 0.445270 0
M  V30 28 N 2.529389 0.372448 1.424755 0
M  V30 29 H 1.574146 -2.168658 -0.031895 0
M  V30 30 H 2.778694 -3.150319 -0.919670 0
M  V30 31 H 3.125648 -1.418934 -0.640741 0
M  V30 32 H 3.516255 -3.788728 1.075809 0
M  V30 33 H 1.370153 -2.117286 1.962057 0
M  V30 34 H 2.118889 -3.472997 2.811623 0
M  V30 35 H 2.868179 -1.894365 3.031061 0
M  V30 36 H 5.899365 -3.654649 1.632969 0
M  V30 37 H 5.301320 1.608244 0.169772 0
M  V30 38 H 3.879116 3.509746 -0.275973 0
M  V30 39 H 1.454146 3.395291 0.406698 0
M  V30 40 H 0.073744 1.526287 2.579884 0
M  V30 41 H -2.169125 0.810472 2.095509 0
M  V30 42 H -2.660253 -1.140191 -2.942838 0
M  V30 43 H -6.906183 -1.526949 -1.191164 0
M  V30 44 H -7.935030 -0.998036 0.946613 0
M  V30 45 H -6.589194 -0.008178 2.777844 0
M  V30 46 H -4.140831 0.454822 2.428713 0
M  V30 END ATOM
M  V30 BEGIN BOND
M  V30 1 1 1 2
M  V30 2 1 2 3
M  V30 3 1 2 4
M  V30 4 1 4 5
M  V30 5 2 5 6
M  V30 6 1 6 7
M  V30 7 2 7 8
M  V30 8 1 8 9
M  V30 9 2 9 10
M  V30 10 1 10 11
M  V30 11 2 11 12
M  V30 12 1 12 13
M  V30 13 1 13 14
M  V30 14 1 14 15
M  V30 15 2 15 16
M  V30 16 1 15 17
M  V30 17 1 17 18
M  V30 18 2 18 19
M  V30 19 1 19 20
M  V30 20 2 20 21
M  V30 21 1 21 22
M  V30 22 2 22 23
M  V30 23 1 23 24
M  V30 24 2 24 25
M  V30 25 1 25 26
M  V30 26 2 26 27
M  V30 27 2 13 28
M  V30 28 1 8 4
M  V30 29 1 28 9
M  V30 30 1 27 18
M  V30 31 1 27 22
M  V30 32 1 1 29
M  V30 33 1 1 30
M  V30 34 1 1 31
M  V30 35 1 2 32
M  V30 36 1 3 33
M  V30 37 1 3 34
M  V30 38 1 3 35
M  V30 39 1 5 36
M  V30 40 1 10 37
M  V30 41 1 11 38
M  V30 42 1 12 39
M  V30 43 1 14 40
M  V30 44 1 17 41
M  V30 45 1 20 42
M  V30 46 1 23 43
M  V30 47 1 24 44
M  V30 48 1 25 45
M  V30 49 1 26 46
M  V30 END BOND
M  V30 END CTAB
M  END
>  <Dataset>  (196) 
ChEMBL_Kinases

>  <Ligand_Instance>  (196) 
nan

>  <PDB_ID>  (196) 
nan

>  <Standardized_SMILES>  (196) 
CC(C)n1cnnc1-c1cccc(NC(=O)Nc2ncnc3ccccc23)n1

>  <Name>  (196) 
nan

>  <Pocket>  (196) 
nan

>  <ATP_Site>  (196) 
nan

>  <Peripheral>  (196) 
nan

>  <Num_H_Atoms_ProtBoundConf>  (196) 
nan

>  <Num_Resolved_Atoms>  (196) 
nan

>  <Num_Not_Resolved_Atoms>  (196) 
nan

$$$$
CHEMBL513485
     RDKit          3D

  0  0  0  0  0  0  0  0  0  0999 V3000
M  V30 BEGIN CTAB
M  V30 COUNTS 46 49 0 0 0
M  V30 BEGIN ATOM
M  V30 1 C -0.865699 -5.494844 2.286257 0
M  V30 2 O -1.736330 -4.435214 1.956938 0
M  V30 3 C -1.336148 -3.400849 1.139168 0
M  V30 4 C -0.065313 -3.353356 0.604222 0
M  V30 5 C 0.360485 -2.329689 -0.216905 0
M  V30 6 C -0.513683 -1.306165 -0.521635 0
M  V30 7 C -0.320935 -0.121995 -1.351320 0
M  V30 8 C -1.291562 0.246902 -2.265916 0
M  V30 9 N -1.190033 1.332084 -3.074589 0
M  V30 10 C -0.088752 2.132371 -3.017725 0
M  V30 11 C 0.906918 1.813190 -2.127186 0
M  V30 12 C 2.102538 2.629570 -2.023101 0
M  V30 13 N 3.057119 3.278975 -1.925369 0
M  V30 14 C 0.787610 0.698300 -1.305913 0
M  V30 15 N 1.818040 0.386567 -0.398862 0
M  V30 16 C 1.730128 0.949002 0.908487 0
M  V30 17 C 0.655739 1.762261 1.224399 0
M  V30 18 C 0.496538 2.343525 2.461812 0
M  V30 19 C 1.441132 2.123815 3.463930 0
M  V30 20 C 2.501965 1.314930 3.136801 0
M  V30 21 N 3.549814 0.938048 3.904280 0
M  V30 22 C 4.356796 0.139278 3.181304 0
M  V30 23 C 3.836215 -0.024612 1.892695 0
M  V30 24 C 2.670576 0.727804 1.899864 0
M  V30 25 C -1.803880 -1.352478 0.020242 0
M  V30 26 C -2.217324 -2.383984 0.841437 0
M  V30 27 O -3.492042 -2.446007 1.387193 0
M  V30 28 C -4.470313 -1.452388 1.142894 0
M  V30 29 H -0.121828 -5.159280 3.057109 0
M  V30 30 H -0.260916 -5.832233 1.418851 0
M  V30 31 H -1.464613 -6.350138 2.694395 0
M  V30 32 H 0.671509 -4.125495 0.803452 0
M  V30 33 H 1.315478 -2.202706 -0.677478 0
M  V30 34 H -2.210885 -0.302647 -2.408736 0
M  V30 35 H 0.083873 3.007954 -3.612496 0
M  V30 36 H 2.663666 -0.223696 -0.571992 0
M  V30 37 H -0.139327 1.999700 0.516693 0
M  V30 38 H -0.329725 2.982902 2.740907 0
M  V30 39 H 1.343983 2.563856 4.439522 0
M  V30 40 H 3.812530 1.154140 4.899175 0
M  V30 41 H 5.294775 -0.382450 3.391769 0
M  V30 42 H 4.177713 -0.575914 1.035560 0
M  V30 43 H -2.587524 -0.598742 -0.148615 0
M  V30 44 H -4.512146 -1.337882 0.021191 0
M  V30 45 H -5.458086 -1.889779 1.452439 0
M  V30 46 H -4.269778 -0.489100 1.612755 0
M  V30 END ATOM
M  V30 BEGIN BOND
M  V30 1 1 1 2
M  V30 2 1 2 3
M  V30 3 2 3 4
M  V30 4 1 4 5
M  V30 5 2 5 6
M  V30 6 1 6 7
M  V30 7 2 7 8
M  V30 8 1 8 9
M  V30 9 2 9 10
M  V30 10 1 10 11
M  V30 11 1 11 12
M  V30 12 3 12 13
M  V30 13 2 11 14
M  V30 14 1 14 15
M  V30 15 1 15 16
M  V30 16 2 16 17
M  V30 17 1 17 18
M  V30 18 2 18 19
M  V30 19 1 19 20
M  V30 20 1 20 21
M  V30 21 1 21 22
M  V30 22 2 22 23
M  V30 23 1 23 24
M  V30 24 1 6 25
M  V30 25 2 25 26
M  V30 26 1 26 27
M  V30 27 1 27 28
M  V30 28 1 26 3
M  V30 29 1 14 7
M  V30 30 1 24 16
M  V30 31 2 24 20
M  V30 32 1 1 29
M  V30 33 1 1 30
M  V30 34 1 1 31
M  V30 35 1 4 32
M  V30 36 1 5 33
M  V30 37 1 8 34
M  V30 38 1 10 35
M  V30 39 1 15 36
M  V30 40 1 17 37
M  V30 41 1 18 38
M  V30 42 1 19 39
M  V30 43 1 21 40
M  V30 44 1 22 41
M  V30 45 1 23 42
M  V30 46 1 25 43
M  V30 47 1 28 44
M  V30 48 1 28 45
M  V30 49 1 28 46
M  V30 END BOND
M  V30 END CTAB
M  END
>  <Dataset>  (197) 
ChEMBL_Kinases

>  <Ligand_Instance>  (197) 
nan

>  <PDB_ID>  (197) 
nan

>  <Standardized_SMILES>  (197) 
COc1ccc(-c2cncc(C#N)c2Nc2cccc3[nH]ccc23)cc1OC

>  <Name>  (197) 
nan

>  <Pocket>  (197) 
nan

>  <ATP_Site>  (197) 
nan

>  <Peripheral>  (197) 
nan

>  <Num_H_Atoms_ProtBoundConf>  (197) 
nan

>  <Num_Resolved_Atoms>  (197) 
nan

>  <Num_Not_Resolved_Atoms>  (197) 
nan

$$$$
CHEMBL133941
     RDKit          3D

  0  0  0  0  0  0  0  0  0  0999 V3000
M  V30 BEGIN CTAB
M  V30 COUNTS 52 55 0 0 0
M  V30 BEGIN ATOM
M  V30 1 O -0.360059 -5.705742 1.917873 0
M  V30 2 S -0.411001 -5.344392 0.460882 0
M  V30 3 O 0.155488 -6.525928 -0.279769 0
M  V30 4 C 0.558459 -3.904399 0.221693 0
M  V30 5 C 0.563564 -2.992386 1.254193 0
M  V30 6 C 1.281696 -1.795614 1.228485 0
M  V30 7 C 2.025056 -1.548561 0.069252 0
M  V30 8 C 2.763408 -0.269699 0.072421 0
M  V30 9 C 3.550349 0.161498 -0.969418 0
M  V30 10 C 4.218445 1.366095 -0.925088 0
M  V30 11 N 4.087927 2.132589 0.175776 0
M  V30 12 C 3.328891 1.737582 1.203532 0
M  V30 13 N 3.048168 2.396748 2.442583 0
M  V30 14 C 1.831298 3.162911 2.406432 0
M  V30 15 C 1.050429 3.218578 1.254683 0
M  V30 16 C -0.125893 3.973867 1.282920 0
M  V30 17 C -0.530219 4.660219 2.413109 0
M  V30 18 C -1.809425 5.440157 2.353515 0
M  V30 19 F -2.580887 5.238142 3.494808 0
M  V30 20 F -2.524677 5.047157 1.222213 0
M  V30 21 F -1.488460 6.754428 2.186666 0
M  V30 22 C 0.232430 4.613655 3.556917 0
M  V30 23 C 1.389937 3.868024 3.522971 0
M  V30 24 N 2.675486 0.540547 1.139514 0
M  V30 25 C 2.037923 -2.430574 -0.962487 0
M  V30 26 C 1.314642 -3.599310 -0.895787 0
M  V30 27 N -1.985218 -4.970014 -0.014144 0
M  V30 28 C -2.638383 -3.946022 0.696430 0
M  V30 29 C -4.076810 -3.849366 0.191633 0
M  V30 30 N -4.072167 -3.490442 -1.196923 0
M  V30 31 C -2.905911 -3.905065 -1.914900 0
M  V30 32 C -2.366029 -5.218715 -1.346178 0
M  V30 33 H -0.008139 -3.169607 2.160460 0
M  V30 34 H 1.237643 -1.125331 2.079153 0
M  V30 35 H 3.648506 -0.455910 -1.842451 0
M  V30 36 H 4.837776 1.723433 -1.724564 0
M  V30 37 H 3.581509 2.394541 3.323188 0
M  V30 38 H 1.345609 2.685634 0.343711 0
M  V30 39 H -0.680567 3.967437 0.344996 0
M  V30 40 H -0.069793 5.150034 4.462287 0
M  V30 41 H 1.964811 3.860113 4.454559 0
M  V30 42 H 2.620146 -2.213522 -1.842403 0
M  V30 43 H 1.285361 -4.345319 -1.690374 0
M  V30 44 H -2.173447 -2.961202 0.432339 0
M  V30 45 H -2.611070 -4.031135 1.791130 0
M  V30 46 H -4.571823 -4.806158 0.428359 0
M  V30 47 H -4.553456 -2.991472 0.732214 0
M  V30 48 H -4.949727 -3.838560 -1.621207 0
M  V30 49 H -2.092970 -3.140543 -1.741572 0
M  V30 50 H -3.048960 -3.960859 -2.996920 0
M  V30 51 H -1.464220 -5.473419 -1.940706 0
M  V30 52 H -3.171305 -5.980668 -1.432315 0
M  V30 END ATOM
M  V30 BEGIN BOND
M  V30 1 2 1 2
M  V30 2 2 2 3
M  V30 3 1 2 4
M  V30 4 2 4 5
M  V30 5 1 5 6
M  V30 6 2 6 7
M  V30 7 1 7 8
M  V30 8 2 8 9
M  V30 9 1 9 10
M  V30 10 2 10 11
M  V30 11 1 11 12
M  V30 12 1 12 13
M  V30 13 1 13 14
M  V30 14 2 14 15
M  V30 15 1 15 16
M  V30 16 2 16 17
M  V30 17 1 17 18
M  V30 18 1 18 19
M  V30 19 1 18 20
M  V30 20 1 18 21
M  V30 21 1 17 22
M  V30 22 2 22 23
M  V30 23 2 12 24
M  V30 24 1 7 25
M  V30 25 2 25 26
M  V30 26 1 2 27
M  V30 27 1 27 28
M  V30 28 1 28 29
M  V30 29 1 29 30
M  V30 30 1 30 31
M  V30 31 1 31 32
M  V30 32 1 26 4
M  V30 33 1 32 27
M  V30 34 1 24 8
M  V30 35 1 23 14
M  V30 36 1 5 33
M  V30 37 1 6 34
M  V30 38 1 9 35
M  V30 39 1 10 36
M  V30 40 1 13 37
M  V30 41 1 15 38
M  V30 42 1 16 39
M  V30 43 1 22 40
M  V30 44 1 23 41
M  V30 45 1 25 42
M  V30 46 1 26 43
M  V30 47 1 28 44
M  V30 48 1 28 45
M  V30 49 1 29 46
M  V30 50 1 29 47
M  V30 51 1 30 48
M  V30 52 1 31 49
M  V30 53 1 31 50
M  V30 54 1 32 51
M  V30 55 1 32 52
M  V30 END BOND
M  V30 END CTAB
M  END
>  <Dataset>  (198) 
ChEMBL_Kinases

>  <Ligand_Instance>  (198) 
nan

>  <PDB_ID>  (198) 
nan

>  <Standardized_SMILES>  (198) 
O=S(=O)(c1ccc(-c2ccnc(Nc3ccc(C(F)(F)F)cc3)n2)cc1)N1CCNCC1

>  <Name>  (198) 
nan

>  <Pocket>  (198) 
nan

>  <ATP_Site>  (198) 
nan

>  <Peripheral>  (198) 
nan

>  <Num_H_Atoms_ProtBoundConf>  (198) 
nan

>  <Num_Resolved_Atoms>  (198) 
nan

>  <Num_Not_Resolved_Atoms>  (198) 
nan

$$$$
CHEMBL4752034
     RDKit          3D

  0  0  0  0  0  0  0  0  0  0999 V3000
M  V30 BEGIN CTAB
M  V30 COUNTS 47 50 0 0 0
M  V30 BEGIN ATOM
M  V30 1 C 1.612454 -2.516959 -0.816901 0
M  V30 2 C 2.392386 -1.263430 -1.136316 0 CFG=2
M  V30 3 C 2.572057 -1.193894 -2.636307 0
M  V30 4 O 1.338545 -1.152526 -3.271589 0
M  V30 5 N 3.713467 -1.414355 -0.524477 0
M  V30 6 C 4.410363 -2.524706 -0.821025 0
M  V30 7 N 5.582110 -2.448199 -0.151940 0
M  V30 8 N 5.602959 -1.319968 0.537036 0
M  V30 9 C 4.454920 -0.649720 0.329241 0
M  V30 10 C 3.811064 0.595736 0.735173 0
M  V30 11 C 4.034086 1.861149 0.238027 0
M  V30 12 C 3.326718 2.935358 0.745785 0
M  V30 13 C 2.397776 2.730498 1.752057 0
M  V30 14 C 2.184727 1.454167 2.241156 0
M  V30 15 N 1.224718 1.203078 3.289349 0
M  V30 16 C -0.043838 0.927154 2.721854 0
M  V30 17 O -0.360194 0.889177 1.502704 0
M  V30 18 N -1.181377 0.641337 3.554690 0
M  V30 19 C -2.495070 0.352266 3.083141 0
M  V30 20 N -3.453179 1.294239 2.861325 0
M  V30 21 C -4.679428 0.934421 2.411628 0
M  V30 22 C -5.004110 -0.398609 2.161459 0
M  V30 23 C -6.251077 -0.771567 1.703418 0
M  V30 24 C -6.486783 -2.111841 1.482351 0
M  V30 25 C -5.532444 -3.088604 1.699217 0
M  V30 26 C -4.294976 -2.656929 2.160286 0
M  V30 27 C -4.002566 -1.333333 2.398621 0
M  V30 28 N -2.780948 -0.957726 2.848437 0
M  V30 29 N 2.899757 0.442568 1.712297 0
M  V30 30 H 1.540952 -2.641927 0.296331 0
M  V30 31 H 2.171094 -3.372538 -1.230156 0
M  V30 32 H 0.614662 -2.523922 -1.295371 0
M  V30 33 H 1.880613 -0.356626 -0.732259 0
M  V30 34 H 3.251749 -0.364139 -2.937818 0
M  V30 35 H 3.104583 -2.142558 -2.910012 0
M  V30 36 H 1.382135 -0.555086 -4.083204 0
M  V30 37 H 4.203589 -3.382708 -1.446507 0
M  V30 38 H 4.778072 1.904953 -0.542621 0
M  V30 39 H 3.535965 3.915943 0.322778 0
M  V30 40 H 1.846879 3.576978 2.145431 0
M  V30 41 H 1.344935 1.200878 4.333902 0
M  V30 42 H -1.032082 0.645923 4.596119 0
M  V30 43 H -5.418503 1.702663 2.244926 0
M  V30 44 H -7.013565 -0.029337 1.526104 0
M  V30 45 H -7.436901 -2.477772 1.124692 0
M  V30 46 H -5.667407 -4.146665 1.541853 0
M  V30 47 H -3.488803 -3.357114 2.356712 0
M  V30 END ATOM
M  V30 BEGIN BOND
M  V30 1 1 1 2
M  V30 2 1 2 3
M  V30 3 1 3 4
M  V30 4 1 2 5
M  V30 5 1 5 6
M  V30 6 2 6 7
M  V30 7 1 7 8
M  V30 8 2 8 9
M  V30 9 1 9 10
M  V30 10 2 10 11
M  V30 11 1 11 12
M  V30 12 2 12 13
M  V30 13 1 13 14
M  V30 14 1 14 15
M  V30 15 1 15 16
M  V30 16 2 16 17
M  V30 17 1 16 18
M  V30 18 1 18 19
M  V30 19 2 19 20
M  V30 20 1 20 21
M  V30 21 2 21 22
M  V30 22 1 22 23
M  V30 23 2 23 24
M  V30 24 1 24 25
M  V30 25 2 25 26
M  V30 26 1 26 27
M  V30 27 2 27 28
M  V30 28 2 14 29
M  V30 29 1 9 5
M  V30 30 1 29 10
M  V30 31 1 28 19
M  V30 32 1 27 22
M  V30 33 1 1 30
M  V30 34 1 1 31
M  V30 35 1 1 32
M  V30 36 1 2 33 CFG=1
M  V30 37 1 3 34
M  V30 38 1 3 35
M  V30 39 1 4 36
M  V30 40 1 6 37
M  V30 41 1 11 38
M  V30 42 1 12 39
M  V30 43 1 13 40
M  V30 44 1 15 41
M  V30 45 1 18 42
M  V30 46 1 21 43
M  V30 47 1 23 44
M  V30 48 1 24 45
M  V30 49 1 25 46
M  V30 50 1 26 47
M  V30 END BOND
M  V30 END CTAB
M  END
>  <Dataset>  (199) 
ChEMBL_Kinases

>  <Ligand_Instance>  (199) 
nan

>  <PDB_ID>  (199) 
nan

>  <Standardized_SMILES>  (199) 
C[C@H](CO)n1cnnc1-c1cccc(NC(=O)Nc2ncc3ccccc3n2)n1

>  <Name>  (199) 
nan

>  <Pocket>  (199) 
nan

>  <ATP_Site>  (199) 
nan

>  <Peripheral>  (199) 
nan

>  <Num_H_Atoms_ProtBoundConf>  (199) 
nan

>  <Num_Resolved_Atoms>  (199) 
nan

>  <Num_Not_Resolved_Atoms>  (199) 
nan

$$$$
CHEMBL4752141
     RDKit          3D

  0  0  0  0  0  0  0  0  0  0999 V3000
M  V30 BEGIN CTAB
M  V30 COUNTS 40 43 0 0 0
M  V30 BEGIN ATOM
M  V30 1 N -0.421655 5.184650 2.011021 0
M  V30 2 C -1.111188 3.956239 2.026286 0
M  V30 3 N -1.963993 3.593830 3.012545 0
M  V30 4 N -2.448290 2.394807 2.735145 0
M  V30 5 C -1.883833 2.014433 1.559706 0
M  V30 6 C -2.084557 0.819364 0.857002 0
M  V30 7 C -1.385655 0.660383 -0.334801 0
M  V30 8 C -1.601003 -0.591340 -1.077483 0
M  V30 9 C -2.866137 -1.121136 -0.952336 0
M  V30 10 C -3.091324 -2.302413 -1.643599 0
M  V30 11 C -2.081321 -2.854064 -2.383655 0
M  V30 12 O -2.269946 -3.915511 -3.014079 0
M  V30 13 N -0.862639 -2.356159 -2.511575 0
M  V30 14 C 0.322860 -2.796723 -3.213679 0
M  V30 15 C 1.159259 -3.587818 -2.281704 0
M  V30 16 C 2.221490 -2.866784 -1.718482 0
M  V30 17 C 3.130520 -3.363357 -0.810356 0
M  V30 18 C 3.013148 -4.688756 -0.396114 0
M  V30 19 C 1.974813 -5.403892 -0.942951 0
M  V30 20 C 1.079774 -4.885263 -1.848634 0
M  V30 21 F 0.077475 -5.613081 -2.380493 0
M  V30 22 C -0.608566 -1.193752 -1.843498 0
M  V30 23 C -0.518790 1.599883 -0.855025 0
M  V30 24 C -0.363942 2.751861 -0.118908 0
M  V30 25 C -1.013856 2.986969 1.061787 0
M  V30 26 H -0.138496 6.147597 1.932242 0
M  V30 27 H 0.582313 5.066885 2.284312 0
M  V30 28 H -3.128472 1.890270 3.339688 0
M  V30 29 H -2.756588 0.084960 1.254005 0
M  V30 30 H -3.666608 -0.713979 -0.384632 0
M  V30 31 H -4.036423 -2.826027 -1.634122 0
M  V30 32 H 0.907371 -1.965735 -3.641305 0
M  V30 33 H -0.028981 -3.436033 -4.067146 0
M  V30 34 H 2.414424 -1.817134 -1.965450 0
M  V30 35 H 3.934267 -2.794478 -0.393023 0
M  V30 36 H 3.652941 -5.186365 0.299716 0
M  V30 37 H 1.803754 -6.452556 -0.677010 0
M  V30 38 H 0.315394 -0.638823 -1.824620 0
M  V30 39 H 0.022394 1.488739 -1.766615 0
M  V30 40 H 0.288001 3.550205 -0.434180 0
M  V30 END ATOM
M  V30 BEGIN BOND
M  V30 1 1 1 2
M  V30 2 2 2 3
M  V30 3 1 3 4
M  V30 4 1 4 5
M  V30 5 2 5 6
M  V30 6 1 6 7
M  V30 7 1 7 8
M  V30 8 1 8 9
M  V30 9 2 9 10
M  V30 10 1 10 11
M  V30 11 2 11 12
M  V30 12 1 11 13
M  V30 13 1 13 14
M  V30 14 1 14 15
M  V30 15 2 15 16
M  V30 16 1 16 17
M  V30 17 2 17 18
M  V30 18 1 18 19
M  V30 19 2 19 20
M  V30 20 1 20 21
M  V30 21 1 13 22
M  V30 22 2 7 23
M  V30 23 1 23 24
M  V30 24 2 24 25
M  V30 25 1 25 2
M  V30 26 1 25 5
M  V30 27 2 22 8
M  V30 28 1 20 15
M  V30 29 1 1 26
M  V30 30 1 1 27
M  V30 31 1 4 28
M  V30 32 1 6 29
M  V30 33 1 9 30
M  V30 34 1 10 31
M  V30 35 1 14 32
M  V30 36 1 14 33
M  V30 37 1 16 34
M  V30 38 1 17 35
M  V30 39 1 18 36
M  V30 40 1 19 37
M  V30 41 1 22 38
M  V30 42 1 23 39
M  V30 43 1 24 40
M  V30 END BOND
M  V30 END CTAB
M  END
>  <Dataset>  (200) 
ChEMBL_Kinases

>  <Ligand_Instance>  (200) 
nan

>  <PDB_ID>  (200) 
nan

>  <Standardized_SMILES>  (200) 
Nc1n[nH]c2cc(-c3ccc(=O)n(Cc4ccccc4F)c3)ccc12

>  <Name>  (200) 
nan

>  <Pocket>  (200) 
nan

>  <ATP_Site>  (200) 
nan

>  <Peripheral>  (200) 
nan

>  <Num_H_Atoms_ProtBoundConf>  (200) 
nan

>  <Num_Resolved_Atoms>  (200) 
nan

>  <Num_Not_Resolved_Atoms>  (200) 
nan

$$$$
CHEMBL512606
     RDKit          3D

  0  0  0  0  0  0  0  0  0  0999 V3000
M  V30 BEGIN CTAB
M  V30 COUNTS 45 48 0 0 0
M  V30 BEGIN ATOM
M  V30 1 C 2.550975 -2.389075 2.730066 0
M  V30 2 O 2.436913 -1.242942 1.905061 0
M  V30 3 C 2.600551 -1.329350 0.530899 0
M  V30 4 C 2.877811 -2.438537 -0.216559 0
M  V30 5 C 3.014319 -2.374110 -1.586873 0
M  V30 6 C 2.869622 -1.163955 -2.233185 0
M  V30 7 C 2.586008 -0.024544 -1.476520 0
M  V30 8 C 2.450311 -0.105707 -0.086253 0
M  V30 9 C 2.157272 1.213715 0.461478 0
M  V30 10 C 3.255494 1.965539 0.815905 0
M  V30 11 N 3.083332 3.205415 1.334001 0
M  V30 12 C 1.843360 3.703575 1.502958 0
M  V30 13 C 0.737489 2.935810 1.141540 0
M  V30 14 C -0.590680 3.466647 1.321345 0
M  V30 15 N -1.664246 3.903695 1.451269 0
M  V30 16 C 0.858406 1.656569 0.605099 0
M  V30 17 N -0.239355 0.871778 0.236824 0
M  V30 18 C -1.004223 -0.067008 0.980320 0
M  V30 19 C -0.640331 -0.273804 2.294375 0
M  V30 20 C -1.417984 -1.202742 2.985057 0
M  V30 21 C -2.478335 -1.847292 2.339086 0
M  V30 22 N -3.334711 -2.765190 2.831491 0
M  V30 23 C -4.199268 -3.105536 1.832134 0
M  V30 24 C -3.871955 -2.379385 0.685993 0
M  V30 25 C -2.787992 -1.591609 1.017436 0
M  V30 26 C -2.033805 -0.666411 0.285602 0
M  V30 27 C -2.328031 -0.364486 -1.120743 0
M  V30 28 H 3.625564 -2.566307 2.921662 0
M  V30 29 H 1.976767 -2.287346 3.671972 0
M  V30 30 H 2.075334 -3.253292 2.188657 0
M  V30 31 H 2.981083 -3.367755 0.352228 0
M  V30 32 H 3.234033 -3.270379 -2.150772 0
M  V30 33 H 2.983490 -1.151432 -3.308590 0
M  V30 34 H 2.495745 0.865614 -2.101777 0
M  V30 35 H 4.268650 1.603846 0.697014 0
M  V30 36 H 1.701256 4.707796 1.922497 0
M  V30 37 H -0.390876 1.132491 -0.755551 0
M  V30 38 H 0.194211 0.266439 2.718648 0
M  V30 39 H -1.146835 -1.377030 4.015749 0
M  V30 40 H -3.314497 -3.134285 3.817197 0
M  V30 41 H -5.010061 -3.833598 1.938480 0
M  V30 42 H -4.363720 -2.417059 -0.280401 0
M  V30 43 H -3.333559 -0.784284 -1.374388 0
M  V30 44 H -1.564636 -0.822094 -1.803431 0
M  V30 45 H -2.314062 0.724615 -1.316857 0
M  V30 END ATOM
M  V30 BEGIN BOND
M  V30 1 1 1 2
M  V30 2 1 2 3
M  V30 3 2 3 4
M  V30 4 1 4 5
M  V30 5 2 5 6
M  V30 6 1 6 7
M  V30 7 2 7 8
M  V30 8 1 8 9
M  V30 9 2 9 10
M  V30 10 1 10 11
M  V30 11 2 11 12
M  V30 12 1 12 13
M  V30 13 1 13 14
M  V30 14 3 14 15
M  V30 15 2 13 16
M  V30 16 1 16 17
M  V30 17 1 17 18
M  V30 18 2 18 19
M  V30 19 1 19 20
M  V30 20 2 20 21
M  V30 21 1 21 22
M  V30 22 1 22 23
M  V30 23 2 23 24
M  V30 24 1 24 25
M  V30 25 2 25 26
M  V30 26 1 26 27
M  V30 27 1 8 3
M  V30 28 1 16 9
M  V30 29 1 26 18
M  V30 30 1 25 21
M  V30 31 1 1 28
M  V30 32 1 1 29
M  V30 33 1 1 30
M  V30 34 1 4 31
M  V30 35 1 5 32
M  V30 36 1 6 33
M  V30 37 1 7 34
M  V30 38 1 10 35
M  V30 39 1 12 36
M  V30 40 1 17 37
M  V30 41 1 19 38
M  V30 42 1 20 39
M  V30 43 1 22 40
M  V30 44 1 23 41
M  V30 45 1 24 42
M  V30 46 1 27 43
M  V30 47 1 27 44
M  V30 48 1 27 45
M  V30 END BOND
M  V30 END CTAB
M  END
>  <Dataset>  (201) 
ChEMBL_Kinases

>  <Ligand_Instance>  (201) 
nan

>  <PDB_ID>  (201) 
nan

>  <Standardized_SMILES>  (201) 
COc1ccccc1-c1cncc(C#N)c1Nc1ccc2[nH]ccc2c1C

>  <Name>  (201) 
nan

>  <Pocket>  (201) 
nan

>  <ATP_Site>  (201) 
nan

>  <Peripheral>  (201) 
nan

>  <Num_H_Atoms_ProtBoundConf>  (201) 
nan

>  <Num_Resolved_Atoms>  (201) 
nan

>  <Num_Not_Resolved_Atoms>  (201) 
nan

$$$$
CHEMBL4752199
     RDKit          3D

  0  0  0  0  0  0  0  0  0  0999 V3000
M  V30 BEGIN CTAB
M  V30 COUNTS 36 38 0 0 0
M  V30 BEGIN ATOM
M  V30 1 C 1.155328 -4.078817 0.893636 0
M  V30 2 N -0.257943 -3.928156 1.254111 0
M  V30 3 C -0.857359 -2.641171 1.250270 0
M  V30 4 N -0.118507 -1.561555 0.913337 0
M  V30 5 C -0.742554 -0.352447 0.926077 0
M  V30 6 C -0.286270 0.938909 0.637896 0
M  V30 7 C 1.101263 1.189308 0.232890 0
M  V30 8 C 2.086293 0.552386 0.957545 0
M  V30 9 C 3.399572 0.771485 0.596339 0
M  V30 10 N 3.753541 1.586141 -0.439868 0
M  V30 11 C 2.791383 2.209528 -1.149260 0
M  V30 12 O 2.988948 3.064734 -2.225275 0
M  V30 13 C 4.299068 3.366235 -2.688656 0
M  V30 14 C 1.470820 2.021183 -0.825768 0
M  V30 15 C -1.332291 1.825513 0.805350 0
M  V30 16 N -2.381488 1.071538 1.183982 0
M  V30 17 N -2.039760 -0.204819 1.255773 0
M  V30 18 C -2.818328 -1.261501 1.600439 0
M  V30 19 C -2.205599 -2.497234 1.594152 0
M  V30 20 O -2.887396 -3.656122 1.925915 0
M  V30 21 C -4.273752 -3.565448 2.286848 0
M  V30 22 H 1.543817 -5.055250 1.208450 0
M  V30 23 H 1.774523 -3.296991 1.406609 0
M  V30 24 H 1.330614 -3.971682 -0.190752 0
M  V30 25 H -0.834505 -4.762982 1.516019 0
M  V30 26 H 1.818614 -0.098334 1.784226 0
M  V30 27 H 4.218058 0.300932 1.125567 0
M  V30 28 H 4.349584 3.318362 -3.791349 0
M  V30 29 H 4.571224 4.417595 -2.417306 0
M  V30 30 H 5.064743 2.685952 -2.242188 0
M  V30 31 H 0.629310 2.472246 -1.329205 0
M  V30 32 H -1.260930 2.901294 0.648253 0
M  V30 33 H -3.861077 -1.191982 1.871770 0
M  V30 34 H -4.425634 -2.834306 3.125755 0
M  V30 35 H -4.917968 -3.321988 1.421128 0
M  V30 36 H -4.631675 -4.539428 2.672276 0
M  V30 END ATOM
M  V30 BEGIN BOND
M  V30 1 1 1 2
M  V30 2 1 2 3
M  V30 3 2 3 4
M  V30 4 1 4 5
M  V30 5 2 5 6
M  V30 6 1 6 7
M  V30 7 2 7 8
M  V30 8 1 8 9
M  V30 9 2 9 10
M  V30 10 1 10 11
M  V30 11 1 11 12
M  V30 12 1 12 13
M  V30 13 2 11 14
M  V30 14 1 6 15
M  V30 15 2 15 16
M  V30 16 1 16 17
M  V30 17 1 17 18
M  V30 18 2 18 19
M  V30 19 1 19 20
M  V30 20 1 20 21
M  V30 21 1 19 3
M  V30 22 1 17 5
M  V30 23 1 14 7
M  V30 24 1 1 22
M  V30 25 1 1 23
M  V30 26 1 1 24
M  V30 27 1 2 25
M  V30 28 1 8 26
M  V30 29 1 9 27
M  V30 30 1 13 28
M  V30 31 1 13 29
M  V30 32 1 13 30
M  V30 33 1 14 31
M  V30 34 1 15 32
M  V30 35 1 18 33
M  V30 36 1 21 34
M  V30 37 1 21 35
M  V30 38 1 21 36
M  V30 END BOND
M  V30 END CTAB
M  END
>  <Dataset>  (202) 
ChEMBL_Kinases

>  <Ligand_Instance>  (202) 
nan

>  <PDB_ID>  (202) 
nan

>  <Standardized_SMILES>  (202) 
CNc1nc2c(-c3ccnc(OC)c3)cnn2cc1OC

>  <Name>  (202) 
nan

>  <Pocket>  (202) 
nan

>  <ATP_Site>  (202) 
nan

>  <Peripheral>  (202) 
nan

>  <Num_H_Atoms_ProtBoundConf>  (202) 
nan

>  <Num_Resolved_Atoms>  (202) 
nan

>  <Num_Not_Resolved_Atoms>  (202) 
nan

$$$$
CHEMBL512342
     RDKit          3D

  0  0  0  0  0  0  0  0  0  0999 V3000
M  V30 BEGIN CTAB
M  V30 COUNTS 48 53 0 0 0
M  V30 BEGIN ATOM
M  V30 1 O 3.930310 1.768698 2.392914 0
M  V30 2 C 3.423933 0.645232 2.226702 0
M  V30 3 N 4.030044 -0.647750 2.409714 0
M  V30 4 C 3.069108 -1.639228 2.101192 0
M  V30 5 O 3.440132 -2.813596 2.210902 0
M  V30 6 C 1.823987 -1.033584 1.712848 0
M  V30 7 C 2.066650 0.314697 1.797390 0
M  V30 8 C 1.060281 1.220045 1.486007 0
M  V30 9 C 1.266166 2.663246 1.559554 0
M  V30 10 C 1.728500 3.219632 0.368344 0
M  V30 11 C 1.956612 4.583017 0.330910 0
M  V30 12 C 1.754320 5.429412 1.402911 0
M  V30 13 C 1.294890 4.819869 2.558010 0
M  V30 14 C 1.046627 3.467311 2.665092 0
M  V30 15 Cl 0.471032 2.680982 4.100831 0
M  V30 16 C -0.177978 0.761349 1.093379 0
M  V30 17 C -0.391561 -0.580731 1.018032 0
M  V30 18 C 0.599427 -1.484746 1.324580 0
M  V30 19 C 0.134112 -2.750245 1.170448 0
M  V30 20 C 0.576500 -4.028703 1.302114 0
M  V30 21 C -0.197288 -5.138114 1.051903 0
M  V30 22 O 0.236777 -6.455552 1.180713 0
M  V30 23 C -1.520300 -4.988304 0.636283 0
M  V30 24 C -1.990757 -3.681981 0.495947 0
M  V30 25 C -1.158253 -2.616246 0.764372 0
M  V30 26 N -1.488930 -1.307183 0.668145 0
M  V30 27 C -2.742357 -0.701167 0.276755 0
M  V30 28 C -2.816616 -0.452489 -1.211229 0
M  V30 29 C -2.690796 -1.684829 -2.005979 0
M  V30 30 N -1.452897 -2.098330 -2.400006 0
M  V30 31 N -1.598402 -3.212237 -3.090772 0
M  V30 32 N -2.887059 -3.528198 -3.153854 0
M  V30 33 N -3.552424 -2.594770 -2.491152 0
M  V30 34 H 5.038865 -0.701314 2.726990 0
M  V30 35 H 1.921153 2.632621 -0.541886 0
M  V30 36 H 2.319372 5.014340 -0.606396 0
M  V30 37 H 1.940792 6.494161 1.347169 0
M  V30 38 H 1.113939 5.424406 3.439809 0
M  V30 39 H -0.965350 1.458677 0.849686 0
M  V30 40 H 1.548323 -4.266317 1.606660 0
M  V30 41 H 0.747762 -6.652781 2.054468 0
M  V30 42 H -2.143497 -5.847119 0.434977 0
M  V30 43 H -2.999761 -3.564727 0.179147 0
M  V30 44 H -3.593530 -1.383731 0.524593 0
M  V30 45 H -2.940811 0.246976 0.799567 0
M  V30 46 H -3.811667 -0.011248 -1.427040 0
M  V30 47 H -2.089121 0.324267 -1.543491 0
M  V30 48 H -4.586234 -2.470930 -2.302525 0
M  V30 END ATOM
M  V30 BEGIN BOND
M  V30 1 2 1 2
M  V30 2 1 2 3
M  V30 3 1 3 4
M  V30 4 2 4 5
M  V30 5 1 4 6
M  V30 6 2 6 7
M  V30 7 1 7 8
M  V30 8 1 8 9
M  V30 9 2 9 10
M  V30 10 1 10 11
M  V30 11 2 11 12
M  V30 12 1 12 13
M  V30 13 2 13 14
M  V30 14 1 14 15
M  V30 15 2 8 16
M  V30 16 1 16 17
M  V30 17 2 17 18
M  V30 18 1 18 19
M  V30 19 2 19 20
M  V30 20 1 20 21
M  V30 21 1 21 22
M  V30 22 2 21 23
M  V30 23 1 23 24
M  V30 24 2 24 25
M  V30 25 1 25 26
M  V30 26 1 26 27
M  V30 27 1 27 28
M  V30 28 1 28 29
M  V30 29 2 29 30
M  V30 30 1 30 31
M  V30 31 2 31 32
M  V30 32 1 32 33
M  V30 33 1 7 2
M  V30 34 1 14 9
M  V30 35 1 26 17
M  V30 36 1 33 29
M  V30 37 1 18 6
M  V30 38 1 25 19
M  V30 39 1 3 34
M  V30 40 1 10 35
M  V30 41 1 11 36
M  V30 42 1 12 37
M  V30 43 1 13 38
M  V30 44 1 16 39
M  V30 45 1 20 40
M  V30 46 1 22 41
M  V30 47 1 23 42
M  V30 48 1 24 43
M  V30 49 1 27 44
M  V30 50 1 27 45
M  V30 51 1 28 46
M  V30 52 1 28 47
M  V30 53 1 33 48
M  V30 END BOND
M  V30 END CTAB
M  END
>  <Dataset>  (203) 
ChEMBL_Kinases

>  <Ligand_Instance>  (203) 
nan

>  <PDB_ID>  (203) 
nan

>  <Standardized_SMILES>  (203) 
O=C1NC(=O)c2c1c(-c1ccccc1Cl)cc1c2c2cc(O)ccc2n1CCc1nnn[nH]1

>  <Name>  (203) 
nan

>  <Pocket>  (203) 
nan

>  <ATP_Site>  (203) 
nan

>  <Peripheral>  (203) 
nan

>  <Num_H_Atoms_ProtBoundConf>  (203) 
nan

>  <Num_Resolved_Atoms>  (203) 
nan

>  <Num_Not_Resolved_Atoms>  (203) 
nan

$$$$
CHEMBL4752471
     RDKit          3D

  0  0  0  0  0  0  0  0  0  0999 V3000
M  V30 BEGIN CTAB
M  V30 COUNTS 41 44 0 0 0
M  V30 BEGIN ATOM
M  V30 1 O -2.973108 2.352539 -0.967694 0
M  V30 2 C -2.413473 1.236138 -1.110991 0
M  V30 3 C -3.397909 0.261362 -1.142523 0
M  V30 4 C -3.100106 -1.095018 -1.292836 0
M  V30 5 C -1.783354 -1.432179 -1.409830 0
M  V30 6 C -1.265978 -2.786132 -1.574519 0
M  V30 7 C -2.045743 -3.703032 -2.264977 0
M  V30 8 C -1.581250 -4.999246 -2.438347 0
M  V30 9 C -0.348051 -5.291818 -1.899373 0
M  V30 10 C 0.344895 -6.502254 -1.928153 0
M  V30 11 N 1.512962 -6.342225 -1.278792 0
M  V30 12 N 1.559009 -5.074380 -0.852961 0
M  V30 13 C 0.449835 -4.402113 -1.208147 0
M  V30 14 C -0.030542 -3.130032 -1.050708 0
M  V30 15 C -0.883906 -0.396404 -1.367100 0
M  V30 16 N -1.088224 0.919430 -1.226082 0
M  V30 17 C -0.218928 2.053449 -1.216229 0
M  V30 18 C 0.223825 2.610855 0.046325 0
M  V30 19 C -0.435473 3.796485 0.414041 0
M  V30 20 C -0.205691 4.558497 1.538999 0
M  V30 21 C 0.761565 4.153776 2.422108 0
M  V30 22 C 1.435004 2.999993 2.107771 0
M  V30 23 C 1.172696 2.266900 0.970517 0
M  V30 24 C 1.915545 1.015735 0.702796 0
M  V30 25 F 2.921624 0.931544 1.687002 0
M  V30 26 F 1.100456 -0.098005 0.934603 0
M  V30 27 F 2.532658 0.987478 -0.511707 0
M  V30 28 H -4.485065 0.407911 -1.058750 0
M  V30 29 H -3.823383 -1.880275 -1.322770 0
M  V30 30 H -3.013320 -3.377184 -2.656956 0
M  V30 31 H -2.184309 -5.700001 -2.970377 0
M  V30 32 H 0.083416 -7.454739 -2.364464 0
M  V30 33 H 2.347786 -4.651843 -0.315087 0
M  V30 34 H 0.568363 -2.416393 -0.517099 0
M  V30 35 H 0.186280 -0.627801 -1.474728 0
M  V30 36 H 0.703222 1.752846 -1.834062 0
M  V30 37 H -0.679960 2.861749 -1.864803 0
M  V30 38 H -1.231159 4.257345 -0.191438 0
M  V30 39 H -0.730037 5.464623 1.792231 0
M  V30 40 H 1.028180 4.662118 3.325573 0
M  V30 41 H 2.212432 2.647188 2.788177 0
M  V30 END ATOM
M  V30 BEGIN BOND
M  V30 1 2 1 2
M  V30 2 1 2 3
M  V30 3 2 3 4
M  V30 4 1 4 5
M  V30 5 1 5 6
M  V30 6 2 6 7
M  V30 7 1 7 8
M  V30 8 2 8 9
M  V30 9 1 9 10
M  V30 10 2 10 11
M  V30 11 1 11 12
M  V30 12 1 12 13
M  V30 13 2 13 14
M  V30 14 2 5 15
M  V30 15 1 15 16
M  V30 16 1 16 17
M  V30 17 1 17 18
M  V30 18 2 18 19
M  V30 19 1 19 20
M  V30 20 2 20 21
M  V30 21 1 21 22
M  V30 22 2 22 23
M  V30 23 1 23 24
M  V30 24 1 24 25
M  V30 25 1 24 26
M  V30 26 1 24 27
M  V30 27 1 16 2
M  V30 28 1 23 18
M  V30 29 1 14 6
M  V30 30 1 13 9
M  V30 31 1 3 28
M  V30 32 1 4 29
M  V30 33 1 7 30
M  V30 34 1 8 31
M  V30 35 1 10 32
M  V30 36 1 12 33
M  V30 37 1 14 34
M  V30 38 1 15 35
M  V30 39 1 17 36
M  V30 40 1 17 37
M  V30 41 1 19 38
M  V30 42 1 20 39
M  V30 43 1 21 40
M  V30 44 1 22 41
M  V30 END BOND
M  V30 END CTAB
M  END
>  <Dataset>  (204) 
ChEMBL_Kinases

>  <Ligand_Instance>  (204) 
nan

>  <PDB_ID>  (204) 
nan

>  <Standardized_SMILES>  (204) 
O=c1ccc(-c2ccc3cn[nH]c3c2)cn1Cc1ccccc1C(F)(F)F

>  <Name>  (204) 
nan

>  <Pocket>  (204) 
nan

>  <ATP_Site>  (204) 
nan

>  <Peripheral>  (204) 
nan

>  <Num_H_Atoms_ProtBoundConf>  (204) 
nan

>  <Num_Resolved_Atoms>  (204) 
nan

>  <Num_Not_Resolved_Atoms>  (204) 
nan

$$$$
CHEMBL4753754
     RDKit          3D

  0  0  0  0  0  0  0  0  0  0999 V3000
M  V30 BEGIN CTAB
M  V30 COUNTS 43 45 0 0 0
M  V30 BEGIN ATOM
M  V30 1 C 1.164729 -4.162553 0.477476 0
M  V30 2 O -0.194968 -4.003085 0.836970 0
M  V30 3 C -0.820318 -2.793833 0.939694 0
M  V30 4 C -0.296084 -1.537649 0.732339 0
M  V30 5 C -1.027960 -0.378898 0.868004 0
M  V30 6 C -0.437490 0.934467 0.629052 0
M  V30 7 O -1.136424 1.962350 0.873363 0
M  V30 8 N 0.887701 1.066970 0.132167 0
M  V30 9 C 1.462751 2.366694 -0.100742 0 CFG=2
M  V30 10 C 1.529968 2.690203 -1.584871 0
M  V30 11 C 2.733624 2.612457 0.582434 0
M  V30 12 C 3.686308 1.619687 0.658081 0
M  V30 13 C 4.924305 1.748137 1.274864 0
M  V30 14 C 5.211623 2.959109 1.849843 0
M  V30 15 C 4.292655 4.011262 1.811515 0
M  V30 16 C 3.071391 3.829885 1.183067 0
M  V30 17 F 2.178857 4.846808 1.144858 0
M  V30 18 C -2.353126 -0.503663 1.231519 0
M  V30 19 C -2.930075 -1.748677 1.452160 0
M  V30 20 C -2.154309 -2.876815 1.302980 0
M  V30 21 C -2.872007 -4.118133 1.564491 0
M  V30 22 C -2.401844 -5.181376 2.323686 0
M  V30 23 N -3.350542 -6.128756 2.324583 0
M  V30 24 N -4.396322 -5.773882 1.631972 0
M  V30 25 C -4.136151 -4.543733 1.150729 0
M  V30 26 H 1.867670 -3.626987 1.138331 0
M  V30 27 H 1.441658 -5.223238 0.392591 0
M  V30 28 H 1.262295 -3.712904 -0.540216 0
M  V30 29 H 0.737257 -1.543095 0.454989 0
M  V30 30 H 1.494451 0.246559 -0.083610 0
M  V30 31 H 0.715521 3.106736 0.303822 0
M  V30 32 H 2.007337 3.674344 -1.757407 0
M  V30 33 H 1.988956 1.863376 -2.160675 0
M  V30 34 H 0.484188 2.798290 -1.997275 0
M  V30 35 H 3.460764 0.668181 0.205956 0
M  V30 36 H 5.591503 0.914170 1.276354 0
M  V30 37 H 6.168909 3.090597 2.337966 0
M  V30 38 H 4.500196 4.976989 2.261028 0
M  V30 39 H -2.910399 0.431666 1.332938 0
M  V30 40 H -3.970155 -1.686633 1.728371 0
M  V30 41 H -1.432809 -5.178890 2.801147 0
M  V30 42 H -5.318755 -6.196004 1.386374 0
M  V30 43 H -4.749910 -3.879512 0.517873 0
M  V30 END ATOM
M  V30 BEGIN BOND
M  V30 1 1 1 2
M  V30 2 1 2 3
M  V30 3 2 3 4
M  V30 4 1 4 5
M  V30 5 1 5 6
M  V30 6 2 6 7
M  V30 7 1 6 8
M  V30 8 1 8 9
M  V30 9 1 9 10
M  V30 10 1 9 11
M  V30 11 2 11 12
M  V30 12 1 12 13
M  V30 13 2 13 14
M  V30 14 1 14 15
M  V30 15 2 15 16
M  V30 16 1 16 17
M  V30 17 2 5 18
M  V30 18 1 18 19
M  V30 19 2 19 20
M  V30 20 1 20 21
M  V30 21 1 21 22
M  V30 22 2 22 23
M  V30 23 1 23 24
M  V30 24 1 24 25
M  V30 25 1 20 3
M  V30 26 2 25 21
M  V30 27 1 16 11
M  V30 28 1 1 26
M  V30 29 1 1 27
M  V30 30 1 1 28
M  V30 31 1 4 29
M  V30 32 1 8 30
M  V30 33 1 9 31 CFG=1
M  V30 34 1 10 32
M  V30 35 1 10 33
M  V30 36 1 10 34
M  V30 37 1 12 35
M  V30 38 1 13 36
M  V30 39 1 14 37
M  V30 40 1 15 38
M  V30 41 1 18 39
M  V30 42 1 19 40
M  V30 43 1 22 41
M  V30 44 1 24 42
M  V30 45 1 25 43
M  V30 END BOND
M  V30 END CTAB
M  END
>  <Dataset>  (205) 
ChEMBL_Kinases

>  <Ligand_Instance>  (205) 
nan

>  <PDB_ID>  (205) 
nan

>  <Standardized_SMILES>  (205) 
COc1cc(C(=O)N[C@H](C)c2ccccc2F)ccc1-c1cn[nH]c1

>  <Name>  (205) 
nan

>  <Pocket>  (205) 
nan

>  <ATP_Site>  (205) 
nan

>  <Peripheral>  (205) 
nan

>  <Num_H_Atoms_ProtBoundConf>  (205) 
nan

>  <Num_Resolved_Atoms>  (205) 
nan

>  <Num_Not_Resolved_Atoms>  (205) 
nan

$$$$
CHEMBL4752750
     RDKit          3D

  0  0  0  0  0  0  0  0  0  0999 V3000
M  V30 BEGIN CTAB
M  V30 COUNTS 58 62 0 0 0
M  V30 BEGIN ATOM
M  V30 1 C -4.037282 -3.730276 2.380643 0
M  V30 2 C -2.673397 -3.292108 2.014230 0
M  V30 3 C -1.966667 -2.540022 2.916544 0
M  V30 4 C -0.678074 -2.126689 2.569699 0
M  V30 5 N -0.013175 -1.355822 3.555497 0
M  V30 6 C 0.457536 -0.021765 3.433718 0
M  V30 7 C 0.305889 0.753517 2.308941 0
M  V30 8 C 0.782685 2.036079 2.244601 0
M  V30 9 N 0.650834 2.869536 1.102978 0
M  V30 10 C 0.038804 2.486651 -0.152696 0
M  V30 11 C 0.832466 2.957370 -1.353834 0
M  V30 12 C 1.111876 4.421546 -1.369258 0
M  V30 13 C 0.611374 5.014437 -0.057554 0
M  V30 14 C 1.145429 4.232236 1.119446 0
M  V30 15 N 1.411578 2.522177 3.327521 0
M  V30 16 C 1.571144 1.782367 4.438111 0
M  V30 17 N 1.095494 0.525780 4.479573 0
M  V30 18 C -0.182954 -2.501357 1.327384 0
M  V30 19 O 0.971810 -2.078759 1.129233 0
M  V30 20 N -0.856236 -3.235561 0.429815 0
M  V30 21 C -2.112559 -3.623016 0.800848 0
M  V30 22 C -2.727227 -4.423546 -0.265754 0
M  V30 23 O -3.820842 -4.984732 -0.401453 0
M  V30 24 N -1.709377 -4.449547 -1.258742 0
M  V30 25 C -0.489088 -3.699513 -0.894942 0
M  V30 26 C -0.409319 -2.605282 -1.911634 0
M  V30 27 C 0.897148 -1.918872 -2.053286 0
M  V30 28 C 2.105342 -2.760992 -1.857232 0
M  V30 29 C 1.814809 -4.234905 -1.794162 0
M  V30 30 C 0.685554 -4.601048 -0.906364 0
M  V30 31 H -4.471009 -3.050555 3.125453 0
M  V30 32 H -4.645848 -3.723938 1.453791 0
M  V30 33 H -4.032500 -4.798666 2.736093 0
M  V30 34 H -2.410594 -2.285095 3.862541 0
M  V30 35 H 0.105180 -1.888993 4.427132 0
M  V30 36 H -0.195569 0.361633 1.460727 0
M  V30 37 H -0.070773 1.391697 -0.283806 0
M  V30 38 H -0.982001 2.914664 -0.196363 0
M  V30 39 H 1.780551 2.372329 -1.432904 0
M  V30 40 H 0.244050 2.677287 -2.250760 0
M  V30 41 H 0.520084 4.926307 -2.174590 0
M  V30 42 H 2.210346 4.584142 -1.504677 0
M  V30 43 H -0.489051 4.895227 -0.078268 0
M  V30 44 H 0.934938 6.055721 0.008212 0
M  V30 45 H 2.218108 4.330958 1.274991 0
M  V30 46 H 0.663777 4.706806 2.023971 0
M  V30 47 H 2.074433 2.139089 5.336111 0
M  V30 48 H -1.720737 -4.927607 -2.199173 0
M  V30 49 H -1.231128 -1.878235 -1.639318 0
M  V30 50 H -0.749647 -3.016289 -2.895242 0
M  V30 51 H 0.938374 -1.010080 -1.384663 0
M  V30 52 H 0.909421 -1.466531 -3.093529 0
M  V30 53 H 2.793404 -2.605343 -2.714369 0
M  V30 54 H 2.708757 -2.401773 -0.973373 0
M  V30 55 H 1.722954 -4.616398 -2.831692 0
M  V30 56 H 2.743588 -4.733578 -1.396666 0
M  V30 57 H 0.340116 -5.621416 -1.232045 0
M  V30 58 H 1.021807 -4.787098 0.157810 0
M  V30 END ATOM
M  V30 BEGIN BOND
M  V30 1 1 1 2
M  V30 2 1 2 3
M  V30 3 2 3 4
M  V30 4 1 4 5
M  V30 5 1 5 6
M  V30 6 2 6 7
M  V30 7 1 7 8
M  V30 8 1 8 9
M  V30 9 1 9 10
M  V30 10 1 10 11
M  V30 11 1 11 12
M  V30 12 1 12 13
M  V30 13 1 13 14
M  V30 14 2 8 15
M  V30 15 1 15 16
M  V30 16 2 16 17
M  V30 17 1 4 18
M  V30 18 2 18 19
M  V30 19 1 18 20
M  V30 20 1 20 21
M  V30 21 1 21 22
M  V30 22 2 22 23
M  V30 23 1 22 24
M  V30 24 1 24 25
M  V30 25 1 25 26
M  V30 26 1 26 27
M  V30 27 1 27 28
M  V30 28 1 28 29
M  V30 29 1 29 30
M  V30 30 2 21 2
M  V30 31 1 30 25
M  V30 32 1 17 6
M  V30 33 1 25 20
M  V30 34 1 14 9
M  V30 35 1 1 31
M  V30 36 1 1 32
M  V30 37 1 1 33
M  V30 38 1 3 34
M  V30 39 1 5 35
M  V30 40 1 7 36
M  V30 41 1 10 37
M  V30 42 1 10 38
M  V30 43 1 11 39
M  V30 44 1 11 40
M  V30 45 1 12 41
M  V30 46 1 12 42
M  V30 47 1 13 43
M  V30 48 1 13 44
M  V30 49 1 14 45
M  V30 50 1 14 46
M  V30 51 1 16 47
M  V30 52 1 24 48
M  V30 53 1 26 49
M  V30 54 1 26 50
M  V30 55 1 27 51
M  V30 56 1 27 52
M  V30 57 1 28 53
M  V30 58 1 28 54
M  V30 59 1 29 55
M  V30 60 1 29 56
M  V30 61 1 30 57
M  V30 62 1 30 58
M  V30 END BOND
M  V30 END CTAB
M  END
>  <Dataset>  (206) 
ChEMBL_Kinases

>  <Ligand_Instance>  (206) 
nan

>  <PDB_ID>  (206) 
nan

>  <Standardized_SMILES>  (206) 
Cc1cc(Nc2cc(N3CCCCC3)ncn2)c(=O)n2c1C(=O)NC21CCCCC1

>  <Name>  (206) 
nan

>  <Pocket>  (206) 
nan

>  <ATP_Site>  (206) 
nan

>  <Peripheral>  (206) 
nan

>  <Num_H_Atoms_ProtBoundConf>  (206) 
nan

>  <Num_Resolved_Atoms>  (206) 
nan

>  <Num_Not_Resolved_Atoms>  (206) 
nan

$$$$
CHEMBL4752797
     RDKit          3D

  0  0  0  0  0  0  0  0  0  0999 V3000
M  V30 BEGIN CTAB
M  V30 COUNTS 50 53 0 0 0
M  V30 BEGIN ATOM
M  V30 1 C 4.432331 -0.876913 6.331180 0
M  V30 2 C 4.582718 -1.930937 5.256480 0
M  V30 3 F 5.743765 -2.645227 5.590810 0
M  V30 4 F 3.577719 -2.855557 5.240380 0
M  V30 5 C 4.783907 -1.226633 3.937236 0
M  V30 6 N 3.724129 -0.362130 3.545093 0
M  V30 7 C 3.953300 0.266977 2.299178 0
M  V30 8 C 2.805412 0.261857 1.343219 0
M  V30 9 C 1.471042 0.536381 1.969866 0
M  V30 10 C 0.483548 -0.396214 1.366976 0
M  V30 11 O -0.286132 -1.311748 1.818101 0
M  V30 12 N 0.400450 -0.199067 -0.028409 0
M  V30 13 C -0.374386 -0.817251 -1.051518 0
M  V30 14 C -1.614877 -0.254119 -1.333486 0
M  V30 15 C -2.444596 -0.773476 -2.305993 0
M  V30 16 C -3.680240 -0.237761 -2.609576 0
M  V30 17 C -4.495051 -0.768442 -3.583186 0
M  V30 18 C -5.784512 -0.147709 -3.845956 0
M  V30 19 C -6.749061 -0.505879 -4.763564 0
M  V30 20 N -7.759932 0.383349 -4.616643 0
M  V30 21 C -7.409246 1.249234 -3.638300 0
M  V30 22 O -6.214871 0.899438 -3.197525 0
M  V30 23 C -4.030778 -1.873984 -4.260330 0
M  V30 24 N -2.823666 -2.405704 -3.971018 0
M  V30 25 C -2.030174 -1.897043 -3.029949 0
M  V30 26 C -0.781101 -2.436059 -2.721445 0
M  V30 27 N 0.017819 -1.907653 -1.760351 0
M  V30 28 C 1.446081 0.323787 3.454988 0
M  V30 29 C 2.404797 -0.779435 3.846589 0
M  V30 30 H 3.561715 -1.085637 6.999484 0
M  V30 31 H 4.236495 0.142252 5.894961 0
M  V30 32 H 5.348728 -0.757460 6.941843 0
M  V30 33 H 4.820938 -2.052066 3.167097 0
M  V30 34 H 5.784928 -0.760044 3.882690 0
M  V30 35 H 4.285199 1.318390 2.489184 0
M  V30 36 H 4.826180 -0.210322 1.806521 0
M  V30 37 H 2.988939 1.066440 0.598716 0
M  V30 38 H 2.829192 -0.691078 0.774309 0
M  V30 39 H 1.142842 1.593198 1.801872 0
M  V30 40 H 0.935773 0.495961 -0.628090 0
M  V30 41 H -1.960539 0.611421 -0.792154 0
M  V30 42 H -3.984901 0.640875 -2.030773 0
M  V30 43 H -6.691586 -1.327146 -5.447782 0
M  V30 44 H -7.984955 2.101924 -3.251389 0
M  V30 45 H -4.658722 -2.317775 -5.042004 0
M  V30 46 H -0.448621 -3.306301 -3.275430 0
M  V30 47 H 0.429816 -0.039963 3.777531 0
M  V30 48 H 1.611140 1.266554 4.012838 0
M  V30 49 H 2.338889 -0.970066 4.939307 0
M  V30 50 H 2.141680 -1.672677 3.267685 0
M  V30 END ATOM
M  V30 BEGIN BOND
M  V30 1 1 1 2
M  V30 2 1 2 3
M  V30 3 1 2 4
M  V30 4 1 2 5
M  V30 5 1 5 6
M  V30 6 1 6 7
M  V30 7 1 7 8
M  V30 8 1 8 9
M  V30 9 1 9 10
M  V30 10 2 10 11
M  V30 11 1 10 12
M  V30 12 1 12 13
M  V30 13 2 13 14
M  V30 14 1 14 15
M  V30 15 2 15 16
M  V30 16 1 16 17
M  V30 17 1 17 18
M  V30 18 2 18 19
M  V30 19 1 19 20
M  V30 20 2 20 21
M  V30 21 1 21 22
M  V30 22 2 17 23
M  V30 23 1 23 24
M  V30 24 2 24 25
M  V30 25 1 25 26
M  V30 26 2 26 27
M  V30 27 1 9 28
M  V30 28 1 28 29
M  V30 29 1 29 6
M  V30 30 1 27 13
M  V30 31 1 25 15
M  V30 32 1 22 18
M  V30 33 1 1 30
M  V30 34 1 1 31
M  V30 35 1 1 32
M  V30 36 1 5 33
M  V30 37 1 5 34
M  V30 38 1 7 35
M  V30 39 1 7 36
M  V30 40 1 8 37
M  V30 41 1 8 38
M  V30 42 1 9 39
M  V30 43 1 12 40
M  V30 44 1 14 41
M  V30 45 1 16 42
M  V30 46 1 19 43
M  V30 47 1 21 44
M  V30 48 1 23 45
M  V30 49 1 26 46
M  V30 50 1 28 47
M  V30 51 1 28 48
M  V30 52 1 29 49
M  V30 53 1 29 50
M  V30 END BOND
M  V30 END CTAB
M  END
>  <Dataset>  (207) 
ChEMBL_Kinases

>  <Ligand_Instance>  (207) 
nan

>  <PDB_ID>  (207) 
nan

>  <Standardized_SMILES>  (207) 
CC(F)(F)CN1CCC(C(=O)Nc2cc3cc(-c4cnco4)cnc3cn2)CC1

>  <Name>  (207) 
nan

>  <Pocket>  (207) 
nan

>  <ATP_Site>  (207) 
nan

>  <Peripheral>  (207) 
nan

>  <Num_H_Atoms_ProtBoundConf>  (207) 
nan

>  <Num_Resolved_Atoms>  (207) 
nan

>  <Num_Not_Resolved_Atoms>  (207) 
nan

$$$$
CHEMBL4752915
     RDKit          3D

  0  0  0  0  0  0  0  0  0  0999 V3000
M  V30 BEGIN CTAB
M  V30 COUNTS 52 56 0 0 0
M  V30 BEGIN ATOM
M  V30 1 C -0.305320 -0.415099 5.233674 0
M  V30 2 C 0.486634 -1.073216 4.156717 0
M  V30 3 C 1.162771 -2.234466 4.470386 0
M  V30 4 C 1.917988 -2.887083 3.498341 0
M  V30 5 C 1.971508 -2.348063 2.228627 0
M  V30 6 C 1.269560 -1.184871 1.989676 0
M  V30 7 C 1.267141 -0.541627 0.677421 0
M  V30 8 N 1.763749 0.689049 0.482951 0
M  V30 9 C 1.662303 1.089729 -0.792520 0
M  V30 10 C 1.978471 2.280261 -1.622419 0
M  V30 11 N 0.781554 3.085610 -1.727303 0
M  V30 12 C -0.021363 3.830176 -0.828085 0
M  V30 13 C 0.334668 3.888535 0.501817 0
M  V30 14 C -0.372828 4.588814 1.460655 0
M  V30 15 C -1.502700 5.270538 1.063736 0
M  V30 16 C -1.865043 5.217568 -0.262956 0
M  V30 17 C -1.171629 4.526236 -1.223633 0
M  V30 18 F -1.537918 4.482391 -2.522875 0
M  V30 19 N 1.064631 0.033729 -1.421460 0
M  V30 20 C 0.816541 -0.961847 -0.554901 0
M  V30 21 C 0.204643 -2.275916 -0.704098 0
M  V30 22 C -0.977359 -2.433049 0.011605 0
M  V30 23 C -1.675082 -3.622926 -0.028403 0
M  V30 24 C -1.228999 -4.691521 -0.773967 0
M  V30 25 C -0.054282 -4.505213 -1.472416 0
M  V30 26 C 0.172039 -5.698412 -2.125401 0
M  V30 27 N -0.823821 -6.527508 -1.816374 0
M  V30 28 N -1.690445 -5.939056 -0.994971 0
M  V30 29 C -2.922477 -6.416550 -0.382661 0
M  V30 30 C 0.671073 -3.332534 -1.457957 0
M  V30 31 N 0.524374 -0.528599 2.923751 0
M  V30 32 H -0.623192 0.606532 4.952404 0
M  V30 33 H -1.212039 -1.025178 5.405777 0
M  V30 34 H 0.355594 -0.392669 6.124943 0
M  V30 35 H 1.138980 -2.685540 5.468592 0
M  V30 36 H 2.485269 -3.810200 3.657604 0
M  V30 37 H 2.518837 -2.746864 1.372063 0
M  V30 38 H 2.202075 1.326969 1.177501 0
M  V30 39 H 2.787680 2.826766 -1.071180 0
M  V30 40 H 2.328177 1.980168 -2.628251 0
M  V30 41 H 0.395911 3.141274 -2.723079 0
M  V30 42 H 1.191567 3.410793 0.934619 0
M  V30 43 H -0.119429 4.653432 2.508933 0
M  V30 44 H -2.136089 5.847933 1.703042 0
M  V30 45 H -2.745935 5.729333 -0.660679 0
M  V30 46 H -1.411647 -1.644995 0.631151 0
M  V30 47 H -2.589777 -3.733964 0.529781 0
M  V30 48 H 1.030383 -5.873390 -2.766911 0
M  V30 49 H -2.881370 -7.531054 -0.230269 0
M  V30 50 H -3.795324 -6.222854 -1.027352 0
M  V30 51 H -3.048176 -5.959441 0.632227 0
M  V30 52 H 1.592462 -3.158675 -1.994187 0
M  V30 END ATOM
M  V30 BEGIN BOND
M  V30 1 1 1 2
M  V30 2 2 2 3
M  V30 3 1 3 4
M  V30 4 2 4 5
M  V30 5 1 5 6
M  V30 6 1 6 7
M  V30 7 1 7 8
M  V30 8 1 8 9
M  V30 9 1 9 10
M  V30 10 1 10 11
M  V30 11 1 11 12
M  V30 12 2 12 13
M  V30 13 1 13 14
M  V30 14 2 14 15
M  V30 15 1 15 16
M  V30 16 2 16 17
M  V30 17 1 17 18
M  V30 18 2 9 19
M  V30 19 1 19 20
M  V30 20 1 20 21
M  V30 21 2 21 22
M  V30 22 1 22 23
M  V30 23 2 23 24
M  V30 24 1 24 25
M  V30 25 1 25 26
M  V30 26 2 26 27
M  V30 27 1 27 28
M  V30 28 1 28 29
M  V30 29 2 25 30
M  V30 30 2 6 31
M  V30 31 1 31 2
M  V30 32 2 20 7
M  V30 33 1 30 21
M  V30 34 1 17 12
M  V30 35 1 28 24
M  V30 36 1 1 32
M  V30 37 1 1 33
M  V30 38 1 1 34
M  V30 39 1 3 35
M  V30 40 1 4 36
M  V30 41 1 5 37
M  V30 42 1 8 38
M  V30 43 1 10 39
M  V30 44 1 10 40
M  V30 45 1 11 41
M  V30 46 1 13 42
M  V30 47 1 14 43
M  V30 48 1 15 44
M  V30 49 1 16 45
M  V30 50 1 22 46
M  V30 51 1 23 47
M  V30 52 1 26 48
M  V30 53 1 29 49
M  V30 54 1 29 50
M  V30 55 1 29 51
M  V30 56 1 30 52
M  V30 END BOND
M  V30 END CTAB
M  END
>  <Dataset>  (208) 
ChEMBL_Kinases

>  <Ligand_Instance>  (208) 
nan

>  <PDB_ID>  (208) 
nan

>  <Standardized_SMILES>  (208) 
Cc1cccc(-c2[nH]c(CNc3ccccc3F)nc2-c2ccc3c(cnn3C)c2)n1

>  <Name>  (208) 
nan

>  <Pocket>  (208) 
nan

>  <ATP_Site>  (208) 
nan

>  <Peripheral>  (208) 
nan

>  <Num_H_Atoms_ProtBoundConf>  (208) 
nan

>  <Num_Resolved_Atoms>  (208) 
nan

>  <Num_Not_Resolved_Atoms>  (208) 
nan

$$$$
CHEMBL4752921
     RDKit          3D

  0  0  0  0  0  0  0  0  0  0999 V3000
M  V30 BEGIN CTAB
M  V30 COUNTS 38 41 0 0 0
M  V30 BEGIN ATOM
M  V30 1 O -1.953358 -1.191976 4.250599 0
M  V30 2 C -1.011294 -0.842573 3.503435 0
M  V30 3 C 0.271930 -0.938886 3.956131 0
M  V30 4 C 1.327521 -0.557116 3.160196 0
M  V30 5 C 1.001617 -0.083565 1.907620 0
M  V30 6 C 2.127515 0.319107 1.071116 0
M  V30 7 C 3.320091 -0.355387 1.221607 0
M  V30 8 C 4.397470 0.036355 0.416217 0
M  V30 9 C 4.201140 1.069961 -0.476026 0
M  V30 10 C 5.068798 1.656033 -1.378604 0
M  V30 11 N 4.407934 2.623090 -2.019778 0
M  V30 12 N 3.142179 2.683421 -1.563100 0
M  V30 13 C 2.992451 1.725763 -0.602195 0
M  V30 14 C 1.901808 1.355209 0.188580 0
M  V30 15 C -0.325139 -0.023865 1.539201 0
M  V30 16 N -1.387322 -0.394606 2.303875 0
M  V30 17 C -2.638184 -0.238447 1.610033 0
M  V30 18 C -2.900968 -1.403101 0.746453 0
M  V30 19 C -2.534651 -1.233144 -0.599619 0
M  V30 20 C -2.647543 -2.169781 -1.600966 0
M  V30 21 C -3.164347 -3.398998 -1.289422 0
M  V30 22 C -3.539534 -3.629742 -0.005063 0
M  V30 23 C -3.400190 -2.652397 0.943139 0
M  V30 24 Cl -3.950595 -3.004503 2.558644 0
M  V30 25 H 0.419976 -1.323506 4.953875 0
M  V30 26 H 2.297308 -0.665629 3.591609 0
M  V30 27 H 3.431870 -1.162229 1.934886 0
M  V30 28 H 5.346505 -0.470813 0.508141 0
M  V30 29 H 6.108220 1.412340 -1.570765 0
M  V30 30 H 2.347245 3.326142 -1.844367 0
M  V30 31 H 0.960215 1.845959 0.109823 0
M  V30 32 H -0.399967 0.377435 0.518223 0
M  V30 33 H -3.435355 -0.136702 2.402835 0
M  V30 34 H -2.613934 0.677864 0.986221 0
M  V30 35 H -2.111592 -0.289468 -0.978734 0
M  V30 36 H -2.355018 -2.000573 -2.623565 0
M  V30 37 H -3.277860 -4.176777 -2.026506 0
M  V30 38 H -3.950224 -4.586027 0.278430 0
M  V30 END ATOM
M  V30 BEGIN BOND
M  V30 1 2 1 2
M  V30 2 1 2 3
M  V30 3 2 3 4
M  V30 4 1 4 5
M  V30 5 1 5 6
M  V30 6 2 6 7
M  V30 7 1 7 8
M  V30 8 2 8 9
M  V30 9 1 9 10
M  V30 10 2 10 11
M  V30 11 1 11 12
M  V30 12 1 12 13
M  V30 13 2 13 14
M  V30 14 2 5 15
M  V30 15 1 15 16
M  V30 16 1 16 17
M  V30 17 1 17 18
M  V30 18 2 18 19
M  V30 19 1 19 20
M  V30 20 2 20 21
M  V30 21 1 21 22
M  V30 22 2 22 23
M  V30 23 1 23 24
M  V30 24 1 16 2
M  V30 25 1 23 18
M  V30 26 1 14 6
M  V30 27 1 13 9
M  V30 28 1 3 25
M  V30 29 1 4 26
M  V30 30 1 7 27
M  V30 31 1 8 28
M  V30 32 1 10 29
M  V30 33 1 12 30
M  V30 34 1 14 31
M  V30 35 1 15 32
M  V30 36 1 17 33
M  V30 37 1 17 34
M  V30 38 1 19 35
M  V30 39 1 20 36
M  V30 40 1 21 37
M  V30 41 1 22 38
M  V30 END BOND
M  V30 END CTAB
M  END
>  <Dataset>  (209) 
ChEMBL_Kinases

>  <Ligand_Instance>  (209) 
nan

>  <PDB_ID>  (209) 
nan

>  <Standardized_SMILES>  (209) 
O=c1ccc(-c2ccc3cn[nH]c3c2)cn1Cc1ccccc1Cl

>  <Name>  (209) 
nan

>  <Pocket>  (209) 
nan

>  <ATP_Site>  (209) 
nan

>  <Peripheral>  (209) 
nan

>  <Num_H_Atoms_ProtBoundConf>  (209) 
nan

>  <Num_Resolved_Atoms>  (209) 
nan

>  <Num_Not_Resolved_Atoms>  (209) 
nan

$$$$
CHEMBL511563
     RDKit          3D

  0  0  0  0  0  0  0  0  0  0999 V3000
M  V30 BEGIN CTAB
M  V30 COUNTS 43 47 0 0 0
M  V30 BEGIN ATOM
M  V30 1 C 2.635676 -7.545083 3.369632 0
M  V30 2 O 1.990424 -7.287784 2.116074 0
M  V30 3 C 1.770391 -5.976033 1.716537 0
M  V30 4 C 2.171537 -4.930897 2.523187 0
M  V30 5 C 1.953385 -3.627092 2.126895 0
M  V30 6 C 1.334057 -3.332575 0.924789 0
M  V30 7 C 1.093512 -1.960371 0.487529 0
M  V30 8 C 0.859444 -1.050774 1.505989 0
M  V30 9 N 0.631270 0.235609 1.158226 0
M  V30 10 C 0.633628 0.607812 -0.130947 0
M  V30 11 C 0.433421 1.835460 -0.752857 0
M  V30 12 C 0.151909 3.059655 0.029497 0
M  V30 13 C 1.272057 3.769032 0.409779 0
M  V30 14 C 1.003460 4.915438 1.144474 0
M  V30 15 N -0.263499 5.310659 1.465472 0
M  V30 16 C -1.319365 4.550995 1.049989 0
M  V30 17 C -2.609111 4.972330 1.388539 0
M  V30 18 C -3.643134 4.173206 0.946617 0
M  V30 19 C -3.500716 3.015825 0.212333 0
M  V30 20 C -2.222121 2.622778 -0.107752 0
M  V30 21 C -1.157599 3.388733 0.311547 0
M  V30 22 C 0.554823 1.613602 -2.113791 0
M  V30 23 N 0.817626 0.302050 -2.293150 0
M  V30 24 N 0.863491 -0.292951 -1.105866 0
M  V30 25 C 1.097305 -1.588629 -0.825661 0
M  V30 26 C 0.936156 -4.408600 0.123849 0
M  V30 27 C 1.148841 -5.734522 0.508946 0
M  V30 28 H 3.595084 -7.016588 3.461616 0
M  V30 29 H 2.765654 -8.616013 3.544116 0
M  V30 30 H 1.926686 -7.166863 4.149779 0
M  V30 31 H 2.661368 -5.082630 3.475827 0
M  V30 32 H 2.272934 -2.815314 2.768298 0
M  V30 33 H 0.855126 -1.338324 2.552668 0
M  V30 34 H 2.270985 3.458527 0.157395 0
M  V30 35 H 1.831259 5.532175 1.483641 0
M  V30 36 H -2.783412 5.872655 1.963371 0
M  V30 37 H -4.639320 4.534356 1.230752 0
M  V30 38 H -4.364056 2.456001 -0.088912 0
M  V30 39 H -2.031930 1.719791 -0.685311 0
M  V30 40 H 0.424266 2.484638 -2.754570 0
M  V30 41 H 1.284029 -2.329062 -1.587331 0
M  V30 42 H 0.454783 -4.194941 -0.810942 0
M  V30 43 H 0.814646 -6.515662 -0.161481 0
M  V30 END ATOM
M  V30 BEGIN BOND
M  V30 1 1 1 2
M  V30 2 1 2 3
M  V30 3 2 3 4
M  V30 4 1 4 5
M  V30 5 2 5 6
M  V30 6 1 6 7
M  V30 7 1 7 8
M  V30 8 2 8 9
M  V30 9 1 9 10
M  V30 10 2 10 11
M  V30 11 1 11 12
M  V30 12 2 12 13
M  V30 13 1 13 14
M  V30 14 2 14 15
M  V30 15 1 15 16
M  V30 16 2 16 17
M  V30 17 1 17 18
M  V30 18 2 18 19
M  V30 19 1 19 20
M  V30 20 2 20 21
M  V30 21 1 11 22
M  V30 22 2 22 23
M  V30 23 1 23 24
M  V30 24 1 24 25
M  V30 25 1 6 26
M  V30 26 2 26 27
M  V30 27 1 27 3
M  V30 28 2 25 7
M  V30 29 1 24 10
M  V30 30 1 21 12
M  V30 31 1 21 16
M  V30 32 1 1 28
M  V30 33 1 1 29
M  V30 34 1 1 30
M  V30 35 1 4 31
M  V30 36 1 5 32
M  V30 37 1 8 33
M  V30 38 1 13 34
M  V30 39 1 14 35
M  V30 40 1 17 36
M  V30 41 1 18 37
M  V30 42 1 19 38
M  V30 43 1 20 39
M  V30 44 1 22 40
M  V30 45 1 25 41
M  V30 46 1 26 42
M  V30 47 1 27 43
M  V30 END BOND
M  V30 END CTAB
M  END
>  <Dataset>  (210) 
ChEMBL_Kinases

>  <Ligand_Instance>  (210) 
nan

>  <PDB_ID>  (210) 
nan

>  <Standardized_SMILES>  (210) 
COc1ccc(-c2cnc3c(-c4ccnc5ccccc45)cnn3c2)cc1

>  <Name>  (210) 
nan

>  <Pocket>  (210) 
nan

>  <ATP_Site>  (210) 
nan

>  <Peripheral>  (210) 
nan

>  <Num_H_Atoms_ProtBoundConf>  (210) 
nan

>  <Num_Resolved_Atoms>  (210) 
nan

>  <Num_Not_Resolved_Atoms>  (210) 
nan

$$$$
CHEMBL4753043
     RDKit          3D

  0  0  0  0  0  0  0  0  0  0999 V3000
M  V30 BEGIN CTAB
M  V30 COUNTS 43 45 0 0 0
M  V30 BEGIN ATOM
M  V30 1 N -0.778918 -4.777858 1.642830 0
M  V30 2 C -0.108035 -3.926289 0.648681 0
M  V30 3 C 0.493403 -2.781916 1.386244 0 CFG=1
M  V30 4 C 1.221861 -1.807253 0.520169 0
M  V30 5 O 2.484097 -1.617263 0.583941 0
M  V30 6 N 0.662831 -0.971639 -0.468757 0
M  V30 7 C 1.453654 -0.091627 -1.222036 0
M  V30 8 C 2.049121 -0.445731 -2.427833 0
M  V30 9 C 2.829795 0.421967 -3.172074 0
M  V30 10 C 2.964081 1.686025 -2.599876 0
M  V30 11 C 3.722251 2.618281 -3.266407 0
M  V30 12 N 3.931663 3.877972 -2.821025 0
M  V30 13 C 3.379634 4.297878 -1.645628 0
M  V30 14 C 2.604698 3.372163 -0.947300 0
M  V30 15 C 2.404560 2.094460 -1.419312 0
M  V30 16 C 1.635755 1.189711 -0.717949 0
M  V30 17 C -0.526267 -2.134356 2.253045 0
M  V30 18 C -0.157264 -2.000354 3.596913 0
M  V30 19 C -0.993514 -1.420832 4.558204 0
M  V30 20 C -2.237637 -0.956777 4.182206 0
M  V30 21 C -3.200284 -0.326692 5.120270 0
M  V30 22 O -3.026300 1.054910 5.192398 0
M  V30 23 C -2.595883 -1.091730 2.856072 0
M  V30 24 C -1.770452 -1.663392 1.909404 0
M  V30 25 H -1.633154 -4.314156 2.000606 0
M  V30 26 H -0.954082 -5.733590 1.261838 0
M  V30 27 H -0.819253 -3.656250 -0.127648 0
M  V30 28 H 0.685654 -4.550519 0.167929 0
M  V30 29 H 1.306819 -3.211522 2.050438 0
M  V30 30 H -0.369483 -1.024017 -0.632428 0
M  V30 31 H 1.881884 -1.455884 -2.786132 0
M  V30 32 H 3.294919 0.160974 -4.104151 0
M  V30 33 H 4.223890 2.444161 -4.204196 0
M  V30 34 H 3.534999 5.307150 -1.268270 0
M  V30 35 H 2.162875 3.682326 -0.022832 0
M  V30 36 H 1.181647 1.472761 0.209788 0
M  V30 37 H 0.802570 -2.332986 4.002029 0
M  V30 38 H -0.693580 -1.326397 5.584811 0
M  V30 39 H -3.082583 -0.743973 6.133154 0
M  V30 40 H -4.243173 -0.485331 4.777475 0
M  V30 41 H -2.168146 1.326385 4.751238 0
M  V30 42 H -3.545730 -0.756922 2.480740 0
M  V30 43 H -2.033956 -1.781251 0.872224 0
M  V30 END ATOM
M  V30 BEGIN BOND
M  V30 1 1 1 2
M  V30 2 1 2 3
M  V30 3 1 3 4
M  V30 4 2 4 5
M  V30 5 1 4 6
M  V30 6 1 6 7
M  V30 7 2 7 8
M  V30 8 1 8 9
M  V30 9 2 9 10
M  V30 10 1 10 11
M  V30 11 2 11 12
M  V30 12 1 12 13
M  V30 13 2 13 14
M  V30 14 1 14 15
M  V30 15 2 15 16
M  V30 16 1 3 17
M  V30 17 2 17 18
M  V30 18 1 18 19
M  V30 19 2 19 20
M  V30 20 1 20 21
M  V30 21 1 21 22
M  V30 22 1 20 23
M  V30 23 2 23 24
M  V30 24 1 16 7
M  V30 25 1 24 17
M  V30 26 1 15 10
M  V30 27 1 1 25
M  V30 28 1 1 26
M  V30 29 1 2 27
M  V30 30 1 2 28
M  V30 31 1 3 29 CFG=1
M  V30 32 1 6 30
M  V30 33 1 8 31
M  V30 34 1 9 32
M  V30 35 1 11 33
M  V30 36 1 13 34
M  V30 37 1 14 35
M  V30 38 1 16 36
M  V30 39 1 18 37
M  V30 40 1 19 38
M  V30 41 1 21 39
M  V30 42 1 21 40
M  V30 43 1 22 41
M  V30 44 1 23 42
M  V30 45 1 24 43
M  V30 END BOND
M  V30 END CTAB
M  END
>  <Dataset>  (211) 
ChEMBL_Kinases

>  <Ligand_Instance>  (211) 
nan

>  <PDB_ID>  (211) 
nan

>  <Standardized_SMILES>  (211) 
NC[C@@H](C(=O)Nc1ccc2cnccc2c1)c1ccc(CO)cc1

>  <Name>  (211) 
NETARSUDIL-M1

>  <Pocket>  (211) 
nan

>  <ATP_Site>  (211) 
nan

>  <Peripheral>  (211) 
nan

>  <Num_H_Atoms_ProtBoundConf>  (211) 
nan

>  <Num_Resolved_Atoms>  (211) 
nan

>  <Num_Not_Resolved_Atoms>  (211) 
nan

$$$$
CHEMBL4753203
     RDKit          3D

  0  0  0  0  0  0  0  0  0  0999 V3000
M  V30 BEGIN CTAB
M  V30 COUNTS 48 51 0 0 0
M  V30 BEGIN ATOM
M  V30 1 C 1.796163 -2.336492 -0.774321 0
M  V30 2 C 2.755897 -1.191461 -1.022754 0 CFG=2
M  V30 3 C 3.179075 -1.246477 -2.469711 0
M  V30 4 O 2.035405 -1.118640 -3.242964 0
M  V30 5 N 3.910895 -1.320232 -0.138371 0
M  V30 6 C 4.753451 -2.376266 -0.244872 0
M  V30 7 N 5.725640 -2.245108 0.686680 0
M  V30 8 N 5.481683 -1.135165 1.345783 0
M  V30 9 C 4.365227 -0.539543 0.859000 0
M  V30 10 C 3.628344 0.678356 1.182081 0
M  V30 11 C 3.883382 1.975742 0.751456 0
M  V30 12 C 3.060337 2.996493 1.175287 0
M  V30 13 C 1.989194 2.746909 2.019555 0
M  V30 14 C 1.767438 1.446818 2.425886 0
M  V30 15 N 0.663723 1.140687 3.304914 0
M  V30 16 C -0.527425 0.832511 2.586783 0
M  V30 17 O -0.621063 0.824492 1.314597 0
M  V30 18 N -1.738453 0.500461 3.261378 0
M  V30 19 C -2.944676 0.188229 2.547204 0
M  V30 20 C -3.950554 1.037223 2.129439 0
M  V30 21 C -5.016434 0.479806 1.453232 0
M  V30 22 C -5.051542 -0.880427 1.215898 0
M  V30 23 C -6.121322 -1.387959 0.545535 0
M  V30 24 C -6.210892 -2.743424 0.278973 0
M  V30 25 C -5.205354 -3.596576 0.695883 0
M  V30 26 C -4.134229 -3.050996 1.373085 0
M  V30 27 C -4.033371 -1.708175 1.643835 0
M  V30 28 N -2.980520 -1.157283 2.311823 0
M  V30 29 N 2.591926 0.449934 1.996554 0
M  V30 30 H 1.280174 -2.217512 0.216025 0
M  V30 31 H 2.355929 -3.301867 -0.843668 0
M  V30 32 H 1.062606 -2.360879 -1.620248 0
M  V30 33 H 2.211224 -0.233541 -0.808392 0
M  V30 34 H 3.914440 -0.439277 -2.706433 0
M  V30 35 H 3.703529 -2.212449 -2.620478 0
M  V30 36 H 2.231531 -0.564263 -4.058408 0
M  V30 37 H 4.699420 -3.212618 -0.944353 0
M  V30 38 H 4.741568 2.053237 0.097760 0
M  V30 39 H 3.311607 3.999411 0.802088 0
M  V30 40 H 1.359621 3.571196 2.335696 0
M  V30 41 H 0.602508 1.110232 4.364755 0
M  V30 42 H -1.788700 0.473053 4.311524 0
M  V30 43 H -3.759150 2.063049 2.399234 0
M  V30 44 H -5.771389 1.200223 1.153018 0
M  V30 45 H -6.926817 -0.762441 0.202285 0
M  V30 46 H -7.016342 -3.241619 -0.244355 0
M  V30 47 H -5.199424 -4.663786 0.528100 0
M  V30 48 H -3.320256 -3.690801 1.718710 0
M  V30 END ATOM
M  V30 BEGIN BOND
M  V30 1 1 1 2
M  V30 2 1 2 3
M  V30 3 1 3 4
M  V30 4 1 2 5
M  V30 5 1 5 6
M  V30 6 2 6 7
M  V30 7 1 7 8
M  V30 8 2 8 9
M  V30 9 1 9 10
M  V30 10 2 10 11
M  V30 11 1 11 12
M  V30 12 2 12 13
M  V30 13 1 13 14
M  V30 14 1 14 15
M  V30 15 1 15 16
M  V30 16 2 16 17
M  V30 17 1 16 18
M  V30 18 1 18 19
M  V30 19 2 19 20
M  V30 20 1 20 21
M  V30 21 2 21 22
M  V30 22 1 22 23
M  V30 23 2 23 24
M  V30 24 1 24 25
M  V30 25 2 25 26
M  V30 26 1 26 27
M  V30 27 2 27 28
M  V30 28 2 14 29
M  V30 29 1 9 5
M  V30 30 1 29 10
M  V30 31 1 28 19
M  V30 32 1 27 22
M  V30 33 1 1 30
M  V30 34 1 1 31
M  V30 35 1 1 32
M  V30 36 1 2 33 CFG=3
M  V30 37 1 3 34
M  V30 38 1 3 35
M  V30 39 1 4 36
M  V30 40 1 6 37
M  V30 41 1 11 38
M  V30 42 1 12 39
M  V30 43 1 13 40
M  V30 44 1 15 41
M  V30 45 1 18 42
M  V30 46 1 20 43
M  V30 47 1 21 44
M  V30 48 1 23 45
M  V30 49 1 24 46
M  V30 50 1 25 47
M  V30 51 1 26 48
M  V30 END BOND
M  V30 END CTAB
M  END
>  <Dataset>  (212) 
ChEMBL_Kinases

>  <Ligand_Instance>  (212) 
nan

>  <PDB_ID>  (212) 
nan

>  <Standardized_SMILES>  (212) 
C[C@H](CO)n1cnnc1-c1cccc(NC(=O)Nc2ccc3ccccc3n2)n1

>  <Name>  (212) 
nan

>  <Pocket>  (212) 
nan

>  <ATP_Site>  (212) 
nan

>  <Peripheral>  (212) 
nan

>  <Num_H_Atoms_ProtBoundConf>  (212) 
nan

>  <Num_Resolved_Atoms>  (212) 
nan

>  <Num_Not_Resolved_Atoms>  (212) 
nan

$$$$
CHEMBL4753307
     RDKit          3D

  0  0  0  0  0  0  0  0  0  0999 V3000
M  V30 BEGIN CTAB
M  V30 COUNTS 52 55 0 0 0
M  V30 BEGIN ATOM
M  V30 1 C -3.491390 -5.823120 0.371085 0
M  V30 2 O -3.503896 -4.462655 0.009841 0
M  V30 3 C -2.383860 -3.728981 -0.302525 0
M  V30 4 O -1.741508 -4.765128 -0.093437 0
M  V30 5 C -2.370849 -2.322506 -0.678623 0
M  V30 6 C -3.600503 -1.731033 -0.708065 0
M  V30 7 N -3.665403 -0.433132 -1.046815 0
M  V30 8 C -2.536071 0.248228 -1.345805 0
M  V30 9 N -2.734226 1.614446 -1.689100 0
M  V30 10 C -2.732349 2.673074 -0.712733 0
M  V30 11 C -2.925746 4.008692 -1.053883 0
M  V30 12 N -2.899613 4.891508 -0.034184 0
M  V30 13 C -2.702404 4.548670 1.246918 0
M  V30 14 C -2.683621 5.531948 2.301681 0
M  V30 15 N -2.686966 6.323561 3.145784 0
M  V30 16 C -2.512515 3.226444 1.571946 0
M  V30 17 N -2.534130 2.324506 0.571086 0
M  V30 18 C -1.314737 -0.390728 -1.302959 0
M  V30 19 C -1.164435 -1.719720 -0.964736 0
M  V30 20 N 0.087706 -2.341024 -0.935680 0
M  V30 21 C 1.376870 -1.782652 -1.205564 0
M  V30 22 C 1.782325 -0.694152 -0.273059 0
M  V30 23 C 2.673657 0.358491 -0.898707 0 CFG=1
M  V30 24 C 3.951601 -0.395416 -1.301300 0
M  V30 25 C 3.765734 -0.725006 -2.786029 0
M  V30 26 C 2.308436 -0.305683 -3.039663 0 CFG=1
M  V30 27 C 1.426315 -1.453664 -2.665519 0
M  V30 28 N 2.175615 0.725728 -2.130643 0
M  V30 29 C 1.685655 1.964427 -2.441816 0
M  V30 30 H -4.480079 -6.234045 0.569781 0
M  V30 31 H -2.826513 -6.052726 1.237807 0
M  V30 32 H -3.084260 -6.393128 -0.491509 0
M  V30 33 H -4.512455 -2.253484 -0.474055 0
M  V30 34 H -2.895263 1.926321 -2.693140 0
M  V30 35 H -3.083019 4.269415 -2.088316 0
M  V30 36 H -2.347062 2.861530 2.576440 0
M  V30 37 H -0.514308 0.259623 -1.562558 0
M  V30 38 H 0.014186 -3.370024 -0.671071 0
M  V30 39 H 2.135627 -2.610142 -1.054439 0
M  V30 40 H 2.367312 -1.146201 0.586089 0
M  V30 41 H 0.954553 -0.162214 0.235792 0
M  V30 42 H 2.883111 1.135547 -0.161504 0
M  V30 43 H 4.054323 -1.355931 -0.792224 0
M  V30 44 H 4.846529 0.216587 -1.113275 0
M  V30 45 H 3.932364 -1.780122 -3.019697 0
M  V30 46 H 4.434307 -0.043441 -3.381075 0
M  V30 47 H 2.156707 -0.079701 -4.096541 0
M  V30 48 H 1.835369 -2.344266 -3.227370 0
M  V30 49 H 0.405870 -1.290400 -3.116416 0
M  V30 50 H 2.471564 2.716887 -2.629062 0
M  V30 51 H 1.009145 2.325164 -1.654025 0
M  V30 52 H 1.069989 1.907315 -3.381237 0
M  V30 END ATOM
M  V30 BEGIN BOND
M  V30 1 1 1 2
M  V30 2 1 2 3
M  V30 3 2 3 4
M  V30 4 1 3 5
M  V30 5 2 5 6
M  V30 6 1 6 7
M  V30 7 2 7 8
M  V30 8 1 8 9
M  V30 9 1 9 10
M  V30 10 2 10 11
M  V30 11 1 11 12
M  V30 12 2 12 13
M  V30 13 1 13 14
M  V30 14 3 14 15
M  V30 15 1 13 16
M  V30 16 2 16 17
M  V30 17 1 8 18
M  V30 18 2 18 19
M  V30 19 1 19 20
M  V30 20 1 20 21
M  V30 21 1 21 22
M  V30 22 1 22 23
M  V30 23 1 23 24
M  V30 24 1 24 25
M  V30 25 1 25 26
M  V30 26 1 26 27
M  V30 27 1 26 28
M  V30 28 1 28 29
M  V30 29 1 19 5
M  V30 30 1 27 21
M  V30 31 1 17 10
M  V30 32 1 28 23
M  V30 33 1 1 30
M  V30 34 1 1 31
M  V30 35 1 1 32
M  V30 36 1 6 33
M  V30 37 1 9 34
M  V30 38 1 11 35
M  V30 39 1 16 36
M  V30 40 1 18 37
M  V30 41 1 20 38
M  V30 42 1 21 39
M  V30 43 1 22 40
M  V30 44 1 22 41
M  V30 45 1 23 42 CFG=1
M  V30 46 1 24 43
M  V30 47 1 24 44
M  V30 48 1 25 45
M  V30 49 1 25 46
M  V30 50 1 26 47 CFG=3
M  V30 51 1 27 48
M  V30 52 1 27 49
M  V30 53 1 29 50
M  V30 54 1 29 51
M  V30 55 1 29 52
M  V30 END BOND
M  V30 END CTAB
M  END
>  <Dataset>  (213) 
ChEMBL_Kinases

>  <Ligand_Instance>  (213) 
nan

>  <PDB_ID>  (213) 
nan

>  <Standardized_SMILES>  (213) 
COC(=O)c1cnc(Nc2cnc(C#N)cn2)cc1NC1C[C@H]2CC[C@@H](C1)N2C

>  <Name>  (213) 
nan

>  <Pocket>  (213) 
nan

>  <ATP_Site>  (213) 
nan

>  <Peripheral>  (213) 
nan

>  <Num_H_Atoms_ProtBoundConf>  (213) 
nan

>  <Num_Resolved_Atoms>  (213) 
nan

>  <Num_Not_Resolved_Atoms>  (213) 
nan

$$$$
CHEMBL4753440
     RDKit          3D

  0  0  0  0  0  0  0  0  0  0999 V3000
M  V30 BEGIN CTAB
M  V30 COUNTS 139 143 0 0 0
M  V30 BEGIN ATOM
M  V30 1 C 9.464499 -2.695305 5.040782 0
M  V30 2 C 8.358168 -2.036189 5.783436 0
M  V30 3 N 8.026018 -2.022203 6.992391 0
M  V30 4 C 7.349938 -1.683681 7.811733 0
M  V30 5 S 6.363373 -0.720213 6.515115 0
M  V30 6 C 7.381796 -1.208357 5.163044 0
M  V30 7 C 7.188056 -0.798582 3.772642 0
M  V30 8 C 7.845572 -1.132891 2.642711 0
M  V30 9 C 7.579862 -0.670829 1.377936 0
M  V30 10 C 6.548566 0.225691 1.189036 0
M  V30 11 C 6.230063 0.729259 -0.158695 0 CFG=2
M  V30 12 C 6.994140 1.978849 -0.518608 0
M  V30 13 N 4.805642 0.821285 -0.431193 0
M  V30 14 C 3.829189 0.211978 -1.326004 0
M  V30 15 O 4.529239 -0.566629 -1.978912 0
M  V30 16 C 2.514131 0.816332 -1.007613 0 CFG=1
M  V30 17 C 1.661054 0.800861 -2.288011 0
M  V30 18 C 0.312842 1.171519 -1.671536 0 CFG=2
M  V30 19 O 0.051003 2.482462 -1.978641 0
M  V30 20 C 0.566006 0.942033 -0.177407 0
M  V30 21 N 1.680419 -0.021837 -0.166162 0
M  V30 22 C 2.169208 -1.286322 0.301839 0
M  V30 23 O 3.296837 -1.749620 0.001342 0
M  V30 24 C 1.509184 -2.274852 1.185122 0 CFG=1
M  V30 25 N 0.263888 -1.907559 1.730028 0
M  V30 26 C -0.706333 -1.624209 2.665274 0
M  V30 27 O -0.303047 -1.749371 3.864669 0
M  V30 28 C -2.082563 -1.217348 2.388560 0
M  V30 29 C -2.913310 -1.143088 3.626195 0
M  V30 30 C -4.309262 -0.701335 3.158329 0
M  V30 31 C -5.192652 -0.639061 4.379255 0
M  V30 32 C -6.588292 -0.213896 4.103852 0
M  V30 33 C -6.669659 1.165158 3.521251 0
M  V30 34 C -6.094891 2.165401 4.482289 0
M  V30 35 C -6.172759 3.577977 4.030833 0
M  V30 36 C -5.430488 3.874125 2.727571 0
M  V30 37 C -3.989921 3.587014 2.900351 0
M  V30 38 C -3.059011 3.909545 1.806787 0
M  V30 39 N -3.169185 3.395345 0.517865 0
M  V30 40 C -4.172713 3.903314 -0.310470 0
M  V30 41 C -4.168677 3.295464 -1.712396 0
M  V30 42 C -4.375687 1.806141 -1.683829 0
M  V30 43 C -4.345949 1.243930 -3.093375 0
M  V30 44 O -4.532421 -0.138814 -3.134979 0
M  V30 45 N -4.172904 -0.666660 -4.305047 0
M  V30 46 C -3.234259 -1.262842 -5.150486 0
M  V30 47 O -2.102142 -1.434411 -4.619770 0
M  V30 48 C -3.509610 -1.656907 -6.517962 0
M  V30 49 C -4.708569 -1.405819 -7.141779 0
M  V30 50 C -4.812531 -1.802952 -8.460323 0
M  V30 51 C -3.776421 -2.417962 -9.124866 0
M  V30 52 F -3.942038 -2.781600 -10.416336 0
M  V30 53 C -2.598455 -2.644195 -8.446448 0
M  V30 54 F -1.637263 -3.243528 -9.154946 0
M  V30 55 C -2.439282 -2.264510 -7.114076 0
M  V30 56 N -1.185462 -2.600358 -6.588137 0
M  V30 57 C -0.510228 -3.761534 -6.120322 0
M  V30 58 C 0.626872 -3.929986 -6.919680 0
M  V30 59 C 1.495046 -5.007187 -6.696601 0
M  V30 60 C 1.192155 -5.877915 -5.676113 0
M  V30 61 I 2.421345 -7.533874 -5.233140 0
M  V30 62 C 0.089504 -5.731800 -4.886153 0
M  V30 63 C -0.751997 -4.668941 -5.121303 0
M  V30 64 F -1.872132 -4.406951 -4.433344 0
M  V30 65 C 1.506042 -3.669661 0.571682 0
M  V30 66 C 0.796826 -4.629808 1.540973 0
M  V30 67 C 0.822394 -3.702164 -0.765900 0
M  V30 68 C 2.917688 -4.179022 0.403716 0
M  V30 69 C 5.844136 0.599623 2.314025 0
M  V30 70 C 6.155269 0.102763 3.560667 0
M  V30 71 H 10.133552 -3.245572 5.743627 0
M  V30 72 H 9.114813 -3.484022 4.335470 0
M  V30 73 H 10.096928 -1.913156 4.590183 0
M  V30 74 H 7.239134 -1.808727 8.894168 0
M  V30 75 H 8.648691 -1.831238 2.770348 0
M  V30 76 H 8.189951 -1.023917 0.560914 0
M  V30 77 H 6.599145 -0.061988 -0.880372 0
M  V30 78 H 7.313899 1.960924 -1.582012 0
M  V30 79 H 6.283607 2.835663 -0.380860 0
M  V30 80 H 7.870180 2.131215 0.150664 0
M  V30 81 H 4.644589 1.574934 0.309674 0
M  V30 82 H 2.534793 1.826985 -0.626178 0
M  V30 83 H 1.632847 -0.249152 -2.617073 0
M  V30 84 H 2.020223 1.526413 -3.017389 0
M  V30 85 H -0.441865 0.488830 -2.059006 0
M  V30 86 H -0.893383 2.559062 -2.270431 0
M  V30 87 H -0.348375 0.559948 0.258213 0
M  V30 88 H 0.926736 1.889516 0.217310 0
M  V30 89 H 2.213674 -2.398167 2.078478 0
M  V30 90 H -0.155555 -1.793321 0.746525 0
M  V30 91 H -2.192627 -0.268055 1.821332 0
M  V30 92 H -2.570829 -1.987679 1.732987 0
M  V30 93 H -3.027650 -2.179276 4.001462 0
M  V30 94 H -2.570788 -0.417417 4.371149 0
M  V30 95 H -4.273451 0.280326 2.657702 0
M  V30 96 H -4.722819 -1.503886 2.496514 0
M  V30 97 H -4.678787 0.003800 5.125596 0
M  V30 98 H -5.201497 -1.683014 4.827587 0
M  V30 99 H -7.125709 -0.923869 3.413044 0
M  V30 100 H -7.202915 -0.171089 5.054024 0
M  V30 101 H -7.727107 1.464874 3.343525 0
M  V30 102 H -6.080151 1.180517 2.581701 0
M  V30 103 H -6.689079 2.104349 5.440793 0
M  V30 104 H -5.051748 1.938378 4.798949 0
M  V30 105 H -7.239526 3.902475 3.901643 0
M  V30 106 H -5.735309 4.224122 4.813575 0
M  V30 107 H -5.901677 3.218863 1.945150 0
M  V30 108 H -5.612913 4.908604 2.461658 0
M  V30 109 H -3.657119 4.216809 3.799168 0
M  V30 110 H -3.817404 2.541461 3.301250 0
M  V30 111 H -2.002588 3.711692 2.238742 0
M  V30 112 H -3.011935 5.070404 1.798878 0
M  V30 113 H -3.002163 2.385086 0.520299 0
M  V30 114 H -3.919928 5.006180 -0.520145 0
M  V30 115 H -5.184220 3.964665 0.087002 0
M  V30 116 H -3.237265 3.593080 -2.218948 0
M  V30 117 H -5.020427 3.765689 -2.243030 0
M  V30 118 H -3.700661 1.268131 -1.015105 0
M  V30 119 H -5.418744 1.645262 -1.281157 0
M  V30 120 H -5.118749 1.738731 -3.708492 0
M  V30 121 H -3.353325 1.493185 -3.517834 0
M  V30 122 H -5.161739 -0.473778 -4.650478 0
M  V30 123 H -5.515217 -0.922406 -6.609008 0
M  V30 124 H -5.740316 -1.629973 -9.013048 0
M  V30 125 H -0.776670 -1.648780 -6.618976 0
M  V30 126 H 1.004214 -3.343297 -7.751761 0
M  V30 127 H 2.394802 -5.252254 -7.237038 0
M  V30 128 H -0.258056 -6.334192 -4.064267 0
M  V30 129 H -0.295190 -4.504627 1.402713 0
M  V30 130 H 1.019352 -5.678785 1.277814 0
M  V30 131 H 1.145172 -4.463612 2.573572 0
M  V30 132 H -0.268488 -3.990403 -0.679887 0
M  V30 133 H 1.227474 -4.491672 -1.456856 0
M  V30 134 H 0.952730 -2.755133 -1.358121 0
M  V30 135 H 3.204778 -3.988654 -0.662849 0
M  V30 136 H 2.852183 -5.294621 0.463650 0
M  V30 137 H 3.645729 -3.764197 1.101996 0
M  V30 138 H 5.015265 1.307361 2.242282 0
M  V30 139 H 5.530736 0.468846 4.374718 0
M  V30 END ATOM
M  V30 BEGIN BOND
M  V30 1 1 1 2
M  V30 2 1 2 3
M  V30 3 2 3 4
M  V30 4 1 4 5
M  V30 5 1 5 6
M  V30 6 1 6 7
M  V30 7 2 7 8
M  V30 8 1 8 9
M  V30 9 2 9 10
M  V30 10 1 10 11
M  V30 11 1 11 12
M  V30 12 1 11 13
M  V30 13 1 13 14
M  V30 14 2 14 15
M  V30 15 1 14 16
M  V30 16 1 16 17
M  V30 17 1 17 18
M  V30 18 1 18 19
M  V30 19 1 18 20
M  V30 20 1 20 21
M  V30 21 1 21 22
M  V30 22 2 22 23
M  V30 23 1 22 24
M  V30 24 1 24 25
M  V30 25 1 25 26
M  V30 26 2 26 27
M  V30 27 1 26 28
M  V30 28 1 28 29
M  V30 29 1 29 30
M  V30 30 1 30 31
M  V30 31 1 31 32
M  V30 32 1 32 33
M  V30 33 1 33 34
M  V30 34 1 34 35
M  V30 35 1 35 36
M  V30 36 1 36 37
M  V30 37 1 37 38
M  V30 38 1 38 39
M  V30 39 1 39 40
M  V30 40 1 40 41
M  V30 41 1 41 42
M  V30 42 1 42 43
M  V30 43 1 43 44
M  V30 44 1 44 45
M  V30 45 1 45 46
M  V30 46 2 46 47
M  V30 47 1 46 48
M  V30 48 2 48 49
M  V30 49 1 49 50
M  V30 50 2 50 51
M  V30 51 1 51 52
M  V30 52 1 51 53
M  V30 53 1 53 54
M  V30 54 2 53 55
M  V30 55 1 55 56
M  V30 56 1 56 57
M  V30 57 2 57 58
M  V30 58 1 58 59
M  V30 59 2 59 60
M  V30 60 1 60 61
M  V30 61 1 60 62
M  V30 62 2 62 63
M  V30 63 1 63 64
M  V30 64 1 24 65
M  V30 65 1 65 66
M  V30 66 1 65 67
M  V30 67 1 65 68
M  V30 68 1 10 69
M  V30 69 2 69 70
M  V30 70 2 6 2
M  V30 71 1 70 7
M  V30 72 1 21 16
M  V30 73 1 55 48
M  V30 74 1 63 57
M  V30 75 1 1 71
M  V30 76 1 1 72
M  V30 77 1 1 73
M  V30 78 1 4 74
M  V30 79 1 8 75
M  V30 80 1 9 76
M  V30 81 1 11 77 CFG=3
M  V30 82 1 12 78
M  V30 83 1 12 79
M  V30 84 1 12 80
M  V30 85 1 13 81
M  V30 86 1 16 82 CFG=1
M  V30 87 1 17 83
M  V30 88 1 17 84
M  V30 89 1 18 85 CFG=3
M  V30 90 1 19 86
M  V30 91 1 20 87
M  V30 92 1 20 88
M  V30 93 1 24 89 CFG=1
M  V30 94 1 25 90
M  V30 95 1 28 91
M  V30 96 1 28 92
M  V30 97 1 29 93
M  V30 98 1 29 94
M  V30 99 1 30 95
M  V30 100 1 30 96
M  V30 101 1 31 97
M  V30 102 1 31 98
M  V30 103 1 32 99
M  V30 104 1 32 100
M  V30 105 1 33 101
M  V30 106 1 33 102
M  V30 107 1 34 103
M  V30 108 1 34 104
M  V30 109 1 35 105
M  V30 110 1 35 106
M  V30 111 1 36 107
M  V30 112 1 36 108
M  V30 113 1 37 109
M  V30 114 1 37 110
M  V30 115 1 38 111
M  V30 116 1 38 112
M  V30 117 1 39 113
M  V30 118 1 40 114
M  V30 119 1 40 115
M  V30 120 1 41 116
M  V30 121 1 41 117
M  V30 122 1 42 118
M  V30 123 1 42 119
M  V30 124 1 43 120
M  V30 125 1 43 121
M  V30 126 1 45 122
M  V30 127 1 49 123
M  V30 128 1 50 124
M  V30 129 1 56 125
M  V30 130 1 58 126
M  V30 131 1 59 127
M  V30 132 1 62 128
M  V30 133 1 66 129
M  V30 134 1 66 130
M  V30 135 1 66 131
M  V30 136 1 67 132
M  V30 137 1 67 133
M  V30 138 1 67 134
M  V30 139 1 68 135
M  V30 140 1 68 136
M  V30 141 1 68 137
M  V30 142 1 69 138
M  V30 143 1 70 139
M  V30 END BOND
M  V30 END CTAB
M  END
>  <Dataset>  (214) 
ChEMBL_Kinases

>  <Ligand_Instance>  (214) 
nan

>  <PDB_ID>  (214) 
nan

>  <Standardized_SMILES>  (214) 
Cc1ncsc1-c1ccc([C@H](C)NC(=O)[C@H]2C[C@H](O)CN2C(=O)[C@@H](NC(=O)CCCCCCCCCCCNCCCCONC(=O)c2ccc(F)c(F)c2Nc2ccc(I)cc2F)C(C)(C)C)cc1

>  <Name>  (214) 
nan

>  <Pocket>  (214) 
nan

>  <ATP_Site>  (214) 
nan

>  <Peripheral>  (214) 
nan

>  <Num_H_Atoms_ProtBoundConf>  (214) 
nan

>  <Num_Resolved_Atoms>  (214) 
nan

>  <Num_Not_Resolved_Atoms>  (214) 
nan

$$$$
CHEMBL1342
     RDKit          3D

  0  0  0  0  0  0  0  0  0  0999 V3000
M  V30 BEGIN CTAB
M  V30 COUNTS 15 14 0 0 0
M  V30 BEGIN ATOM
M  V30 1 O 1.034963 -1.846448 2.530739 0
M  V30 2 C 0.306504 -1.101368 1.815370 0
M  V30 3 O -0.900422 -0.642597 2.349690 0
M  V30 4 C 0.556390 -0.613744 0.417222 0
M  V30 5 C 0.955656 0.838354 0.442044 0
M  V30 6 C 2.205999 1.076204 1.229762 0
M  V30 7 O 3.270820 0.359523 0.676013 0
M  V30 8 H -1.016665 -0.477173 3.354923 0
M  V30 9 H -0.360721 -0.782657 -0.170028 0
M  V30 10 H 1.432226 -1.198531 0.068994 0
M  V30 11 H 1.076869 1.191479 -0.621622 0
M  V30 12 H 0.130746 1.425332 0.904243 0
M  V30 13 H 2.039865 0.805552 2.281909 0
M  V30 14 H 2.467465 2.136042 1.202875 0
M  V30 15 H 3.091063 0.128869 -0.272813 0
M  V30 END ATOM
M  V30 BEGIN BOND
M  V30 1 2 1 2
M  V30 2 1 2 3
M  V30 3 1 2 4
M  V30 4 1 4 5
M  V30 5 1 5 6
M  V30 6 1 6 7
M  V30 7 1 3 8
M  V30 8 1 4 9
M  V30 9 1 4 10
M  V30 10 1 5 11
M  V30 11 1 5 12
M  V30 12 1 6 13
M  V30 13 1 6 14
M  V30 14 1 7 15
M  V30 END BOND
M  V30 END CTAB
M  END
>  <Dataset>  (215) 
ChEMBL_Kinases

>  <Ligand_Instance>  (215) 
nan

>  <PDB_ID>  (215) 
nan

>  <Standardized_SMILES>  (215) 
O=C(O)CCCO

>  <Name>  (215) 
OXYBATE

>  <Pocket>  (215) 
nan

>  <ATP_Site>  (215) 
nan

>  <Peripheral>  (215) 
nan

>  <Num_H_Atoms_ProtBoundConf>  (215) 
nan

>  <Num_Resolved_Atoms>  (215) 
nan

>  <Num_Not_Resolved_Atoms>  (215) 
nan

$$$$
CHEMBL4752693
     RDKit          3D

  0  0  0  0  0  0  0  0  0  0999 V3000
M  V30 BEGIN CTAB
M  V30 COUNTS 54 57 0 0 0
M  V30 BEGIN ATOM
M  V30 1 C 2.904676 -1.844045 2.037942 0
M  V30 2 C 3.659890 -0.954151 1.113548 0
M  V30 3 C 3.735751 -1.571508 -0.284671 0
M  V30 4 O 4.959585 -0.746750 1.624781 0
M  V30 5 C 5.156125 0.616412 1.706098 0
M  V30 6 O 6.315774 0.973929 2.067361 0
M  V30 7 C 3.952641 1.407747 1.347747 0
M  V30 8 C 3.855166 2.757364 1.380481 0
M  V30 9 C 2.578841 3.156024 1.048559 0
M  V30 10 C 1.522887 2.302097 0.722030 0
M  V30 11 N 0.222413 2.768243 0.378506 0
M  V30 12 C -1.004315 2.060270 0.437813 0
M  V30 13 N -1.861437 2.828667 1.106571 0
M  V30 14 C -3.127837 2.502507 1.395016 0
M  V30 15 C -3.462341 1.267591 0.923305 0
M  V30 16 C -4.820186 0.866632 1.246083 0
M  V30 17 O -5.709436 1.535385 1.872997 0
M  V30 18 O -5.861578 -0.032340 1.228678 0
M  V30 19 C -2.633969 0.388754 0.212318 0
M  V30 20 N -3.133281 -0.847984 -0.227469 0
M  V30 21 C -2.812644 -2.050161 -0.920934 0 CFG=2
M  V30 22 C -3.972880 -3.032782 -1.062962 0
M  V30 23 O -3.496892 -4.139592 -1.755376 0
M  V30 24 C -1.607936 -2.767159 -0.388625 0
M  V30 25 C -0.845355 -3.464726 -1.327599 0
M  V30 26 C 0.277787 -4.165721 -0.955223 0
M  V30 27 C 0.701394 -4.208938 0.375725 0
M  V30 28 C -0.113696 -3.494165 1.212699 0
M  V30 29 C -1.247121 -2.764595 0.955013 0
M  V30 30 N -1.356723 0.828784 -0.026084 0
M  V30 31 C 1.824056 0.923883 0.741286 0
M  V30 32 C 3.086687 0.392966 1.062396 0
M  V30 33 H 2.932923 -2.919377 1.714578 0
M  V30 34 H 3.309146 -1.842329 3.082244 0
M  V30 35 H 1.832028 -1.531632 2.123225 0
M  V30 36 H 4.266974 -0.912561 -0.982890 0
M  V30 37 H 4.235518 -2.553694 -0.194962 0
M  V30 38 H 2.692569 -1.759375 -0.598796 0
M  V30 39 H 4.613314 3.470927 1.623088 0
M  V30 40 H 2.317394 4.228473 1.031008 0
M  V30 41 H 0.270135 3.762351 0.042886 0
M  V30 42 H -3.844456 3.106383 1.933412 0
M  V30 43 H -5.833607 -0.915318 1.739560 0
M  V30 44 H -4.151951 -0.998202 0.026413 0
M  V30 45 H -2.565973 -1.762723 -1.995375 0
M  V30 46 H -4.784315 -2.575509 -1.632977 0
M  V30 47 H -4.291472 -3.341492 -0.043994 0
M  V30 48 H -3.553422 -3.990762 -2.744957 0
M  V30 49 H -1.092568 -3.494454 -2.399298 0
M  V30 50 H 0.904951 -4.727638 -1.667428 0
M  V30 51 H 1.571329 -4.749931 0.690793 0
M  V30 52 H 0.200750 -3.509843 2.270277 0
M  V30 53 H -1.832388 -2.227779 1.663437 0
M  V30 54 H 1.008035 0.228398 0.480446 0
M  V30 END ATOM
M  V30 BEGIN BOND
M  V30 1 1 1 2
M  V30 2 1 2 3
M  V30 3 1 2 4
M  V30 4 1 4 5
M  V30 5 2 5 6
M  V30 6 1 5 7
M  V30 7 2 7 8
M  V30 8 1 8 9
M  V30 9 2 9 10
M  V30 10 1 10 11
M  V30 11 1 11 12
M  V30 12 2 12 13
M  V30 13 1 13 14
M  V30 14 2 14 15
M  V30 15 1 15 16
M  V30 16 2 16 17
M  V30 17 1 16 18
M  V30 18 1 15 19
M  V30 19 1 19 20
M  V30 20 1 20 21
M  V30 21 1 21 22
M  V30 22 1 22 23
M  V30 23 1 21 24
M  V30 24 2 24 25
M  V30 25 1 25 26
M  V30 26 2 26 27
M  V30 27 1 27 28
M  V30 28 2 28 29
M  V30 29 2 19 30
M  V30 30 1 10 31
M  V30 31 2 31 32
M  V30 32 1 32 2
M  V30 33 1 32 7
M  V30 34 1 30 12
M  V30 35 1 29 24
M  V30 36 1 1 33
M  V30 37 1 1 34
M  V30 38 1 1 35
M  V30 39 1 3 36
M  V30 40 1 3 37
M  V30 41 1 3 38
M  V30 42 1 8 39
M  V30 43 1 9 40
M  V30 44 1 11 41
M  V30 45 1 14 42
M  V30 46 1 18 43
M  V30 47 1 20 44
M  V30 48 1 21 45 CFG=3
M  V30 49 1 22 46
M  V30 50 1 22 47
M  V30 51 1 23 48
M  V30 52 1 25 49
M  V30 53 1 26 50
M  V30 54 1 27 51
M  V30 55 1 28 52
M  V30 56 1 29 53
M  V30 57 1 31 54
M  V30 END BOND
M  V30 END CTAB
M  END
>  <Dataset>  (216) 
ChEMBL_Kinases

>  <Ligand_Instance>  (216) 
nan

>  <PDB_ID>  (216) 
nan

>  <Standardized_SMILES>  (216) 
CC1(C)OC(=O)c2ccc(Nc3ncc(C(=O)O)c(N[C@H](CO)c4ccccc4)n3)cc21

>  <Name>  (216) 
nan

>  <Pocket>  (216) 
nan

>  <ATP_Site>  (216) 
nan

>  <Peripheral>  (216) 
nan

>  <Num_H_Atoms_ProtBoundConf>  (216) 
nan

>  <Num_Resolved_Atoms>  (216) 
nan

>  <Num_Not_Resolved_Atoms>  (216) 
nan

$$$$
CHEMBL4762761
     RDKit          3D

  0  0  0  0  0  0  0  0  0  0999 V3000
M  V30 BEGIN CTAB
M  V30 COUNTS 38 41 0 0 0
M  V30 BEGIN ATOM
M  V30 1 O 1.114771 -3.464725 3.161993 0
M  V30 2 C 1.209510 -2.457971 2.384854 0
M  V30 3 C 2.119219 -2.649511 1.369298 0
M  V30 4 C 2.312377 -1.629789 0.460335 0
M  V30 5 C 1.563703 -0.462023 0.635899 0
M  V30 6 C 1.757798 0.643140 -0.332284 0
M  V30 7 C 1.627296 1.983475 -0.023208 0
M  V30 8 C 1.840111 2.892526 -1.041456 0
M  V30 9 C 2.171795 2.542493 -2.334460 0
M  V30 10 C 2.427096 3.247912 -3.492538 0
M  V30 11 N 2.700307 2.349712 -4.456243 0
M  V30 12 N 2.627751 1.115008 -3.954876 0
M  V30 13 C 2.302893 1.192109 -2.643900 0
M  V30 14 C 2.090437 0.275506 -1.626182 0
M  V30 15 C 0.667798 -0.342722 1.681376 0
M  V30 16 N 0.482889 -1.339971 2.565150 0
M  V30 17 C -0.455996 -1.249293 3.681283 0
M  V30 18 C -1.769400 -1.752893 3.206963 0
M  V30 19 C -2.229110 -3.043770 3.256887 0
M  V30 20 C -3.445762 -3.442873 2.803899 0
M  V30 21 C -4.285779 -2.490229 2.252991 0
M  V30 22 Cl -5.874200 -2.925564 1.645700 0
M  V30 23 C -3.888651 -1.157346 2.167548 0
M  V30 24 Cl -4.936037 0.072506 1.472405 0
M  V30 25 C -2.639905 -0.812292 2.645029 0
M  V30 26 H 2.696021 -3.554855 1.237743 0
M  V30 27 H 3.021512 -1.745446 -0.353875 0
M  V30 28 H 1.370660 2.214938 0.983888 0
M  V30 29 H 1.733245 3.954505 -0.784089 0
M  V30 30 H 2.381246 4.327944 -3.484497 0
M  V30 31 H 2.791962 0.206931 -4.472943 0
M  V30 32 H 2.214653 -0.763794 -1.961599 0
M  V30 33 H 0.098420 0.567267 1.800880 0
M  V30 34 H -0.121972 -1.911964 4.504890 0
M  V30 35 H -0.556606 -0.201695 3.988940 0
M  V30 36 H -1.566634 -3.762873 3.685882 0
M  V30 37 H -3.745030 -4.486200 2.875811 0
M  V30 38 H -2.333671 0.240692 2.574684 0
M  V30 END ATOM
M  V30 BEGIN BOND
M  V30 1 2 1 2
M  V30 2 1 2 3
M  V30 3 2 3 4
M  V30 4 1 4 5
M  V30 5 1 5 6
M  V30 6 2 6 7
M  V30 7 1 7 8
M  V30 8 2 8 9
M  V30 9 1 9 10
M  V30 10 2 10 11
M  V30 11 1 11 12
M  V30 12 1 12 13
M  V30 13 2 13 14
M  V30 14 2 5 15
M  V30 15 1 15 16
M  V30 16 1 16 17
M  V30 17 1 17 18
M  V30 18 2 18 19
M  V30 19 1 19 20
M  V30 20 2 20 21
M  V30 21 1 21 22
M  V30 22 1 21 23
M  V30 23 1 23 24
M  V30 24 2 23 25
M  V30 25 1 16 2
M  V30 26 1 25 18
M  V30 27 1 14 6
M  V30 28 1 13 9
M  V30 29 1 3 26
M  V30 30 1 4 27
M  V30 31 1 7 28
M  V30 32 1 8 29
M  V30 33 1 10 30
M  V30 34 1 12 31
M  V30 35 1 14 32
M  V30 36 1 15 33
M  V30 37 1 17 34
M  V30 38 1 17 35
M  V30 39 1 19 36
M  V30 40 1 20 37
M  V30 41 1 25 38
M  V30 END BOND
M  V30 END CTAB
M  END
>  <Dataset>  (217) 
ChEMBL_Kinases

>  <Ligand_Instance>  (217) 
nan

>  <PDB_ID>  (217) 
nan

>  <Standardized_SMILES>  (217) 
O=c1ccc(-c2ccc3cn[nH]c3c2)cn1Cc1ccc(Cl)c(Cl)c1

>  <Name>  (217) 
nan

>  <Pocket>  (217) 
nan

>  <ATP_Site>  (217) 
nan

>  <Peripheral>  (217) 
nan

>  <Num_H_Atoms_ProtBoundConf>  (217) 
nan

>  <Num_Resolved_Atoms>  (217) 
nan

>  <Num_Not_Resolved_Atoms>  (217) 
nan

$$$$
CHEMBL183310
     RDKit          3D

  0  0  0  0  0  0  0  0  0  0999 V3000
M  V30 BEGIN CTAB
M  V30 COUNTS 36 39 0 0 0
M  V30 BEGIN ATOM
M  V30 1 O -0.869278 -1.988904 4.580781 0
M  V30 2 C 0.087673 -1.822614 3.754657 0
M  V30 3 N 1.479441 -1.588259 4.032935 0
M  V30 4 C 2.114814 -1.477646 2.790547 0
M  V30 5 O 3.362684 -1.265685 2.689820 0
M  V30 6 C 1.094817 -1.646625 1.766426 0
M  V30 7 C 1.329093 -1.633143 0.323378 0
M  V30 8 C 0.988338 -2.526474 -0.673718 0
M  V30 9 N 1.414159 -2.020369 -1.870505 0
M  V30 10 C 2.005471 -0.842515 -1.614929 0
M  V30 11 C 2.598727 0.099840 -2.428417 0
M  V30 12 C 3.154688 1.284389 -1.988794 0
M  V30 13 C 3.107283 1.535419 -0.621827 0
M  V30 14 C 2.523537 0.621479 0.229314 0
M  V30 15 C 1.978757 -0.552130 -0.250874 0
M  V30 16 C -0.097774 -1.848474 2.285649 0
M  V30 17 N -1.328701 -2.038223 1.551457 0
M  V30 18 C -1.997981 -0.884721 1.008786 0
M  V30 19 C -2.716735 -0.080089 1.877399 0
M  V30 20 C -3.390533 1.037861 1.375035 0
M  V30 21 C -3.366364 1.372509 0.042389 0
M  V30 22 C -2.651191 0.579900 -0.842709 0
M  V30 23 C -2.001912 -0.509963 -0.313159 0
M  V30 24 H 1.858895 -1.529338 5.007383 0
M  V30 25 H 0.460606 -3.466023 -0.450573 0
M  V30 26 H 1.271931 -2.508943 -2.778944 0
M  V30 27 H 2.632789 -0.091500 -3.485318 0
M  V30 28 H 3.620571 2.046425 -2.560061 0
M  V30 29 H 3.510475 2.437002 -0.160886 0
M  V30 30 H 2.489136 0.850705 1.302258 0
M  V30 31 H -1.764372 -2.969209 1.394174 0
M  V30 32 H -2.762683 -0.309048 2.952714 0
M  V30 33 H -3.936154 1.629957 2.106123 0
M  V30 34 H -3.901182 2.248569 -0.309537 0
M  V30 35 H -2.623565 0.834941 -1.899418 0
M  V30 36 H -1.461797 -1.105973 -1.026571 0
M  V30 END ATOM
M  V30 BEGIN BOND
M  V30 1 2 1 2
M  V30 2 1 2 3
M  V30 3 1 3 4
M  V30 4 2 4 5
M  V30 5 1 4 6
M  V30 6 1 6 7
M  V30 7 2 7 8
M  V30 8 1 8 9
M  V30 9 1 9 10
M  V30 10 2 10 11
M  V30 11 1 11 12
M  V30 12 2 12 13
M  V30 13 1 13 14
M  V30 14 2 14 15
M  V30 15 2 6 16
M  V30 16 1 16 17
M  V30 17 1 17 18
M  V30 18 2 18 19
M  V30 19 1 19 20
M  V30 20 2 20 21
M  V30 21 1 21 22
M  V30 22 2 22 23
M  V30 23 1 16 2
M  V30 24 1 23 18
M  V30 25 1 15 7
M  V30 26 1 15 10
M  V30 27 1 3 24
M  V30 28 1 8 25
M  V30 29 1 9 26
M  V30 30 1 11 27
M  V30 31 1 12 28
M  V30 32 1 13 29
M  V30 33 1 14 30
M  V30 34 1 17 31
M  V30 35 1 19 32
M  V30 36 1 20 33
M  V30 37 1 21 34
M  V30 38 1 22 35
M  V30 39 1 23 36
M  V30 END BOND
M  V30 END CTAB
M  END
>  <Dataset>  (218) 
ChEMBL_Kinases

>  <Ligand_Instance>  (218) 
nan

>  <PDB_ID>  (218) 
nan

>  <Standardized_SMILES>  (218) 
O=C1NC(=O)C(c2c[nH]c3ccccc23)=C1Nc1ccccc1

>  <Name>  (218) 
nan

>  <Pocket>  (218) 
nan

>  <ATP_Site>  (218) 
nan

>  <Peripheral>  (218) 
nan

>  <Num_H_Atoms_ProtBoundConf>  (218) 
nan

>  <Num_Resolved_Atoms>  (218) 
nan

>  <Num_Not_Resolved_Atoms>  (218) 
nan

$$$$
CHEMBL4763075
     RDKit          3D

  0  0  0  0  0  0  0  0  0  0999 V3000
M  V30 BEGIN CTAB
M  V30 COUNTS 48 53 0 0 0
M  V30 BEGIN ATOM
M  V30 1 N 3.886415 -6.088191 3.125318 0
M  V30 2 C 3.266444 -4.861063 2.718486 0
M  V30 3 C 3.969355 -3.706521 2.979478 0
M  V30 4 N 3.377498 -2.560277 2.593080 0
M  V30 5 C 2.176909 -2.506874 1.987973 0
M  V30 6 C 1.447451 -3.643125 1.712254 0
M  V30 7 C 0.143672 -3.684011 1.062890 0
M  V30 8 C -0.526797 -2.558627 0.638731 0
M  V30 9 C -1.757651 -2.566219 0.023221 0
M  V30 10 C -2.551199 -1.554656 -0.453592 0
M  V30 11 C -2.377770 -0.121048 -0.479576 0
M  V30 12 C -1.457483 0.786533 -0.090288 0
M  V30 13 C -1.821171 2.082386 -0.374264 0
M  V30 14 C -1.178251 3.294353 -0.147751 0
M  V30 15 C 0.141249 3.304858 0.511933 0
M  V30 16 C 0.391336 3.388527 1.872212 0
M  V30 17 C 1.681912 3.385697 2.319206 0
M  V30 18 C 2.760925 3.300288 1.437034 0
M  V30 19 C 2.506462 3.217147 0.083069 0
M  V30 20 C 1.198726 3.218178 -0.397645 0
M  V30 21 F 1.060116 3.133075 -1.737329 0
M  V30 22 C -1.777766 4.459193 -0.539458 0
M  V30 23 C -3.008817 4.316438 -1.144462 0
M  V30 24 N -3.625220 3.126736 -1.359454 0
M  V30 25 C -3.045616 1.967417 -0.978146 0
M  V30 26 N -3.340499 0.668636 -1.023605 0
M  V30 27 N -3.614147 -2.219856 -0.933310 0
M  V30 28 N -3.494516 -3.522774 -0.770903 0
M  V30 29 C -2.329488 -3.810615 -0.165094 0
M  V30 30 C -1.676235 -4.949568 0.251518 0
M  V30 31 N -0.473864 -4.880838 0.847957 0
M  V30 32 C 2.032287 -4.830302 2.098359 0
M  V30 33 H 3.753588 -6.122595 4.170331 0
M  V30 34 H 4.383556 -6.841887 2.574548 0
M  V30 35 H 4.937971 -3.617867 3.457310 0
M  V30 36 H 1.767148 -1.567036 1.708955 0
M  V30 37 H -0.040738 -1.639518 0.809703 0
M  V30 38 H -0.537045 0.536970 0.390091 0
M  V30 39 H -0.489371 3.451314 2.487454 0
M  V30 40 H 1.843675 3.453475 3.405638 0
M  V30 41 H 3.774849 3.300129 1.819352 0
M  V30 42 H 3.359671 3.151829 -0.581051 0
M  V30 43 H -1.321315 5.426204 -0.387026 0
M  V30 44 H -3.562226 5.189471 -1.490142 0
M  V30 45 H -4.269735 0.426253 -1.469701 0
M  V30 46 H -4.207796 -4.220485 -1.073031 0
M  V30 47 H -2.153101 -5.904210 0.087935 0
M  V30 48 H 1.520623 -5.774159 1.916517 0
M  V30 END ATOM
M  V30 BEGIN BOND
M  V30 1 1 1 2
M  V30 2 2 2 3
M  V30 3 1 3 4
M  V30 4 2 4 5
M  V30 5 1 5 6
M  V30 6 1 6 7
M  V30 7 2 7 8
M  V30 8 1 8 9
M  V30 9 1 9 10
M  V30 10 1 10 11
M  V30 11 2 11 12
M  V30 12 1 12 13
M  V30 13 2 13 14
M  V30 14 1 14 15
M  V30 15 2 15 16
M  V30 16 1 16 17
M  V30 17 2 17 18
M  V30 18 1 18 19
M  V30 19 2 19 20
M  V30 20 1 20 21
M  V30 21 1 14 22
M  V30 22 2 22 23
M  V30 23 1 23 24
M  V30 24 2 24 25
M  V30 25 1 25 26
M  V30 26 2 10 27
M  V30 27 1 27 28
M  V30 28 1 28 29
M  V30 29 1 29 30
M  V30 30 2 30 31
M  V30 31 2 6 32
M  V30 32 1 32 2
M  V30 33 1 31 7
M  V30 34 2 29 9
M  V30 35 1 26 11
M  V30 36 1 25 13
M  V30 37 1 20 15
M  V30 38 1 1 33
M  V30 39 1 1 34
M  V30 40 1 3 35
M  V30 41 1 5 36
M  V30 42 1 8 37
M  V30 43 1 12 38
M  V30 44 1 16 39
M  V30 45 1 17 40
M  V30 46 1 18 41
M  V30 47 1 19 42
M  V30 48 1 22 43
M  V30 49 1 23 44
M  V30 50 1 26 45
M  V30 51 1 28 46
M  V30 52 1 30 47
M  V30 53 1 32 48
M  V30 END BOND
M  V30 END CTAB
M  END
>  <Dataset>  (219) 
ChEMBL_Kinases

>  <Ligand_Instance>  (219) 
nan

>  <PDB_ID>  (219) 
nan

>  <Standardized_SMILES>  (219) 
Nc1cncc(-c2cc3c(-c4cc5c(-c6ccccc6F)ccnc5[nH]4)n[nH]c3cn2)c1

>  <Name>  (219) 
nan

>  <Pocket>  (219) 
nan

>  <ATP_Site>  (219) 
nan

>  <Peripheral>  (219) 
nan

>  <Num_H_Atoms_ProtBoundConf>  (219) 
nan

>  <Num_Resolved_Atoms>  (219) 
nan

>  <Num_Not_Resolved_Atoms>  (219) 
nan

$$$$
CHEMBL5083930
     RDKit          3D

  0  0  0  0  0  0  0  0  0  0999 V3000
M  V30 BEGIN CTAB
M  V30 COUNTS 34 37 0 0 0
M  V30 BEGIN ATOM
M  V30 1 C -2.619859 -2.953867 0.052540 0
M  V30 2 N -1.271447 -2.745974 -0.011080 0
M  V30 3 C -0.830336 -1.468978 0.186727 0
M  V30 4 N 0.588670 -1.410755 0.134049 0
M  V30 5 C 1.353791 -1.145217 1.368618 0
M  V30 6 C 2.175800 -2.414873 1.664561 0
M  V30 7 O 2.983067 -2.678709 0.556346 0
M  V30 8 C 2.280363 -2.873245 -0.611426 0
M  V30 9 C 1.556779 -1.571219 -0.939260 0
M  V30 10 C -1.766828 -0.493960 0.431861 0
M  V30 11 C -1.464879 0.831173 0.643326 0
M  V30 12 C -0.229834 1.601194 0.650559 0
M  V30 13 C 0.042583 2.442104 1.738944 0
M  V30 14 C 1.229157 3.073743 1.524893 0
M  V30 15 O 1.686230 2.662074 0.371715 0
M  V30 16 C 0.865091 1.798720 -0.176993 0
M  V30 17 C -2.717231 1.428486 0.845315 0
M  V30 18 N -3.656104 0.468211 0.745630 0
M  V30 19 C -3.118585 -0.745512 0.488390 0
M  V30 20 N -3.552549 -1.993042 0.296189 0
M  V30 21 H -3.044917 -3.947274 -0.095105 0
M  V30 22 H 0.688602 -0.961755 2.226366 0
M  V30 23 H 2.110623 -0.361115 1.228829 0
M  V30 24 H 2.840006 -2.230464 2.519030 0
M  V30 25 H 1.538695 -3.287200 1.838830 0
M  V30 26 H 2.995137 -3.075949 -1.408002 0
M  V30 27 H 1.571442 -3.721764 -0.536468 0
M  V30 28 H 2.302941 -0.779410 -0.971299 0
M  V30 29 H 1.026824 -1.705800 -1.925702 0
M  V30 30 H -0.559022 2.610372 2.646005 0
M  V30 31 H 1.704315 3.786630 2.191099 0
M  V30 32 H 0.876908 1.234903 -1.111477 0
M  V30 33 H -2.893534 2.478700 1.046042 0
M  V30 34 H -4.693508 0.606286 0.849190 0
M  V30 END ATOM
M  V30 BEGIN BOND
M  V30 1 2 1 2
M  V30 2 1 2 3
M  V30 3 1 3 4
M  V30 4 1 4 5
M  V30 5 1 5 6
M  V30 6 1 6 7
M  V30 7 1 7 8
M  V30 8 1 8 9
M  V30 9 2 3 10
M  V30 10 1 10 11
M  V30 11 1 11 12
M  V30 12 1 12 13
M  V30 13 2 13 14
M  V30 14 1 14 15
M  V30 15 1 15 16
M  V30 16 2 11 17
M  V30 17 1 17 18
M  V30 18 1 18 19
M  V30 19 2 19 20
M  V30 20 1 20 1
M  V30 21 1 9 4
M  V30 22 1 19 10
M  V30 23 2 16 12
M  V30 24 1 1 21
M  V30 25 1 5 22
M  V30 26 1 5 23
M  V30 27 1 6 24
M  V30 28 1 6 25
M  V30 29 1 8 26
M  V30 30 1 8 27
M  V30 31 1 9 28
M  V30 32 1 9 29
M  V30 33 1 13 30
M  V30 34 1 14 31
M  V30 35 1 16 32
M  V30 36 1 17 33
M  V30 37 1 18 34
M  V30 END BOND
M  V30 END CTAB
M  END
>  <Dataset>  (220) 
ChEMBL_Kinases

>  <Ligand_Instance>  (220) 
nan

>  <PDB_ID>  (220) 
nan

>  <Standardized_SMILES>  (220) 
c1nc(N2CCOCC2)c2c(-c3ccoc3)c[nH]c2n1

>  <Name>  (220) 
nan

>  <Pocket>  (220) 
nan

>  <ATP_Site>  (220) 
nan

>  <Peripheral>  (220) 
nan

>  <Num_H_Atoms_ProtBoundConf>  (220) 
nan

>  <Num_Resolved_Atoms>  (220) 
nan

>  <Num_Not_Resolved_Atoms>  (220) 
nan

$$$$
CHEMBL4763087
     RDKit          3D

  0  0  0  0  0  0  0  0  0  0999 V3000
M  V30 BEGIN CTAB
M  V30 COUNTS 42 45 0 0 0
M  V30 BEGIN ATOM
M  V30 1 N 1.432412 -5.566944 -1.998255 0
M  V30 2 C 0.937791 -4.236154 -1.929234 0
M  V30 3 O 1.756320 -4.192037 -2.854502 0
M  V30 4 C -0.057940 -3.878529 -0.951392 0
M  V30 5 C -0.562922 -4.884676 -0.166735 0
M  V30 6 C -1.566120 -4.565233 0.713557 0
M  V30 7 C -1.989338 -3.254110 0.740171 0
M  V30 8 C -1.467019 -2.279328 -0.050251 0
M  V30 9 C -0.439628 -2.565885 -0.960882 0
M  V30 10 C 0.061004 -1.382418 -1.682853 0
M  V30 11 N 1.164949 -0.804634 -0.955113 0
M  V30 12 C 0.730210 0.062124 -0.012565 0
M  V30 13 C 1.515746 0.775350 0.866359 0
M  V30 14 C 1.036213 1.708910 1.881544 0
M  V30 15 C 1.700550 1.912573 3.090026 0
M  V30 16 C 1.235425 2.799109 4.042562 0
M  V30 17 C 0.080082 3.488537 3.764837 0
M  V30 18 C -0.590678 4.411234 4.517252 0
M  V30 19 N -1.667640 4.791075 3.799076 0
M  V30 20 N -1.660052 4.128479 2.650368 0
M  V30 21 C -0.596200 3.306834 2.579248 0
M  V30 22 C -0.130583 2.411068 1.611257 0
M  V30 23 C 2.885787 0.625262 0.819896 0
M  V30 24 C 3.354272 -0.251635 -0.131953 0
M  V30 25 C 2.492804 -0.911088 -0.957342 0
M  V30 26 O 2.935386 -1.698491 -1.815588 0
M  V30 27 H 1.884108 -6.123649 -1.212213 0
M  V30 28 H 1.881299 -6.143261 -1.246897 0
M  V30 29 H -0.172949 -5.885890 -0.252141 0
M  V30 30 H -1.955193 -5.367547 1.326345 0
M  V30 31 H -2.792033 -3.131298 1.480727 0
M  V30 32 H -1.977566 -1.338930 0.160570 0
M  V30 33 H 0.444957 -1.674535 -2.698622 0
M  V30 34 H -0.767432 -0.634717 -1.815881 0
M  V30 35 H -0.316389 0.324241 0.180365 0
M  V30 36 H 2.604754 1.343386 3.256444 0
M  V30 37 H 1.770940 2.943585 4.982862 0
M  V30 38 H -0.295766 4.764601 5.514084 0
M  V30 39 H -2.371673 4.212963 1.884816 0
M  V30 40 H -0.723397 2.331128 0.710158 0
M  V30 41 H 3.653436 1.089284 1.415142 0
M  V30 42 H 4.406964 -0.451301 -0.263533 0
M  V30 END ATOM
M  V30 BEGIN BOND
M  V30 1 1 1 2
M  V30 2 2 2 3
M  V30 3 1 2 4
M  V30 4 2 4 5
M  V30 5 1 5 6
M  V30 6 2 6 7
M  V30 7 1 7 8
M  V30 8 2 8 9
M  V30 9 1 9 10
M  V30 10 1 10 11
M  V30 11 1 11 12
M  V30 12 2 12 13
M  V30 13 1 13 14
M  V30 14 2 14 15
M  V30 15 1 15 16
M  V30 16 2 16 17
M  V30 17 1 17 18
M  V30 18 2 18 19
M  V30 19 1 19 20
M  V30 20 1 20 21
M  V30 21 2 21 22
M  V30 22 1 13 23
M  V30 23 2 23 24
M  V30 24 1 24 25
M  V30 25 2 25 26
M  V30 26 1 9 4
M  V30 27 1 25 11
M  V30 28 1 22 14
M  V30 29 1 21 17
M  V30 30 1 1 27
M  V30 31 1 1 28
M  V30 32 1 5 29
M  V30 33 1 6 30
M  V30 34 1 7 31
M  V30 35 1 8 32
M  V30 36 1 10 33
M  V30 37 1 10 34
M  V30 38 1 12 35
M  V30 39 1 15 36
M  V30 40 1 16 37
M  V30 41 1 18 38
M  V30 42 1 20 39
M  V30 43 1 22 40
M  V30 44 1 23 41
M  V30 45 1 24 42
M  V30 END BOND
M  V30 END CTAB
M  END
>  <Dataset>  (221) 
ChEMBL_Kinases

>  <Ligand_Instance>  (221) 
nan

>  <PDB_ID>  (221) 
nan

>  <Standardized_SMILES>  (221) 
NC(=O)c1ccccc1Cn1cc(-c2ccc3cn[nH]c3c2)ccc1=O

>  <Name>  (221) 
nan

>  <Pocket>  (221) 
nan

>  <ATP_Site>  (221) 
nan

>  <Peripheral>  (221) 
nan

>  <Num_H_Atoms_ProtBoundConf>  (221) 
nan

>  <Num_Resolved_Atoms>  (221) 
nan

>  <Num_Not_Resolved_Atoms>  (221) 
nan

$$$$
CHEMBL4763099
     RDKit          3D

  0  0  0  0  0  0  0  0  0  0999 V3000
M  V30 BEGIN CTAB
M  V30 COUNTS 51 54 0 0 0
M  V30 BEGIN ATOM
M  V30 1 C 0.083588 -5.642535 1.276162 0
M  V30 2 N -0.212182 -5.990141 -0.085766 0
M  V30 3 C -1.036666 -4.980334 -0.732921 0
M  V30 4 C -0.293494 -4.301799 -1.848960 0
M  V30 5 N 1.058783 -3.924642 -1.454282 0
M  V30 6 C 1.092314 -2.763989 -0.644199 0
M  V30 7 C 2.469580 -2.326425 -0.257024 0
M  V30 8 C 2.382931 -1.059691 0.588345 0
M  V30 9 N 1.752582 0.023893 -0.140872 0
M  V30 10 C 1.487987 1.338379 0.327602 0
M  V30 11 N 2.278789 2.442135 0.301348 0
M  V30 12 C 1.835347 3.613420 0.802306 0
M  V30 13 C 0.572803 3.717030 1.350977 0
M  V30 14 C 0.081679 4.895901 1.873323 0
M  V30 15 C -1.189641 4.966447 2.416131 0
M  V30 16 C -1.694522 6.139542 2.942017 0
M  V30 17 N -2.931305 6.197290 3.466219 0
M  V30 18 C -3.708423 5.084454 3.483636 0
M  V30 19 C -3.280325 3.857348 2.974785 0
M  V30 20 C -2.007999 3.854498 2.451052 0
M  V30 21 C -1.506334 2.677455 1.924982 0
M  V30 22 N -2.257208 1.480148 1.908556 0
M  V30 23 C -0.242971 2.584675 1.379718 0
M  V30 24 N 0.259924 1.450109 0.864138 0
M  V30 25 C 1.843758 -5.040027 -1.061996 0
M  V30 26 C 0.968955 -6.266730 -0.869815 0
M  V30 27 H 0.042198 -6.462513 1.997529 0
M  V30 28 H 1.109806 -5.196979 1.264619 0
M  V30 29 H -0.604636 -4.812337 1.585470 0
M  V30 30 H -1.297449 -4.224203 0.026813 0
M  V30 31 H -1.971330 -5.401275 -1.142799 0
M  V30 32 H -0.808873 -3.383024 -2.142883 0
M  V30 33 H -0.237801 -4.977699 -2.706801 0
M  V30 34 H 0.563850 -1.929307 -1.179852 0
M  V30 35 H 0.445906 -2.935215 0.266082 0
M  V30 36 H 3.148874 -2.200248 -1.110650 0
M  V30 37 H 2.931050 -3.089853 0.402547 0
M  V30 38 H 3.360731 -0.770946 1.016783 0
M  V30 39 H 1.745931 -1.340703 1.453369 0
M  V30 40 H 1.410524 -0.051843 -1.130077 0
M  V30 41 H 2.489020 4.461216 0.763117 0
M  V30 42 H 0.720720 5.787592 1.852103 0
M  V30 43 H -1.070669 7.031695 2.927315 0
M  V30 44 H -4.726291 5.098732 3.905392 0
M  V30 45 H -3.923427 2.979503 3.000756 0
M  V30 46 H -3.047268 1.014539 1.456041 0
M  V30 47 H -3.076643 1.107889 1.378231 0
M  V30 48 H 2.546015 -4.900632 -0.231236 0
M  V30 49 H 2.496786 -5.294606 -1.950251 0
M  V30 50 H 0.651402 -6.606618 -1.867269 0
M  V30 51 H 1.541329 -7.056280 -0.345154 0
M  V30 END ATOM
M  V30 BEGIN BOND
M  V30 1 1 1 2
M  V30 2 1 2 3
M  V30 3 1 3 4
M  V30 4 1 4 5
M  V30 5 1 5 6
M  V30 6 1 6 7
M  V30 7 1 7 8
M  V30 8 1 8 9
M  V30 9 1 9 10
M  V30 10 2 10 11
M  V30 11 1 11 12
M  V30 12 2 12 13
M  V30 13 1 13 14
M  V30 14 2 14 15
M  V30 15 1 15 16
M  V30 16 2 16 17
M  V30 17 1 17 18
M  V30 18 2 18 19
M  V30 19 1 19 20
M  V30 20 2 20 21
M  V30 21 1 21 22
M  V30 22 1 21 23
M  V30 23 2 23 24
M  V30 24 1 5 25
M  V30 25 1 25 26
M  V30 26 1 26 2
M  V30 27 1 24 10
M  V30 28 1 23 13
M  V30 29 1 20 15
M  V30 30 1 1 27
M  V30 31 1 1 28
M  V30 32 1 1 29
M  V30 33 1 3 30
M  V30 34 1 3 31
M  V30 35 1 4 32
M  V30 36 1 4 33
M  V30 37 1 6 34
M  V30 38 1 6 35
M  V30 39 1 7 36
M  V30 40 1 7 37
M  V30 41 1 8 38
M  V30 42 1 8 39
M  V30 43 1 9 40
M  V30 44 1 12 41
M  V30 45 1 14 42
M  V30 46 1 16 43
M  V30 47 1 18 44
M  V30 48 1 19 45
M  V30 49 1 22 46
M  V30 50 1 22 47
M  V30 51 1 25 48
M  V30 52 1 25 49
M  V30 53 1 26 50
M  V30 54 1 26 51
M  V30 END BOND
M  V30 END CTAB
M  END
>  <Dataset>  (222) 
ChEMBL_Kinases

>  <Ligand_Instance>  (222) 
nan

>  <PDB_ID>  (222) 
nan

>  <Standardized_SMILES>  (222) 
CN1CCN(CCCNc2ncc3cc4cnccc4c(N)c3n2)CC1

>  <Name>  (222) 
nan

>  <Pocket>  (222) 
nan

>  <ATP_Site>  (222) 
nan

>  <Peripheral>  (222) 
nan

>  <Num_H_Atoms_ProtBoundConf>  (222) 
nan

>  <Num_Resolved_Atoms>  (222) 
nan

>  <Num_Not_Resolved_Atoms>  (222) 
nan

$$$$
CHEMBL4763198
     RDKit          3D

  0  0  0  0  0  0  0  0  0  0999 V3000
M  V30 BEGIN CTAB
M  V30 COUNTS 50 53 0 0 0
M  V30 BEGIN ATOM
M  V30 1 C 5.715509 -5.125537 0.862849 0
M  V30 2 O 5.490535 -4.577806 -0.423146 0
M  V30 3 C 4.799817 -3.384977 -0.591882 0
M  V30 4 C 4.632895 -2.933710 -1.893038 0
M  V30 5 C 3.938712 -1.738906 -2.031911 0
M  V30 6 C 3.435432 -1.025896 -0.947857 0
M  V30 7 C 3.634225 -1.527173 0.322237 0
M  V30 8 C 3.088175 -0.748672 1.459205 0 CFG=1
M  V30 9 C 3.940870 0.427665 1.821411 0
M  V30 10 N 1.732795 -0.297149 1.204916 0
M  V30 11 C 0.617266 -0.755213 1.958396 0
M  V30 12 O 0.870630 -1.584409 2.870233 0
M  V30 13 C -0.761409 -0.329751 1.738899 0
M  V30 14 C -1.711889 -0.886617 2.571908 0
M  V30 15 C -3.053094 -0.517087 2.410077 0
M  V30 16 C -3.374889 0.389649 1.424335 0
M  V30 17 C -2.404385 0.930667 0.605682 0
M  V30 18 C -1.075609 0.580036 0.748118 0
M  V30 19 C -2.717939 1.920318 -0.477876 0
M  V30 20 C -2.253200 1.337712 -1.803252 0
M  V30 21 O -4.074318 2.227330 -0.563306 0
M  V30 22 C -5.065847 1.713834 0.227585 0
M  V30 23 C -6.379291 2.077554 0.067281 0
M  V30 24 N -7.344910 1.565894 0.850897 0
M  V30 25 C -7.095059 0.676743 1.830195 0
M  V30 26 C -5.759132 0.293392 2.008760 0
M  V30 27 C -4.754637 0.805174 1.217290 0
M  V30 28 C 4.326045 -2.725653 0.520425 0
M  V30 29 H 6.555921 -4.626433 1.385774 0
M  V30 30 H 5.971257 -6.204434 0.777648 0
M  V30 31 H 4.810196 -5.066394 1.495316 0
M  V30 32 H 5.023163 -3.487037 -2.730353 0
M  V30 33 H 3.828474 -1.416623 -3.079064 0
M  V30 34 H 2.914158 -0.111823 -1.182453 0
M  V30 35 H 3.011277 -1.472413 2.313842 0
M  V30 36 H 3.341302 1.206092 2.331499 0
M  V30 37 H 4.485112 0.834329 0.947959 0
M  V30 38 H 4.748250 0.056696 2.515057 0
M  V30 39 H 1.576275 0.378387 0.452126 0
M  V30 40 H -1.461941 -1.609928 3.359592 0
M  V30 41 H -3.754393 -0.969540 3.072803 0
M  V30 42 H -0.328558 1.008936 0.103539 0
M  V30 43 H -2.126942 2.842175 -0.306259 0
M  V30 44 H -2.886425 1.779525 -2.616066 0
M  V30 45 H -1.184552 1.602859 -1.997623 0
M  V30 46 H -2.378611 0.230381 -1.722626 0
M  V30 47 H -6.572510 2.796848 -0.726698 0
M  V30 48 H -7.891918 0.275253 2.452837 0
M  V30 49 H -5.619810 -0.418815 2.805198 0
M  V30 50 H 4.444497 -3.056892 1.528787 0
M  V30 END ATOM
M  V30 BEGIN BOND
M  V30 1 1 1 2
M  V30 2 1 2 3
M  V30 3 2 3 4
M  V30 4 1 4 5
M  V30 5 2 5 6
M  V30 6 1 6 7
M  V30 7 1 7 8
M  V30 8 1 8 9
M  V30 9 1 8 10
M  V30 10 1 10 11
M  V30 11 2 11 12
M  V30 12 1 11 13
M  V30 13 2 13 14
M  V30 14 1 14 15
M  V30 15 2 15 16
M  V30 16 1 16 17
M  V30 17 2 17 18
M  V30 18 1 17 19
M  V30 19 1 19 20
M  V30 20 1 19 21
M  V30 21 1 21 22
M  V30 22 2 22 23
M  V30 23 1 23 24
M  V30 24 2 24 25
M  V30 25 1 25 26
M  V30 26 2 26 27
M  V30 27 2 7 28
M  V30 28 1 28 3
M  V30 29 1 18 13
M  V30 30 1 27 22
M  V30 31 1 27 16
M  V30 32 1 1 29
M  V30 33 1 1 30
M  V30 34 1 1 31
M  V30 35 1 4 32
M  V30 36 1 5 33
M  V30 37 1 6 34
M  V30 38 1 8 35 CFG=1
M  V30 39 1 9 36
M  V30 40 1 9 37
M  V30 41 1 9 38
M  V30 42 1 10 39
M  V30 43 1 14 40
M  V30 44 1 15 41
M  V30 45 1 18 42
M  V30 46 1 19 43
M  V30 47 1 20 44
M  V30 48 1 20 45
M  V30 49 1 20 46
M  V30 50 1 23 47
M  V30 51 1 25 48
M  V30 52 1 26 49
M  V30 53 1 28 50
M  V30 END BOND
M  V30 END CTAB
M  END
>  <Dataset>  (223) 
ChEMBL_Kinases

>  <Ligand_Instance>  (223) 
nan

>  <PDB_ID>  (223) 
nan

>  <Standardized_SMILES>  (223) 
COc1cccc([C@@H](C)NC(=O)c2ccc3c(c2)C(C)Oc2cnccc2-3)c1

>  <Name>  (223) 
nan

>  <Pocket>  (223) 
nan

>  <ATP_Site>  (223) 
nan

>  <Peripheral>  (223) 
nan

>  <Num_H_Atoms_ProtBoundConf>  (223) 
nan

>  <Num_Resolved_Atoms>  (223) 
nan

>  <Num_Not_Resolved_Atoms>  (223) 
nan

$$$$
CHEMBL4763383
     RDKit          3D

  0  0  0  0  0  0  0  0  0  0999 V3000
M  V30 BEGIN CTAB
M  V30 COUNTS 82 86 0 0 0
M  V30 BEGIN ATOM
M  V30 1 C -1.932106 0.534672 1.188395 0
M  V30 2 C -0.678674 -0.098750 0.679771 0 CFG=1
M  V30 3 C 0.383336 -0.233899 1.754290 0 CFG=2
M  V30 4 C 1.548065 -1.082915 1.281851 0
M  V30 5 C 1.188726 -2.149564 0.316631 0 CFG=2
M  V30 6 O 0.551218 -3.202517 0.965709 0
M  V30 7 C 1.385788 -4.062624 1.623615 0 CFG=2
M  V30 8 C 2.116587 -4.931909 0.619975 0
M  V30 9 C 2.335184 -4.182369 -0.648745 0
M  V30 10 C 2.373327 -2.666115 -0.465232 0
M  V30 11 C 2.388759 -2.124665 -1.903985 0
M  V30 12 C 3.712537 -2.290663 0.087133 0
M  V30 13 C 0.583186 -4.987968 2.504825 0
M  V30 14 C -0.689964 -4.351997 2.971775 0
M  V30 15 O -1.555765 -4.561665 2.047023 0
M  V30 16 O -0.709377 -3.717136 4.180267 0
M  V30 17 C -1.842224 -3.045280 4.759843 0 CFG=1
M  V30 18 C -2.165192 -3.533926 6.138677 0
M  V30 19 O -1.114607 -3.353445 7.033284 0
M  V30 20 C -1.413969 -1.547288 4.925141 0
M  V30 21 C -1.040833 -1.200749 3.504935 0
M  V30 22 O -2.001863 -1.760071 3.006149 0
M  V30 23 O 0.002721 -0.524779 3.043463 0
M  V30 24 O 0.292693 -1.695972 -0.676249 0
M  V30 25 C -0.933760 -1.318358 -0.079370 0 CFG=2
M  V30 26 C -1.921188 -1.268923 -1.156730 0
M  V30 27 C -1.729681 -0.365731 -2.299661 0
M  V30 28 C -1.759236 1.088893 -2.214282 0
M  V30 29 C -1.508298 1.610816 -3.674030 0
M  V30 30 C -1.489664 3.079419 -3.668870 0
M  V30 31 C -2.533072 3.911321 -4.066890 0
M  V30 32 C -2.386120 5.267920 -3.991011 0
M  V30 33 C -1.231869 5.854840 -3.530981 0
M  V30 34 C -0.175330 5.049191 -3.128133 0
M  V30 35 C 0.975060 5.682124 -2.673868 0
M  V30 36 C 2.047746 4.904316 -2.270347 0
M  V30 37 O 3.236053 5.463550 -1.801030 0
M  V30 38 C 1.946204 3.526509 -2.330467 0
M  V30 39 C 0.777954 2.967128 -2.790405 0
M  V30 40 C -0.329847 3.683836 -3.207288 0
M  V30 41 H -2.852352 -0.064454 1.081059 0
M  V30 42 H -1.768257 0.876217 2.235001 0
M  V30 43 H -2.179902 1.493024 0.645169 0
M  V30 44 H -0.227888 0.633737 -0.077866 0
M  V30 45 H 0.822241 0.802205 1.853530 0
M  V30 46 H 2.344808 -0.468343 0.818469 0
M  V30 47 H 1.985034 -1.530163 2.197725 0
M  V30 48 H 2.121987 -3.562123 2.284713 0
M  V30 49 H 1.439973 -5.798219 0.364443 0
M  V30 50 H 3.023637 -5.385782 1.036619 0
M  V30 51 H 1.646760 -4.458021 -1.474000 0
M  V30 52 H 3.359104 -4.420001 -1.061418 0
M  V30 53 H 1.409079 -2.432563 -2.330189 0
M  V30 54 H 3.208513 -2.630088 -2.441606 0
M  V30 55 H 2.459455 -1.010723 -1.918653 0
M  V30 56 H 3.845008 -2.352994 1.158736 0
M  V30 57 H 4.453546 -2.986783 -0.383034 0
M  V30 58 H 4.015493 -1.284423 -0.331404 0
M  V30 59 H 1.190419 -5.155922 3.444416 0
M  V30 60 H 0.379103 -5.963844 2.008278 0
M  V30 61 H -2.695364 -3.129839 4.099537 0
M  V30 62 H -2.536795 -4.579676 6.145947 0
M  V30 63 H -3.022996 -2.927142 6.521077 0
M  V30 64 H -1.022632 -2.406983 7.338101 0
M  V30 65 H -2.300962 -0.997289 5.264637 0
M  V30 66 H -0.569128 -1.446698 5.603101 0
M  V30 67 H -1.257478 -2.197727 0.570324 0
M  V30 68 H -2.128853 -2.329124 -1.556303 0
M  V30 69 H -2.923323 -0.957738 -0.681945 0
M  V30 70 H -2.512028 -0.653695 -3.107394 0
M  V30 71 H -0.757760 -0.629679 -2.850877 0
M  V30 72 H -1.194178 1.678813 -1.536002 0
M  V30 73 H -2.855922 1.375642 -1.985965 0
M  V30 74 H -2.414063 1.287652 -4.228788 0
M  V30 75 H -0.653785 1.112521 -4.124319 0
M  V30 76 H -3.411645 3.397574 -4.421212 0
M  V30 77 H -3.196520 5.911190 -4.300924 0
M  V30 78 H -1.167916 6.926092 -3.488907 0
M  V30 79 H 1.053927 6.752672 -2.626273 0
M  V30 80 H 3.313278 6.065756 -0.996921 0
M  V30 81 H 2.792252 2.921398 -2.014064 0
M  V30 82 H 0.777244 1.901122 -2.814277 0
M  V30 END ATOM
M  V30 BEGIN BOND
M  V30 1 1 1 2
M  V30 2 1 2 3
M  V30 3 1 3 4
M  V30 4 1 4 5
M  V30 5 1 5 6
M  V30 6 1 6 7
M  V30 7 1 7 8
M  V30 8 1 8 9
M  V30 9 1 9 10
M  V30 10 1 10 11
M  V30 11 1 10 12
M  V30 12 1 7 13
M  V30 13 1 13 14
M  V30 14 2 14 15
M  V30 15 1 14 16
M  V30 16 1 16 17
M  V30 17 1 17 18
M  V30 18 1 18 19
M  V30 19 1 17 20
M  V30 20 1 20 21
M  V30 21 2 21 22
M  V30 22 1 21 23
M  V30 23 1 5 24 CFG=3
M  V30 24 1 24 25
M  V30 25 1 25 26
M  V30 26 1 26 27
M  V30 27 1 27 28
M  V30 28 1 28 29
M  V30 29 1 29 30
M  V30 30 2 30 31
M  V30 31 1 31 32
M  V30 32 2 32 33
M  V30 33 1 33 34
M  V30 34 2 34 35
M  V30 35 1 35 36
M  V30 36 1 36 37
M  V30 37 2 36 38
M  V30 38 1 38 39
M  V30 39 2 39 40
M  V30 40 1 25 2
M  V30 41 1 40 30
M  V30 42 1 23 3
M  V30 43 1 40 34
M  V30 44 1 10 5
M  V30 45 1 1 41
M  V30 46 1 1 42
M  V30 47 1 1 43
M  V30 48 1 2 44 CFG=3
M  V30 49 1 3 45 CFG=1
M  V30 50 1 4 46
M  V30 51 1 4 47
M  V30 52 1 7 48 CFG=1
M  V30 53 1 8 49
M  V30 54 1 8 50
M  V30 55 1 9 51
M  V30 56 1 9 52
M  V30 57 1 11 53
M  V30 58 1 11 54
M  V30 59 1 11 55
M  V30 60 1 12 56
M  V30 61 1 12 57
M  V30 62 1 12 58
M  V30 63 1 13 59
M  V30 64 1 13 60
M  V30 65 1 17 61 CFG=3
M  V30 66 1 18 62
M  V30 67 1 18 63
M  V30 68 1 19 64
M  V30 69 1 20 65
M  V30 70 1 20 66
M  V30 71 1 25 67 CFG=1
M  V30 72 1 26 68
M  V30 73 1 26 69
M  V30 74 1 27 70
M  V30 75 1 27 71
M  V30 76 1 28 72
M  V30 77 1 28 73
M  V30 78 1 29 74
M  V30 79 1 29 75
M  V30 80 1 31 76
M  V30 81 1 32 77
M  V30 82 1 33 78
M  V30 83 1 35 79
M  V30 84 1 37 80
M  V30 85 1 38 81
M  V30 86 1 39 82
M  V30 END BOND
M  V30 END CTAB
M  END
>  <Dataset>  (224) 
ChEMBL_Kinases

>  <Ligand_Instance>  (224) 
nan

>  <PDB_ID>  (224) 
nan

>  <Standardized_SMILES>  (224) 
C[C@H]1[C@@H]2C[C@@]3(O[C@H](CCC3(C)C)CC(=O)O[C@@H](CO)CC(=O)O2)O[C@@H]1CCCCc1cccc2cc(O)ccc12

>  <Name>  (224) 
nan

>  <Pocket>  (224) 
nan

>  <ATP_Site>  (224) 
nan

>  <Peripheral>  (224) 
nan

>  <Num_H_Atoms_ProtBoundConf>  (224) 
nan

>  <Num_Resolved_Atoms>  (224) 
nan

>  <Num_Not_Resolved_Atoms>  (224) 
nan

$$$$
CHEMBL4763562
     RDKit          3D

  0  0  0  0  0  0  0  0  0  0999 V3000
M  V30 BEGIN CTAB
M  V30 COUNTS 47 50 0 0 0
M  V30 BEGIN ATOM
M  V30 1 C 3.171397 -3.676838 -0.536854 0
M  V30 2 C 2.687292 -2.679350 0.524191 0
M  V30 3 C 1.765993 -1.732531 -0.094328 0
M  V30 4 N 3.828488 -2.198481 1.197502 0
M  V30 5 C 4.800285 -3.010910 1.655342 0
M  V30 6 N 5.730594 -2.276161 2.236458 0
M  V30 7 N 5.379603 -1.029741 2.161088 0
M  V30 8 C 4.198904 -0.969217 1.517349 0
M  V30 9 C 3.473627 0.262005 1.234729 0
M  V30 10 C 4.105164 1.104255 0.305528 0
M  V30 11 C 3.469093 2.290613 -0.006540 0
M  V30 12 C 2.251281 2.635972 0.577293 0
M  V30 13 C 1.665126 1.767681 1.492813 0
M  V30 14 N 0.406539 2.062852 2.134099 0
M  V30 15 C -0.684972 1.553315 1.358906 0
M  V30 16 O -0.591930 0.926287 0.258981 0
M  V30 17 N -2.037563 1.721017 1.788029 0
M  V30 18 C -3.167710 1.240161 1.066499 0
M  V30 19 N -3.713695 2.068249 0.161850 0
M  V30 20 C -4.786459 1.769468 -0.605720 0
M  V30 21 C -5.360022 0.514090 -0.441565 0
M  V30 22 C -4.842399 -0.377410 0.471900 0
M  V30 23 C -5.392021 -1.633513 0.657027 0
M  V30 24 C -4.804906 -2.468752 1.600827 0
M  V30 25 C -3.716677 -2.081318 2.335236 0
M  V30 26 C -3.163620 -0.830244 2.155709 0
M  V30 27 C -3.744257 -0.007016 1.223787 0
M  V30 28 N 2.295350 0.615765 1.787575 0
M  V30 29 H 2.317943 -4.275374 -0.921555 0
M  V30 30 H 3.958653 -4.342121 -0.126884 0
M  V30 31 H 3.634188 -3.141939 -1.397307 0
M  V30 32 H 2.119949 -3.322309 1.247621 0
M  V30 33 H 0.917978 -1.521728 0.621742 0
M  V30 34 H 1.225017 -2.293147 -0.916804 0
M  V30 35 H 2.168999 -0.855214 -0.590607 0
M  V30 36 H 4.952683 -4.096872 1.636715 0
M  V30 37 H 5.052404 0.881137 -0.176489 0
M  V30 38 H 3.897272 2.981896 -0.710259 0
M  V30 39 H 1.723207 3.558331 0.356601 0
M  V30 40 H 0.198951 2.569534 3.036381 0
M  V30 41 H -2.270487 2.216703 2.673779 0
M  V30 42 H -5.147903 2.515134 -1.308129 0
M  V30 43 H -6.207627 0.271637 -1.044700 0
M  V30 44 H -6.246051 -1.895101 0.058427 0
M  V30 45 H -5.302694 -3.435635 1.678952 0
M  V30 46 H -3.310639 -2.779399 3.051115 0
M  V30 47 H -2.314263 -0.540050 2.735286 0
M  V30 END ATOM
M  V30 BEGIN BOND
M  V30 1 1 1 2
M  V30 2 1 2 3
M  V30 3 1 2 4
M  V30 4 1 4 5
M  V30 5 2 5 6
M  V30 6 1 6 7
M  V30 7 2 7 8
M  V30 8 1 8 9
M  V30 9 2 9 10
M  V30 10 1 10 11
M  V30 11 2 11 12
M  V30 12 1 12 13
M  V30 13 1 13 14
M  V30 14 1 14 15
M  V30 15 2 15 16
M  V30 16 1 15 17
M  V30 17 1 17 18
M  V30 18 2 18 19
M  V30 19 1 19 20
M  V30 20 2 20 21
M  V30 21 1 21 22
M  V30 22 2 22 23
M  V30 23 1 23 24
M  V30 24 2 24 25
M  V30 25 1 25 26
M  V30 26 2 26 27
M  V30 27 2 13 28
M  V30 28 1 8 4
M  V30 29 1 28 9
M  V30 30 1 27 18
M  V30 31 1 27 22
M  V30 32 1 1 29
M  V30 33 1 1 30
M  V30 34 1 1 31
M  V30 35 1 2 32
M  V30 36 1 3 33
M  V30 37 1 3 34
M  V30 38 1 3 35
M  V30 39 1 5 36
M  V30 40 1 10 37
M  V30 41 1 11 38
M  V30 42 1 12 39
M  V30 43 1 14 40
M  V30 44 1 17 41
M  V30 45 1 20 42
M  V30 46 1 21 43
M  V30 47 1 23 44
M  V30 48 1 24 45
M  V30 49 1 25 46
M  V30 50 1 26 47
M  V30 END BOND
M  V30 END CTAB
M  END
>  <Dataset>  (225) 
ChEMBL_Kinases

>  <Ligand_Instance>  (225) 
nan

>  <PDB_ID>  (225) 
nan

>  <Standardized_SMILES>  (225) 
CC(C)n1cnnc1-c1cccc(NC(=O)Nc2nccc3ccccc23)n1

>  <Name>  (225) 
nan

>  <Pocket>  (225) 
nan

>  <ATP_Site>  (225) 
nan

>  <Peripheral>  (225) 
nan

>  <Num_H_Atoms_ProtBoundConf>  (225) 
nan

>  <Num_Resolved_Atoms>  (225) 
nan

>  <Num_Not_Resolved_Atoms>  (225) 
nan

$$$$
CHEMBL1915427
     RDKit          3D

  0  0  0  0  0  0  0  0  0  0999 V3000
M  V30 BEGIN CTAB
M  V30 COUNTS 39 43 0 0 0
M  V30 BEGIN ATOM
M  V30 1 Cl 5.102963 -2.923464 4.748010 0
M  V30 2 C 3.527608 -2.308227 4.243364 0
M  V30 3 C 2.517902 -2.030906 5.170435 0
M  V30 4 C 1.278192 -1.553356 4.846455 0
M  V30 5 C 1.043104 -1.342728 3.504027 0
M  V30 6 C 2.009836 -1.602839 2.557859 0
M  V30 7 N 1.776540 -1.388952 1.196958 0
M  V30 8 C 0.684060 -0.947942 0.441116 0
M  V30 9 N 0.394766 0.343149 0.159266 0
M  V30 10 C -0.687843 0.692116 -0.590986 0
M  V30 11 C -0.908650 2.047050 -0.832338 0
M  V30 12 C -0.012407 3.056978 -0.293795 0
M  V30 13 N -0.178352 4.385506 -0.501762 0
M  V30 14 N 0.812783 4.977289 0.132028 0
M  V30 15 C 1.594755 4.044471 0.732108 0
M  V30 16 O 1.047714 2.880364 0.441931 0
M  V30 17 C -2.007727 2.378373 -1.594195 0
M  V30 18 C -2.843398 1.421233 -2.090225 0
M  V30 19 C -2.617626 0.082447 -1.846209 0
M  V30 20 C -1.530082 -0.278349 -1.090255 0
M  V30 21 C -1.278548 -1.584427 -0.832668 0
M  V30 22 C -2.104410 -2.567881 -1.320262 0
M  V30 23 N -1.847860 -3.866105 -1.059936 0
M  V30 24 C -0.784451 -4.216195 -0.322318 0
M  V30 25 C 0.051265 -3.252105 0.173198 0
M  V30 26 C -0.187136 -1.906242 -0.078376 0
M  V30 27 C 3.254103 -2.084438 2.907848 0
M  V30 28 H 2.792352 -2.225976 6.196893 0
M  V30 29 H 0.575444 -1.373932 5.640209 0
M  V30 30 H 0.058998 -0.960712 3.216093 0
M  V30 31 H 2.470986 -1.546094 0.439285 0
M  V30 32 H 2.487116 3.992827 1.344613 0
M  V30 33 H -2.212495 3.436144 -1.804702 0
M  V30 34 H -3.695587 1.767355 -2.687245 0
M  V30 35 H -3.343796 -0.574871 -2.289347 0
M  V30 36 H -2.974489 -2.429286 -1.913612 0
M  V30 37 H -0.599591 -5.279902 -0.126031 0
M  V30 38 H 0.878380 -3.601287 0.752709 0
M  V30 39 H 4.042544 -2.299892 2.175970 0
M  V30 END ATOM
M  V30 BEGIN BOND
M  V30 1 1 1 2
M  V30 2 2 2 3
M  V30 3 1 3 4
M  V30 4 2 4 5
M  V30 5 1 5 6
M  V30 6 1 6 7
M  V30 7 1 7 8
M  V30 8 2 8 9
M  V30 9 1 9 10
M  V30 10 2 10 11
M  V30 11 1 11 12
M  V30 12 2 12 13
M  V30 13 1 13 14
M  V30 14 2 14 15
M  V30 15 1 15 16
M  V30 16 1 11 17
M  V30 17 2 17 18
M  V30 18 1 18 19
M  V30 19 2 19 20
M  V30 20 1 20 21
M  V30 21 2 21 22
M  V30 22 1 22 23
M  V30 23 2 23 24
M  V30 24 1 24 25
M  V30 25 2 25 26
M  V30 26 2 6 27
M  V30 27 1 27 2
M  V30 28 1 26 8
M  V30 29 1 20 10
M  V30 30 1 26 21
M  V30 31 1 16 12
M  V30 32 1 3 28
M  V30 33 1 4 29
M  V30 34 1 5 30
M  V30 35 1 7 31
M  V30 36 1 15 32
M  V30 37 1 17 33
M  V30 38 1 18 34
M  V30 39 1 19 35
M  V30 40 1 22 36
M  V30 41 1 24 37
M  V30 42 1 25 38
M  V30 43 1 27 39
M  V30 END BOND
M  V30 END CTAB
M  END
>  <Dataset>  (226) 
ChEMBL_Kinases

>  <Ligand_Instance>  (226) 
nan

>  <PDB_ID>  (226) 
nan

>  <Standardized_SMILES>  (226) 
Clc1cccc(Nc2nc3c(-c4nnco4)cccc3c3cnccc23)c1

>  <Name>  (226) 
nan

>  <Pocket>  (226) 
nan

>  <ATP_Site>  (226) 
nan

>  <Peripheral>  (226) 
nan

>  <Num_H_Atoms_ProtBoundConf>  (226) 
nan

>  <Num_Resolved_Atoms>  (226) 
nan

>  <Num_Not_Resolved_Atoms>  (226) 
nan

$$$$
CHEMBL4763601
     RDKit          3D

  0  0  0  0  0  0  0  0  0  0999 V3000
M  V30 BEGIN CTAB
M  V30 COUNTS 47 52 0 0 0
M  V30 BEGIN ATOM
M  V30 1 N -0.983627 -5.650823 5.673868 0
M  V30 2 C -0.757013 -4.450599 4.927774 0
M  V30 3 C -0.588364 -3.280996 5.601958 0
M  V30 4 N -0.375005 -2.159513 4.861749 0
M  V30 5 C -0.339540 -2.247142 3.519790 0
M  V30 6 C -0.503226 -3.394650 2.810633 0
M  V30 7 C -0.466674 -3.499569 1.362984 0
M  V30 8 C -0.257606 -2.425707 0.527302 0
M  V30 9 C -0.220676 -2.511758 -0.845558 0
M  V30 10 C -0.027396 -1.563009 -1.813709 0
M  V30 11 C 0.204181 -0.152686 -1.757637 0
M  V30 12 C 0.327074 0.806320 -0.790710 0
M  V30 13 C 0.554014 2.059190 -1.313493 0
M  V30 14 C 0.736600 3.286935 -0.715549 0
M  V30 15 C 0.702817 3.449254 0.733584 0
M  V30 16 C 1.785096 4.224154 1.168018 0
M  V30 17 C 1.975598 4.524584 2.502190 0
M  V30 18 N 1.082873 4.047669 3.388079 0
M  V30 19 C 0.033563 3.301433 3.005040 0
M  V30 20 C -0.181363 2.986304 1.681694 0
M  V30 21 C 0.953543 4.399994 -1.535882 0
M  V30 22 N 0.971195 4.208113 -2.858752 0
M  V30 23 C 0.791669 3.005203 -3.432677 0
M  V30 24 C 0.574604 1.878253 -2.667598 0
M  V30 25 N 0.366172 0.569514 -2.893758 0
M  V30 26 N -0.106064 -2.291168 -2.939573 0
M  V30 27 N -0.326120 -3.565285 -2.699111 0
M  V30 28 C -0.410203 -3.774539 -1.373565 0
M  V30 29 C -0.622344 -4.875180 -0.574548 0
M  V30 30 N -0.644295 -4.708265 0.755916 0
M  V30 31 C -0.719534 -4.533371 3.553386 0
M  V30 32 H -1.967237 -5.840852 6.002779 0
M  V30 33 H -0.238274 -6.357770 5.917869 0
M  V30 34 H -0.620023 -3.227722 6.688953 0
M  V30 35 H -0.168497 -1.328825 3.012328 0
M  V30 36 H -0.119976 -1.489551 0.995192 0
M  V30 37 H 0.259085 0.619486 0.251524 0
M  V30 38 H 2.569987 4.661933 0.530803 0
M  V30 39 H 2.797055 5.118530 2.876383 0
M  V30 40 H -0.706455 2.900023 3.692757 0
M  V30 41 H -0.972779 2.406366 1.236465 0
M  V30 42 H 1.098218 5.371138 -1.065005 0
M  V30 43 H 0.812290 2.887504 -4.506753 0
M  V30 44 H 0.353984 0.269376 -3.901833 0
M  V30 45 H -0.415901 -4.276736 -3.452771 0
M  V30 46 H -0.765157 -5.841750 -1.039166 0
M  V30 47 H -0.856185 -5.478081 3.020225 0
M  V30 END ATOM
M  V30 BEGIN BOND
M  V30 1 1 1 2
M  V30 2 2 2 3
M  V30 3 1 3 4
M  V30 4 2 4 5
M  V30 5 1 5 6
M  V30 6 1 6 7
M  V30 7 2 7 8
M  V30 8 1 8 9
M  V30 9 1 9 10
M  V30 10 1 10 11
M  V30 11 2 11 12
M  V30 12 1 12 13
M  V30 13 2 13 14
M  V30 14 1 14 15
M  V30 15 2 15 16
M  V30 16 1 16 17
M  V30 17 2 17 18
M  V30 18 1 18 19
M  V30 19 2 19 20
M  V30 20 1 14 21
M  V30 21 2 21 22
M  V30 22 1 22 23
M  V30 23 2 23 24
M  V30 24 1 24 25
M  V30 25 2 10 26
M  V30 26 1 26 27
M  V30 27 1 27 28
M  V30 28 1 28 29
M  V30 29 2 29 30
M  V30 30 2 6 31
M  V30 31 1 31 2
M  V30 32 1 30 7
M  V30 33 2 28 9
M  V30 34 1 25 11
M  V30 35 1 24 13
M  V30 36 1 20 15
M  V30 37 1 1 32
M  V30 38 1 1 33
M  V30 39 1 3 34
M  V30 40 1 5 35
M  V30 41 1 8 36
M  V30 42 1 12 37
M  V30 43 1 16 38
M  V30 44 1 17 39
M  V30 45 1 19 40
M  V30 46 1 20 41
M  V30 47 1 21 42
M  V30 48 1 23 43
M  V30 49 1 25 44
M  V30 50 1 27 45
M  V30 51 1 29 46
M  V30 52 1 31 47
M  V30 END BOND
M  V30 END CTAB
M  END
>  <Dataset>  (227) 
ChEMBL_Kinases

>  <Ligand_Instance>  (227) 
nan

>  <PDB_ID>  (227) 
nan

>  <Standardized_SMILES>  (227) 
Nc1cncc(-c2cc3c(-c4cc5c(-c6ccncc6)cncc5[nH]4)n[nH]c3cn2)c1

>  <Name>  (227) 
nan

>  <Pocket>  (227) 
nan

>  <ATP_Site>  (227) 
nan

>  <Peripheral>  (227) 
nan

>  <Num_H_Atoms_ProtBoundConf>  (227) 
nan

>  <Num_Resolved_Atoms>  (227) 
nan

>  <Num_Not_Resolved_Atoms>  (227) 
nan

$$$$
CHEMBL4763626
     RDKit          3D

  0  0  0  0  0  0  0  0  0  0999 V3000
M  V30 BEGIN CTAB
M  V30 COUNTS 43 46 0 0 0
M  V30 BEGIN ATOM
M  V30 1 N -3.933905 -2.250173 2.000989 0
M  V30 2 C -3.296896 -2.683218 0.770277 0
M  V30 3 C -2.219226 -1.714478 0.332440 0
M  V30 4 O -1.205333 -1.591768 1.315270 0
M  V30 5 N -0.162546 -0.767978 1.090770 0
M  V30 6 C 1.019655 -1.060177 0.892617 0
M  V30 7 C 2.202794 -0.297109 0.645736 0
M  V30 8 C 2.374710 0.980162 0.555243 0
M  V30 9 C 3.624569 1.675284 0.299693 0
M  V30 10 O 4.751416 1.202084 0.120986 0
M  V30 11 N 3.360539 3.072586 0.281103 0
M  V30 12 C 1.942457 3.186568 0.528618 0
M  V30 13 C 1.291459 4.411854 0.587027 0
M  V30 14 C -0.061543 4.422067 0.827705 0
M  V30 15 C -0.718506 3.195304 1.002495 0
M  V30 16 N -2.139151 3.243297 1.253421 0 CHG=1 VAL=4
M  V30 17 O -2.727344 4.335389 1.306858 0
M  V30 18 O -2.809503 2.054297 1.428833 0 CHG=-1 VAL=1
M  V30 19 C 0.022602 2.041809 0.924652 0
M  V30 20 C 1.344830 1.962729 0.692704 0
M  V30 21 N 3.229281 -1.262635 0.507085 0
M  V30 22 C 2.760117 -2.597793 0.652890 0
M  V30 23 C 3.448564 -3.794549 0.585348 0
M  V30 24 C 2.690774 -4.920667 0.772996 0
M  V30 25 C 1.335546 -4.901026 1.014289 0
M  V30 26 O 0.640001 -6.086656 1.193580 0
M  V30 27 C 0.731045 -3.668357 1.065168 0
M  V30 28 C 1.389020 -2.457546 0.891431 0
M  V30 29 H -3.903831 -1.207981 2.080858 0
M  V30 30 H -3.436192 -2.722974 2.787455 0
M  V30 31 H -2.945777 -3.716833 0.865777 0
M  V30 32 H -4.064921 -2.683203 -0.044073 0
M  V30 33 H -1.779607 -2.176729 -0.594622 0
M  V30 34 H -2.706394 -0.740291 0.129921 0
M  V30 35 H 4.076421 3.817571 0.118441 0
M  V30 36 H 1.765065 5.368817 0.457606 0
M  V30 37 H -0.591926 5.360237 0.878133 0
M  V30 38 H -0.617161 1.236098 1.076460 0
M  V30 39 H 4.226104 -1.029385 0.318108 0
M  V30 40 H 4.499573 -3.823039 0.398845 0
M  V30 41 H 3.211987 -5.865988 0.723685 0
M  V30 42 H -0.314361 -6.214466 0.895321 0
M  V30 43 H -0.329437 -3.710517 1.256651 0
M  V30 END ATOM
M  V30 BEGIN BOND
M  V30 1 1 1 2
M  V30 2 1 2 3
M  V30 3 1 3 4
M  V30 4 1 4 5
M  V30 5 2 5 6
M  V30 6 1 6 7
M  V30 7 2 7 8
M  V30 8 1 8 9
M  V30 9 2 9 10
M  V30 10 1 9 11
M  V30 11 1 11 12
M  V30 12 2 12 13
M  V30 13 1 13 14
M  V30 14 2 14 15
M  V30 15 1 15 16
M  V30 16 2 16 17
M  V30 17 1 16 18
M  V30 18 1 15 19
M  V30 19 2 19 20
M  V30 20 1 7 21
M  V30 21 1 21 22
M  V30 22 2 22 23
M  V30 23 1 23 24
M  V30 24 2 24 25
M  V30 25 1 25 26
M  V30 26 1 25 27
M  V30 27 2 27 28
M  V30 28 1 28 6
M  V30 29 1 20 8
M  V30 30 1 28 22
M  V30 31 1 20 12
M  V30 32 1 1 29
M  V30 33 1 1 30
M  V30 34 1 2 31
M  V30 35 1 2 32
M  V30 36 1 3 33
M  V30 37 1 3 34
M  V30 38 1 11 35
M  V30 39 1 13 36
M  V30 40 1 14 37
M  V30 41 1 19 38
M  V30 42 1 21 39
M  V30 43 1 23 40
M  V30 44 1 24 41
M  V30 45 1 26 42
M  V30 46 1 27 43
M  V30 END BOND
M  V30 END CTAB
M  END
>  <Dataset>  (228) 
ChEMBL_Kinases

>  <Ligand_Instance>  (228) 
nan

>  <PDB_ID>  (228) 
nan

>  <Standardized_SMILES>  (228) 
NCCO/N=C1C(=C2/C(=O)Nc3ccc([N+](=O)[O-])cc32)/Nc2ccc(O)cc2/1

>  <Name>  (228) 
nan

>  <Pocket>  (228) 
nan

>  <ATP_Site>  (228) 
nan

>  <Peripheral>  (228) 
nan

>  <Num_H_Atoms_ProtBoundConf>  (228) 
nan

>  <Num_Resolved_Atoms>  (228) 
nan

>  <Num_Not_Resolved_Atoms>  (228) 
nan

$$$$
CHEMBL1825158
     RDKit          3D

  0  0  0  0  0  0  0  0  0  0999 V3000
M  V30 BEGIN CTAB
M  V30 COUNTS 50 54 0 0 0
M  V30 BEGIN ATOM
M  V30 1 C -1.425811 1.210393 3.959124 0
M  V30 2 C -0.090947 1.429820 3.372835 0
M  V30 3 C 0.812945 2.253650 4.009398 0
M  V30 4 C 2.084691 2.468649 3.465983 0
M  V30 5 C 2.405404 1.837323 2.284065 0
M  V30 6 C 3.743711 2.096008 1.760548 0
M  V30 7 O 4.502861 2.849936 2.387253 0
M  V30 8 N 4.263848 1.540116 0.558418 0
M  V30 9 C 5.607333 1.834937 0.085299 0
M  V30 10 C 5.967862 1.851822 -1.331824 0
M  V30 11 C 6.487667 0.757367 -0.451450 0
M  V30 12 C 1.506228 1.007502 1.635133 0
M  V30 13 C 0.241208 0.803354 2.190242 0
M  V30 14 C -0.655596 -0.080263 1.449833 0
M  V30 15 C -1.984509 0.104015 1.127168 0
M  V30 16 N -2.644796 -0.838261 0.434262 0
M  V30 17 C -2.076264 -1.984892 0.022193 0
M  V30 18 C -0.750634 -2.232037 0.311383 0
M  V30 19 C -0.065060 -1.269103 1.022876 0
M  V30 20 N -0.454644 -3.505090 -0.251550 0
M  V30 21 C -1.615533 -4.035809 -0.889766 0
M  V30 22 O -1.712291 -5.136279 -1.487135 0
M  V30 23 C -2.744679 -3.066549 -0.745201 0
M  V30 24 C -3.852009 -3.723506 0.010915 0
M  V30 25 C -4.724430 -4.291404 -1.088477 0
M  V30 26 C -4.587413 -3.355200 -2.264772 0
M  V30 27 C -3.292463 -2.600226 -2.051116 0
M  V30 28 H -1.832772 0.213005 3.656467 0
M  V30 29 H -2.123514 2.000543 3.658046 0
M  V30 30 H -1.383809 1.254463 5.080851 0
M  V30 31 H 0.508148 2.725240 4.936625 0
M  V30 32 H 2.721722 3.129998 4.037735 0
M  V30 33 H 3.650685 0.901050 0.006821 0
M  V30 34 H 6.160020 2.539277 0.775146 0
M  V30 35 H 6.709403 2.627057 -1.651301 0
M  V30 36 H 5.198880 1.657736 -2.093320 0
M  V30 37 H 6.078940 -0.277671 -0.539241 0
M  V30 38 H 7.576568 0.739138 -0.217189 0
M  V30 39 H 1.776105 0.520913 0.708599 0
M  V30 40 H -2.389816 1.041047 1.480610 0
M  V30 41 H 0.973929 -1.516139 1.221944 0
M  V30 42 H 0.485496 -3.957244 -0.189094 0
M  V30 43 H -3.411832 -4.540785 0.630989 0
M  V30 44 H -4.412468 -2.986811 0.646547 0
M  V30 45 H -5.790632 -4.371351 -0.751447 0
M  V30 46 H -4.401567 -5.327403 -1.330858 0
M  V30 47 H -4.567325 -3.995204 -3.188352 0
M  V30 48 H -5.463546 -2.689224 -2.377463 0
M  V30 49 H -2.579421 -2.752896 -2.899818 0
M  V30 50 H -3.528351 -1.502449 -1.958672 0
M  V30 END ATOM
M  V30 BEGIN BOND
M  V30 1 1 1 2
M  V30 2 2 2 3
M  V30 3 1 3 4
M  V30 4 2 4 5
M  V30 5 1 5 6
M  V30 6 2 6 7
M  V30 7 1 6 8
M  V30 8 1 8 9
M  V30 9 1 9 10
M  V30 10 1 10 11
M  V30 11 1 5 12
M  V30 12 2 12 13
M  V30 13 1 13 14
M  V30 14 2 14 15
M  V30 15 1 15 16
M  V30 16 2 16 17
M  V30 17 1 17 18
M  V30 18 2 18 19
M  V30 19 1 18 20
M  V30 20 1 20 21
M  V30 21 2 21 22
M  V30 22 1 21 23
M  V30 23 1 23 24
M  V30 24 1 24 25
M  V30 25 1 25 26
M  V30 26 1 26 27
M  V30 27 1 13 2
M  V30 28 1 19 14
M  V30 29 1 27 23
M  V30 30 1 11 9
M  V30 31 1 23 17
M  V30 32 1 1 28
M  V30 33 1 1 29
M  V30 34 1 1 30
M  V30 35 1 3 31
M  V30 36 1 4 32
M  V30 37 1 8 33
M  V30 38 1 9 34
M  V30 39 1 10 35
M  V30 40 1 10 36
M  V30 41 1 11 37
M  V30 42 1 11 38
M  V30 43 1 12 39
M  V30 44 1 15 40
M  V30 45 1 19 41
M  V30 46 1 20 42
M  V30 47 1 24 43
M  V30 48 1 24 44
M  V30 49 1 25 45
M  V30 50 1 25 46
M  V30 51 1 26 47
M  V30 52 1 26 48
M  V30 53 1 27 49
M  V30 54 1 27 50
M  V30 END BOND
M  V30 END CTAB
M  END
>  <Dataset>  (229) 
ChEMBL_Kinases

>  <Ligand_Instance>  (229) 
nan

>  <PDB_ID>  (229) 
nan

>  <Standardized_SMILES>  (229) 
Cc1ccc(C(=O)NC2CC2)cc1-c1cnc2c(c1)NC(=O)C21CCCC1

>  <Name>  (229) 
nan

>  <Pocket>  (229) 
nan

>  <ATP_Site>  (229) 
nan

>  <Peripheral>  (229) 
nan

>  <Num_H_Atoms_ProtBoundConf>  (229) 
nan

>  <Num_Resolved_Atoms>  (229) 
nan

>  <Num_Not_Resolved_Atoms>  (229) 
nan

$$$$
CHEMBL4763675
     RDKit          3D

  0  0  0  0  0  0  0  0  0  0999 V3000
M  V30 BEGIN CTAB
M  V30 COUNTS 60 67 0 0 0
M  V30 BEGIN ATOM
M  V30 1 C 3.258968 -1.862720 4.224751 0
M  V30 2 N 2.863158 -0.789971 3.330754 0
M  V30 3 C 1.460709 -0.821904 3.047169 0 CFG=2
M  V30 4 C 1.000935 -2.084085 2.395545 0
M  V30 5 C -0.476450 -1.971384 2.102938 0 CFG=1
M  V30 6 O -1.025780 -0.774012 2.333468 0
M  V30 7 C -0.391765 0.384933 1.920359 0 CFG=1
M  V30 8 C -1.187852 1.479580 2.662455 0
M  V30 9 C 1.074241 0.422255 2.280402 0 CFG=2
M  V30 10 O 1.928742 0.779215 1.299247 0
M  V30 11 C 2.684566 1.889631 1.397053 0
M  V30 12 N -0.603051 0.609234 0.501586 0
M  V30 13 C -0.640521 1.720594 -0.240862 0
M  V30 14 C -0.424921 3.020326 0.229739 0
M  V30 15 C -0.473287 4.133363 -0.613124 0
M  V30 16 C -0.747273 3.891189 -1.954999 0
M  V30 17 C -0.948144 2.598823 -2.355788 0
M  V30 18 C -0.910034 1.486806 -1.568128 0
M  V30 19 C -1.057187 0.137375 -1.716015 0
M  V30 20 C -1.322734 -0.654852 -2.797701 0
M  V30 21 C -1.410004 -2.022717 -2.667032 0
M  V30 22 C -1.219944 -2.532391 -1.429429 0
M  V30 23 C -1.217071 -3.805522 -0.946240 0
M  V30 24 C -1.392400 -5.075449 -1.383965 0
M  V30 25 C -1.331967 -6.236929 -0.648276 0
M  V30 26 C -1.057819 -6.109778 0.715769 0
M  V30 27 C -0.865636 -4.849769 1.243762 0
M  V30 28 C -0.951271 -3.761447 0.405174 0
M  V30 29 N -0.792063 -2.497578 0.761708 0
M  V30 30 C -0.952868 -1.739375 -0.337448 0
M  V30 31 C -0.862158 -0.345468 -0.445086 0
M  V30 32 C -1.697525 -2.649307 -3.928893 0
M  V30 33 O -1.867846 -3.806811 -4.333011 0
M  V30 34 N -1.790086 -1.587964 -4.886283 0
M  V30 35 C -1.558993 -0.364239 -4.186029 0
M  V30 36 O -1.598748 0.674140 -4.850723 0
M  V30 37 H 3.175806 -2.855919 3.772924 0
M  V30 38 H 2.532217 -1.835402 5.088807 0
M  V30 39 H 4.264924 -1.644779 4.634807 0
M  V30 40 H 3.077481 0.098301 3.835501 0
M  V30 41 H 0.920067 -0.782732 4.017686 0
M  V30 42 H 1.499894 -2.345478 1.449135 0
M  V30 43 H 1.254345 -2.915386 3.088406 0
M  V30 44 H -0.969691 -2.688945 2.795286 0
M  V30 45 H -1.800201 1.020710 3.510689 0
M  V30 46 H -0.488822 2.131406 3.223220 0
M  V30 47 H -1.935818 1.962957 2.045775 0
M  V30 48 H 1.187526 1.237732 3.056122 0
M  V30 49 H 2.162691 2.860354 1.504252 0
M  V30 50 H 3.207109 1.993170 0.401773 0
M  V30 51 H 3.556346 1.798817 2.104387 0
M  V30 52 H -0.197326 3.264756 1.233031 0
M  V30 53 H -0.309958 5.133895 -0.262091 0
M  V30 54 H -0.790462 4.740471 -2.630713 0
M  V30 55 H -1.149721 2.499431 -3.389360 0
M  V30 56 H -1.602423 -5.219195 -2.413670 0
M  V30 57 H -1.484280 -7.210691 -1.075794 0
M  V30 58 H -0.996183 -6.980565 1.351422 0
M  V30 59 H -0.657826 -4.788222 2.290428 0
M  V30 60 H -1.994943 -1.703444 -5.929999 0
M  V30 END ATOM
M  V30 BEGIN BOND
M  V30 1 1 1 2
M  V30 2 1 2 3
M  V30 3 1 3 4
M  V30 4 1 4 5
M  V30 5 1 5 6
M  V30 6 1 6 7
M  V30 7 1 7 8 CFG=1
M  V30 8 1 7 9
M  V30 9 1 9 10
M  V30 10 1 10 11
M  V30 11 1 7 12
M  V30 12 1 12 13
M  V30 13 2 13 14
M  V30 14 1 14 15
M  V30 15 2 15 16
M  V30 16 1 16 17
M  V30 17 2 17 18
M  V30 18 1 18 19
M  V30 19 2 19 20
M  V30 20 1 20 21
M  V30 21 2 21 22
M  V30 22 1 22 23
M  V30 23 2 23 24
M  V30 24 1 24 25
M  V30 25 2 25 26
M  V30 26 1 26 27
M  V30 27 2 27 28
M  V30 28 1 28 29
M  V30 29 1 29 30
M  V30 30 2 30 31
M  V30 31 1 21 32
M  V30 32 2 32 33
M  V30 33 1 32 34
M  V30 34 1 34 35
M  V30 35 2 35 36
M  V30 36 1 9 3
M  V30 37 1 31 12
M  V30 38 1 29 5
M  V30 39 1 18 13
M  V30 40 1 31 19
M  V30 41 1 35 20
M  V30 42 1 30 22
M  V30 43 1 28 23
M  V30 44 1 1 37
M  V30 45 1 1 38
M  V30 46 1 1 39
M  V30 47 1 2 40
M  V30 48 1 3 41 CFG=1
M  V30 49 1 4 42
M  V30 50 1 4 43
M  V30 51 1 5 44 CFG=1
M  V30 52 1 8 45
M  V30 53 1 8 46
M  V30 54 1 8 47
M  V30 55 1 9 48 CFG=1
M  V30 56 1 11 49
M  V30 57 1 11 50
M  V30 58 1 11 51
M  V30 59 1 14 52
M  V30 60 1 15 53
M  V30 61 1 16 54
M  V30 62 1 17 55
M  V30 63 1 24 56
M  V30 64 1 25 57
M  V30 65 1 26 58
M  V30 66 1 27 59
M  V30 67 1 34 60
M  V30 END BOND
M  V30 END CTAB
M  END
>  <Dataset>  (230) 
ChEMBL_Kinases

>  <Ligand_Instance>  (230) 
nan

>  <PDB_ID>  (230) 
nan

>  <Standardized_SMILES>  (230) 
CN[C@@H]1C[C@H]2O[C@@](C)([C@@H]1OC)n1c3ccccc3c3c4c(c5c6ccccc6n2c5c31)C(=O)NC4=O

>  <Name>  (230) 
nan

>  <Pocket>  (230) 
nan

>  <ATP_Site>  (230) 
nan

>  <Peripheral>  (230) 
nan

>  <Num_H_Atoms_ProtBoundConf>  (230) 
nan

>  <Num_Resolved_Atoms>  (230) 
nan

>  <Num_Not_Resolved_Atoms>  (230) 
nan

$$$$
CHEMBL4763746
     RDKit          3D

  0  0  0  0  0  0  0  0  0  0999 V3000
M  V30 BEGIN CTAB
M  V30 COUNTS 130 138 0 0 0
M  V30 BEGIN ATOM
M  V30 1 C 4.450451 0.357258 0.206966 0
M  V30 2 C 5.727162 1.175066 0.136794 0
M  V30 3 C 6.762053 0.183319 -0.449404 0
M  V30 4 C 6.160610 1.510110 1.502007 0
M  V30 5 C 7.211196 0.875908 2.180841 0
M  V30 6 C 7.409924 1.411167 3.422150 0
M  V30 7 N 6.485626 2.376109 3.518112 0
M  V30 8 N 6.266910 3.182284 4.540945 0
M  V30 9 C 5.288033 4.085273 4.461825 0
M  V30 10 N 4.510549 4.200659 3.363451 0
M  V30 11 C 4.735249 3.381731 2.326159 0
M  V30 12 N 3.881528 3.493422 1.169142 0
M  V30 13 C 2.822165 4.466485 1.334994 0 CFG=1
M  V30 14 C 2.036362 4.709684 0.056833 0
M  V30 15 C 0.600081 5.056348 0.379450 0
M  V30 16 C -0.131516 3.910066 1.045058 0 CFG=1
M  V30 17 N -1.169983 3.328882 0.295442 0
M  V30 18 C -0.838444 2.826763 -1.008201 0
M  V30 19 C -2.050569 3.023576 -1.905997 0
M  V30 20 N -3.175318 2.274075 -1.341658 0
M  V30 21 C -3.811993 1.069507 -1.795026 0
M  V30 22 O -4.776975 0.657809 -1.105178 0
M  V30 23 C -3.106746 0.651863 -2.997776 0
M  V30 24 C -3.645071 -0.565599 -3.677919 0
M  V30 25 C -3.661534 -1.791142 -2.863709 0
M  V30 26 O -3.657754 -1.856337 -1.609012 0
M  V30 27 N -3.687654 -3.015345 -3.635290 0
M  V30 28 C -3.648738 -3.049573 -5.096808 0
M  V30 29 C -2.178979 -3.329527 -5.433138 0
M  V30 30 C -1.694117 -4.372585 -4.447240 0
M  V30 31 C -0.513250 -5.160603 -4.920419 0
M  V30 32 C 0.679095 -4.218219 -5.125183 0
M  V30 33 N 0.910755 -3.663895 -3.793722 0
M  V30 34 C 1.837013 -2.540586 -3.797078 0
M  V30 35 C 1.458985 -1.741236 -2.535679 0
M  V30 36 N 1.082016 -2.743629 -1.537143 0
M  V30 37 C 0.070315 -2.766295 -0.530012 0
M  V30 38 C -0.273791 -4.001688 -0.039485 0
M  V30 39 C -1.232258 -4.145405 0.932162 0
M  V30 40 C -1.865631 -3.020641 1.427418 0
M  V30 41 C -1.540684 -1.754520 0.952060 0
M  V30 42 C -0.572457 -1.677560 -0.021310 0
M  V30 43 C -2.397718 -0.839237 1.692507 0
M  V30 44 O -2.279930 0.403506 1.427233 0
M  V30 45 N -3.258384 -1.520843 2.627828 0
M  V30 46 C -4.182122 -0.787711 3.484089 0
M  V30 47 C -5.621531 -1.079115 3.165912 0
M  V30 48 C -6.183936 -2.319453 3.735277 0
M  V30 49 C -5.647654 -2.697627 5.055312 0
M  V30 50 O -6.247136 -3.634097 5.660751 0
M  V30 51 N -4.527960 -2.107395 5.698199 0
M  V30 52 C -4.120747 -2.499868 7.009490 0
M  V30 53 C -3.905411 -1.126287 4.887727 0
M  V30 54 O -2.978081 -0.424168 5.411589 0
M  V30 55 C -2.895402 -2.869085 2.430705 0
M  V30 56 O -3.411654 -3.819008 3.060117 0
M  V30 57 C 1.976186 -3.900168 -1.694816 0
M  V30 58 C 1.508896 -4.693001 -2.928982 0
M  V30 59 C -2.764920 -5.241360 -3.888585 0
M  V30 60 C -3.758562 -4.385589 -3.087390 0
M  V30 61 C -3.567043 3.005921 -0.145283 0
M  V30 62 C -2.478459 3.848427 0.417070 0
M  V30 63 C 0.913628 2.982360 1.588328 0
M  V30 64 C 1.880905 3.867408 2.394673 0
M  V30 65 C 5.738435 2.455099 2.403551 0
M  V30 66 H 4.681679 -0.702746 0.425702 0
M  V30 67 H 3.742388 0.702394 0.970281 0
M  V30 68 H 4.014985 0.418864 -0.824357 0
M  V30 69 H 5.597845 2.011155 -0.546974 0
M  V30 70 H 6.446161 -0.032067 -1.472689 0
M  V30 71 H 7.783140 0.569237 -0.354367 0
M  V30 72 H 6.668995 -0.730227 0.201623 0
M  V30 73 H 7.819988 0.053038 1.805835 0
M  V30 74 H 8.161792 1.096764 4.142426 0
M  V30 75 H 5.016365 4.800493 5.239796 0
M  V30 76 H 3.777005 3.091440 0.236173 0
M  V30 77 H 3.171381 5.449351 1.697058 0
M  V30 78 H 2.145327 3.864406 -0.650501 0
M  V30 79 H 2.487969 5.599385 -0.431413 0
M  V30 80 H 0.636621 5.974750 0.988978 0
M  V30 81 H 0.062470 5.302589 -0.545444 0
M  V30 82 H -0.614890 4.380230 1.958395 0
M  V30 83 H -0.053057 3.471850 -1.439745 0
M  V30 84 H -0.508249 1.791595 -1.056758 0
M  V30 85 H -1.794610 2.584090 -2.885409 0
M  V30 86 H -2.252082 4.088250 -2.027035 0
M  V30 87 H -2.003276 0.566093 -2.854926 0
M  V30 88 H -3.233046 1.486528 -3.758462 0
M  V30 89 H -3.091077 -0.705139 -4.634400 0
M  V30 90 H -4.690879 -0.293293 -4.020008 0
M  V30 91 H -4.218162 -3.918788 -5.512603 0
M  V30 92 H -4.052804 -2.168542 -5.582665 0
M  V30 93 H -1.629532 -2.385051 -5.312079 0
M  V30 94 H -2.094789 -3.658721 -6.482619 0
M  V30 95 H -1.321686 -3.749242 -3.551379 0
M  V30 96 H -0.771106 -5.671004 -5.870974 0
M  V30 97 H -0.246238 -5.917940 -4.190276 0
M  V30 98 H 1.526611 -4.831344 -5.445605 0
M  V30 99 H 0.473603 -3.455503 -5.888758 0
M  V30 100 H 1.760081 -1.914037 -4.684461 0
M  V30 101 H 2.893971 -2.839392 -3.706577 0
M  V30 102 H 2.241798 -1.061965 -2.210413 0
M  V30 103 H 0.493828 -1.233055 -2.831960 0
M  V30 104 H 0.128436 -4.983373 -0.333055 0
M  V30 105 H -1.526566 -5.117434 1.340041 0
M  V30 106 H -0.310562 -0.712641 -0.398300 0
M  V30 107 H -4.027632 0.319134 3.289989 0
M  V30 108 H -5.790367 -1.014293 2.060928 0
M  V30 109 H -6.195010 -0.192398 3.587397 0
M  V30 110 H -7.306567 -2.230632 3.900897 0
M  V30 111 H -6.016543 -3.196280 3.045438 0
M  V30 112 H -5.024936 -2.511373 7.685624 0
M  V30 113 H -3.324946 -1.863574 7.396210 0
M  V30 114 H -3.796484 -3.568954 6.976627 0
M  V30 115 H 2.997960 -3.513481 -1.820715 0
M  V30 116 H 1.988933 -4.528471 -0.784173 0
M  V30 117 H 0.745039 -5.393921 -2.613035 0
M  V30 118 H 2.339815 -5.212448 -3.395914 0
M  V30 119 H -2.333871 -5.943597 -3.176363 0
M  V30 120 H -3.325183 -5.669902 -4.730219 0
M  V30 121 H -3.547108 -4.407252 -2.003774 0
M  V30 122 H -4.768937 -4.755533 -3.324678 0
M  V30 123 H -4.050999 2.337744 0.596703 0
M  V30 124 H -4.382550 3.701814 -0.502272 0
M  V30 125 H -2.519607 4.869502 -0.016542 0
M  V30 126 H -2.710654 3.987841 1.510241 0
M  V30 127 H 1.502219 2.526860 0.785263 0
M  V30 128 H 0.525221 2.164336 2.221460 0
M  V30 129 H 1.262808 4.677795 2.826000 0
M  V30 130 H 2.402817 3.283458 3.151315 0
M  V30 END ATOM
M  V30 BEGIN BOND
M  V30 1 1 1 2
M  V30 2 1 2 3
M  V30 3 1 2 4
M  V30 4 1 4 5
M  V30 5 2 5 6
M  V30 6 1 6 7
M  V30 7 1 7 8
M  V30 8 2 8 9
M  V30 9 1 9 10
M  V30 10 2 10 11
M  V30 11 1 11 12
M  V30 12 1 12 13
M  V30 13 1 13 14
M  V30 14 1 14 15
M  V30 15 1 15 16
M  V30 16 1 16 17
M  V30 17 1 17 18
M  V30 18 1 18 19
M  V30 19 1 19 20
M  V30 20 1 20 21
M  V30 21 2 21 22
M  V30 22 1 21 23
M  V30 23 1 23 24
M  V30 24 1 24 25
M  V30 25 2 25 26
M  V30 26 1 25 27
M  V30 27 1 27 28
M  V30 28 1 28 29
M  V30 29 1 29 30
M  V30 30 1 30 31
M  V30 31 1 31 32
M  V30 32 1 32 33
M  V30 33 1 33 34
M  V30 34 1 34 35
M  V30 35 1 35 36
M  V30 36 1 36 37
M  V30 37 2 37 38
M  V30 38 1 38 39
M  V30 39 2 39 40
M  V30 40 1 40 41
M  V30 41 2 41 42
M  V30 42 1 41 43
M  V30 43 2 43 44
M  V30 44 1 43 45
M  V30 45 1 45 46
M  V30 46 1 46 47
M  V30 47 1 47 48
M  V30 48 1 48 49
M  V30 49 2 49 50
M  V30 50 1 49 51
M  V30 51 1 51 52
M  V30 52 1 51 53
M  V30 53 2 53 54
M  V30 54 1 45 55
M  V30 55 2 55 56
M  V30 56 1 36 57
M  V30 57 1 57 58
M  V30 58 1 30 59
M  V30 59 1 59 60
M  V30 60 1 20 61
M  V30 61 1 61 62
M  V30 62 1 16 63
M  V30 63 1 63 64
M  V30 64 1 11 65
M  V30 65 2 65 4
M  V30 66 1 65 7
M  V30 67 1 64 13
M  V30 68 1 62 17
M  V30 69 1 60 27
M  V30 70 1 58 33
M  V30 71 1 42 37
M  V30 72 1 53 46
M  V30 73 1 55 40
M  V30 74 1 1 66
M  V30 75 1 1 67
M  V30 76 1 1 68
M  V30 77 1 2 69
M  V30 78 1 3 70
M  V30 79 1 3 71
M  V30 80 1 3 72
M  V30 81 1 5 73
M  V30 82 1 6 74
M  V30 83 1 9 75
M  V30 84 1 12 76
M  V30 85 1 13 77 CFG=1
M  V30 86 1 14 78
M  V30 87 1 14 79
M  V30 88 1 15 80
M  V30 89 1 15 81
M  V30 90 1 16 82 CFG=1
M  V30 91 1 18 83
M  V30 92 1 18 84
M  V30 93 1 19 85
M  V30 94 1 19 86
M  V30 95 1 23 87
M  V30 96 1 23 88
M  V30 97 1 24 89
M  V30 98 1 24 90
M  V30 99 1 28 91
M  V30 100 1 28 92
M  V30 101 1 29 93
M  V30 102 1 29 94
M  V30 103 1 30 95
M  V30 104 1 31 96
M  V30 105 1 31 97
M  V30 106 1 32 98
M  V30 107 1 32 99
M  V30 108 1 34 100
M  V30 109 1 34 101
M  V30 110 1 35 102
M  V30 111 1 35 103
M  V30 112 1 38 104
M  V30 113 1 39 105
M  V30 114 1 42 106
M  V30 115 1 46 107
M  V30 116 1 47 108
M  V30 117 1 47 109
M  V30 118 1 48 110
M  V30 119 1 48 111
M  V30 120 1 52 112
M  V30 121 1 52 113
M  V30 122 1 52 114
M  V30 123 1 57 115
M  V30 124 1 57 116
M  V30 125 1 58 117
M  V30 126 1 58 118
M  V30 127 1 59 119
M  V30 128 1 59 120
M  V30 129 1 60 121
M  V30 130 1 60 122
M  V30 131 1 61 123
M  V30 132 1 61 124
M  V30 133 1 62 125
M  V30 134 1 62 126
M  V30 135 1 63 127
M  V30 136 1 63 128
M  V30 137 1 64 129
M  V30 138 1 64 130
M  V30 END BOND
M  V30 END CTAB
M  END
>  <Dataset>  (231) 
ChEMBL_Kinases

>  <Ligand_Instance>  (231) 
nan

>  <PDB_ID>  (231) 
nan

>  <Standardized_SMILES>  (231) 
CC(C)c1ccn2ncnc(N[C@H]3CC[C@@H](N4CCN(C(=O)CCC(=O)N5CCC(CCN6CCN(c7ccc8c(c7)C(=O)N(C7CCC(=O)N(C)C7=O)C8=O)CC6)CC5)CC4)CC3)c12

>  <Name>  (231) 
nan

>  <Pocket>  (231) 
nan

>  <ATP_Site>  (231) 
nan

>  <Peripheral>  (231) 
nan

>  <Num_H_Atoms_ProtBoundConf>  (231) 
nan

>  <Num_Resolved_Atoms>  (231) 
nan

>  <Num_Not_Resolved_Atoms>  (231) 
nan

$$$$
CHEMBL1825147
     RDKit          3D

  0  0  0  0  0  0  0  0  0  0999 V3000
M  V30 BEGIN CTAB
M  V30 COUNTS 52 56 0 0 0
M  V30 BEGIN ATOM
M  V30 1 C -1.649148 2.034531 -0.709243 0
M  V30 2 C -0.212570 1.834082 -0.485637 0
M  V30 3 C 0.654936 2.871656 -0.833283 0
M  V30 4 C 2.014915 2.740649 -0.644978 0
M  V30 5 C 2.583540 1.611173 -0.117899 0
M  V30 6 C 4.009373 1.403267 0.108427 0
M  V30 7 O 4.504683 0.359370 0.593605 0
M  V30 8 N 4.959563 2.409120 -0.219631 0
M  V30 9 C 6.396880 2.304264 -0.035510 0
M  V30 10 C 7.297251 2.806197 -1.142620 0
M  V30 11 C 7.224718 3.496744 0.175441 0
M  V30 12 C 1.699934 0.605269 0.214939 0
M  V30 13 C 0.333165 0.683290 0.048078 0
M  V30 14 C -0.547242 -0.418117 0.419678 0
M  V30 15 C -0.330666 -1.031557 1.655516 0
M  V30 16 C -1.146229 -2.088264 2.052395 0
M  V30 17 C -2.178939 -2.567381 1.266395 0
M  V30 18 C -2.381712 -1.955693 0.053139 0
M  V30 19 C -1.578398 -0.901608 -0.357668 0
M  V30 20 N -3.487658 -2.575995 -0.629139 0
M  V30 21 C -3.968116 -3.616913 0.231678 0
M  V30 22 O -4.948343 -4.330744 -0.129522 0
M  V30 23 C -3.159068 -3.649298 1.463261 0
M  V30 24 C -4.063173 -3.292339 2.650726 0
M  V30 25 C -5.129170 -4.355613 2.786961 0
M  V30 26 O -4.630763 -5.631187 2.878717 0
M  V30 27 C -3.696591 -5.971364 1.926760 0
M  V30 28 C -2.567455 -4.980167 1.793448 0
M  V30 29 H -1.859209 3.120807 -0.490903 0
M  V30 30 H -2.277921 1.485518 0.023718 0
M  V30 31 H -1.976498 1.908454 -1.763917 0
M  V30 32 H 0.272951 3.799259 -1.257890 0
M  V30 33 H 2.675861 3.554543 -0.919672 0
M  V30 34 H 4.680613 3.326842 -0.630794 0
M  V30 35 H 6.730205 1.339785 0.399028 0
M  V30 36 H 6.767050 3.237032 -2.036103 0
M  V30 37 H 8.206880 2.264096 -1.407418 0
M  V30 38 H 6.800091 4.507048 0.273146 0
M  V30 39 H 8.136862 3.382532 0.828312 0
M  V30 40 H 2.117905 -0.313873 0.639689 0
M  V30 41 H 0.479461 -0.680439 2.309242 0
M  V30 42 H -0.958381 -2.554567 3.025706 0
M  V30 43 H -1.752951 -0.435604 -1.312595 0
M  V30 44 H -3.854718 -2.295095 -1.585824 0
M  V30 45 H -4.560871 -2.338923 2.424015 0
M  V30 46 H -3.442001 -3.218389 3.563553 0
M  V30 47 H -5.642182 -4.146680 3.761453 0
M  V30 48 H -5.893456 -4.224383 2.012362 0
M  V30 49 H -4.111127 -6.233938 0.948295 0
M  V30 50 H -3.219798 -6.924985 2.299555 0
M  V30 51 H -1.852484 -5.365746 1.068517 0
M  V30 52 H -2.105660 -4.883210 2.798178 0
M  V30 END ATOM
M  V30 BEGIN BOND
M  V30 1 1 1 2
M  V30 2 2 2 3
M  V30 3 1 3 4
M  V30 4 2 4 5
M  V30 5 1 5 6
M  V30 6 2 6 7
M  V30 7 1 6 8
M  V30 8 1 8 9
M  V30 9 1 9 10
M  V30 10 1 10 11
M  V30 11 1 5 12
M  V30 12 2 12 13
M  V30 13 1 13 14
M  V30 14 2 14 15
M  V30 15 1 15 16
M  V30 16 2 16 17
M  V30 17 1 17 18
M  V30 18 2 18 19
M  V30 19 1 18 20
M  V30 20 1 20 21
M  V30 21 2 21 22
M  V30 22 1 21 23
M  V30 23 1 23 24
M  V30 24 1 24 25
M  V30 25 1 25 26
M  V30 26 1 26 27
M  V30 27 1 27 28
M  V30 28 1 13 2
M  V30 29 1 19 14
M  V30 30 1 28 23
M  V30 31 1 11 9
M  V30 32 1 23 17
M  V30 33 1 1 29
M  V30 34 1 1 30
M  V30 35 1 1 31
M  V30 36 1 3 32
M  V30 37 1 4 33
M  V30 38 1 8 34
M  V30 39 1 9 35
M  V30 40 1 10 36
M  V30 41 1 10 37
M  V30 42 1 11 38
M  V30 43 1 11 39
M  V30 44 1 12 40
M  V30 45 1 15 41
M  V30 46 1 16 42
M  V30 47 1 19 43
M  V30 48 1 20 44
M  V30 49 1 24 45
M  V30 50 1 24 46
M  V30 51 1 25 47
M  V30 52 1 25 48
M  V30 53 1 27 49
M  V30 54 1 27 50
M  V30 55 1 28 51
M  V30 56 1 28 52
M  V30 END BOND
M  V30 END CTAB
M  END
>  <Dataset>  (232) 
ChEMBL_Kinases

>  <Ligand_Instance>  (232) 
nan

>  <PDB_ID>  (232) 
nan

>  <Standardized_SMILES>  (232) 
Cc1ccc(C(=O)NC2CC2)cc1-c1ccc2c(c1)NC(=O)C21CCOCC1

>  <Name>  (232) 
nan

>  <Pocket>  (232) 
nan

>  <ATP_Site>  (232) 
nan

>  <Peripheral>  (232) 
nan

>  <Num_H_Atoms_ProtBoundConf>  (232) 
nan

>  <Num_Resolved_Atoms>  (232) 
nan

>  <Num_Not_Resolved_Atoms>  (232) 
nan

$$$$
CHEMBL182493
     RDKit          3D

  0  0  0  0  0  0  0  0  0  0999 V3000
M  V30 BEGIN CTAB
M  V30 COUNTS 50 54 0 0 0
M  V30 BEGIN ATOM
M  V30 1 C 1.120770 -1.866099 6.194899 0
M  V30 2 C 1.120455 -1.869015 4.698666 0
M  V30 3 C 1.751158 -0.822177 4.052485 0
M  V30 4 C 1.818099 -0.714060 2.672976 0
M  V30 5 C 1.219708 -1.710478 1.922110 0
M  V30 6 C 1.078773 -1.948383 0.552334 0
M  V30 7 C 1.626588 -1.044978 -0.448651 0
M  V30 8 C 2.642155 -1.282677 -1.345730 0
M  V30 9 C 3.004073 -0.280243 -2.216484 0
M  V30 10 N 2.354112 0.887639 -2.157166 0
M  V30 11 C 1.358485 1.165082 -1.300176 0
M  V30 12 N 0.751274 2.446448 -1.343193 0
M  V30 13 C -0.302156 2.929137 -0.528385 0
M  V30 14 C -0.802773 4.212753 -0.701507 0
M  V30 15 C -1.821766 4.728951 0.061117 0
M  V30 16 C -2.407773 3.982114 1.054994 0
M  V30 17 C -1.944760 2.701619 1.264937 0
M  V30 18 C -2.575829 1.896590 2.336427 0
M  V30 19 F -2.987147 2.764288 3.336954 0
M  V30 20 F -3.712918 1.291594 1.842305 0
M  V30 21 F -1.676591 0.951286 2.815423 0
M  V30 22 C -0.934087 2.241152 0.480978 0
M  V30 23 N 1.056438 0.166547 -0.491376 0
M  V30 24 C 0.372818 -3.121967 0.461952 0
M  V30 25 C -0.005584 -3.751810 -0.796738 0
M  V30 26 C -1.401532 -3.752453 -0.913816 0
M  V30 27 C -2.024584 -4.305971 -2.039427 0
M  V30 28 C -1.230729 -4.847540 -3.024281 0
M  V30 29 F -1.711567 -5.413642 -4.162463 0
M  V30 30 C 0.140848 -4.846598 -2.908598 0
M  V30 31 C 0.758522 -4.303226 -1.802948 0
M  V30 32 N 0.102656 -3.567908 1.718218 0
M  V30 33 N 0.608208 -2.725179 2.599416 0
M  V30 34 N 0.564352 -2.795038 3.918972 0
M  V30 35 H 0.633405 -0.975796 6.603622 0
M  V30 36 H 2.175839 -1.857439 6.536607 0
M  V30 37 H 0.639485 -2.759297 6.599868 0
M  V30 38 H 2.231252 -0.023027 4.619718 0
M  V30 39 H 2.306683 0.096983 2.174052 0
M  V30 40 H 3.086253 -2.258639 -1.293204 0
M  V30 41 H 3.801703 -0.467708 -2.920519 0
M  V30 42 H 1.110799 3.124947 -2.052632 0
M  V30 43 H -0.385275 4.853761 -1.467847 0
M  V30 44 H -2.167661 5.738946 -0.124052 0
M  V30 45 H -3.198308 4.443615 1.613744 0
M  V30 46 H -0.627071 1.234813 0.704423 0
M  V30 47 H -2.132414 -3.359284 -0.211773 0
M  V30 48 H -3.095560 -4.333149 -2.180665 0
M  V30 49 H 0.816532 -5.254771 -3.644692 0
M  V30 50 H 1.796165 -4.241148 -1.591608 0
M  V30 END ATOM
M  V30 BEGIN BOND
M  V30 1 1 1 2
M  V30 2 1 2 3
M  V30 3 2 3 4
M  V30 4 1 4 5
M  V30 5 2 5 6
M  V30 6 1 6 7
M  V30 7 2 7 8
M  V30 8 1 8 9
M  V30 9 2 9 10
M  V30 10 1 10 11
M  V30 11 1 11 12
M  V30 12 1 12 13
M  V30 13 2 13 14
M  V30 14 1 14 15
M  V30 15 2 15 16
M  V30 16 1 16 17
M  V30 17 1 17 18
M  V30 18 1 18 19
M  V30 19 1 18 20
M  V30 20 1 18 21
M  V30 21 2 17 22
M  V30 22 2 11 23
M  V30 23 1 6 24
M  V30 24 1 24 25
M  V30 25 2 25 26
M  V30 26 1 26 27
M  V30 27 2 27 28
M  V30 28 1 28 29
M  V30 29 1 28 30
M  V30 30 2 30 31
M  V30 31 2 24 32
M  V30 32 1 32 33
M  V30 33 1 33 34
M  V30 34 2 34 2
M  V30 35 1 33 5
M  V30 36 1 23 7
M  V30 37 1 31 25
M  V30 38 1 22 13
M  V30 39 1 1 35
M  V30 40 1 1 36
M  V30 41 1 1 37
M  V30 42 1 3 38
M  V30 43 1 4 39
M  V30 44 1 8 40
M  V30 45 1 9 41
M  V30 46 1 12 42
M  V30 47 1 14 43
M  V30 48 1 15 44
M  V30 49 1 16 45
M  V30 50 1 22 46
M  V30 51 1 26 47
M  V30 52 1 27 48
M  V30 53 1 30 49
M  V30 54 1 31 50
M  V30 END BOND
M  V30 END CTAB
M  END
>  <Dataset>  (233) 
ChEMBL_Kinases

>  <Ligand_Instance>  (233) 
nan

>  <PDB_ID>  (233) 
nan

>  <Standardized_SMILES>  (233) 
Cc1ccc2c(-c3ccnc(Nc4cccc(C(F)(F)F)c4)n3)c(-c3ccc(F)cc3)nn2n1

>  <Name>  (233) 
nan

>  <Pocket>  (233) 
nan

>  <ATP_Site>  (233) 
nan

>  <Peripheral>  (233) 
nan

>  <Num_H_Atoms_ProtBoundConf>  (233) 
nan

>  <Num_Resolved_Atoms>  (233) 
nan

>  <Num_Not_Resolved_Atoms>  (233) 
nan

$$$$
CHEMBL4764071
     RDKit          3D

  0  0  0  0  0  0  0  0  0  0999 V3000
M  V30 BEGIN CTAB
M  V30 COUNTS 48 51 0 0 0
M  V30 BEGIN ATOM
M  V30 1 C 1.256379 -2.441547 0.479508 0
M  V30 2 C 2.099403 -2.631051 1.719337 0 CFG=2
M  V30 3 C 1.582605 -1.801209 2.877947 0
M  V30 4 O 0.287391 -2.143151 3.206137 0
M  V30 5 N 3.505640 -2.399453 1.483142 0
M  V30 6 C 4.493772 -3.333468 1.517171 0
M  V30 7 N 5.633678 -2.685127 1.241710 0
M  V30 8 N 5.425579 -1.401703 1.036371 0
M  V30 9 C 4.082704 -1.234188 1.191051 0
M  V30 10 C 3.474800 0.077802 1.035650 0
M  V30 11 C 3.944791 1.122073 1.803422 0
M  V30 12 C 3.429356 2.399868 1.723687 0
M  V30 13 C 2.398275 2.672277 0.845742 0
M  V30 14 C 1.938784 1.602500 0.079758 0
M  V30 15 N 0.877746 1.632488 -0.902451 0
M  V30 16 C -0.360556 1.339294 -0.253831 0
M  V30 17 O -0.564236 1.086370 0.972382 0
M  V30 18 N -1.587448 1.304617 -1.010276 0
M  V30 19 C -2.868618 1.022142 -0.453464 0
M  V30 20 N -3.594417 2.065252 0.003881 0
M  V30 21 C -4.820379 1.921503 0.551616 0
M  V30 22 C -5.350898 0.631225 0.643787 0
M  V30 23 C -4.636642 -0.453226 0.186885 0
M  V30 24 C -5.096542 -1.752041 0.245517 0
M  V30 25 C -4.322260 -2.769785 -0.231175 0
M  V30 26 C -3.069108 -2.592414 -0.787468 0
M  V30 27 C -2.608642 -1.273677 -0.844008 0
M  V30 28 C -3.400606 -0.250115 -0.358488 0
M  V30 29 N 2.471165 0.372339 0.190318 0
M  V30 30 H 0.643598 -3.351241 0.231997 0
M  V30 31 H 1.912239 -2.305820 -0.406503 0
M  V30 32 H 0.551172 -1.616584 0.642748 0
M  V30 33 H 1.945371 -3.698381 2.041160 0
M  V30 34 H 2.212592 -2.027089 3.758222 0
M  V30 35 H 1.694547 -0.721395 2.648112 0
M  V30 36 H -0.294371 -1.324252 3.104326 0
M  V30 37 H 4.382231 -4.381871 1.723741 0
M  V30 38 H 4.755352 1.000325 2.522664 0
M  V30 39 H 3.770444 3.245996 2.308648 0
M  V30 40 H 1.893007 3.592440 0.663004 0
M  V30 41 H 0.810918 1.810766 -1.929001 0
M  V30 42 H -1.601318 1.491839 -2.044909 0
M  V30 43 H -5.403465 2.767205 0.919946 0
M  V30 44 H -6.341930 0.442610 1.078010 0
M  V30 45 H -6.073893 -1.918586 0.676054 0
M  V30 46 H -4.666235 -3.795459 -0.193718 0
M  V30 47 H -2.431995 -3.371620 -1.172833 0
M  V30 48 H -1.635956 -1.093689 -1.270801 0
M  V30 END ATOM
M  V30 BEGIN BOND
M  V30 1 1 1 2
M  V30 2 1 2 3
M  V30 3 1 3 4
M  V30 4 1 2 5
M  V30 5 1 5 6
M  V30 6 2 6 7
M  V30 7 1 7 8
M  V30 8 2 8 9
M  V30 9 1 9 10
M  V30 10 2 10 11
M  V30 11 1 11 12
M  V30 12 2 12 13
M  V30 13 1 13 14
M  V30 14 1 14 15
M  V30 15 1 15 16
M  V30 16 2 16 17
M  V30 17 1 16 18
M  V30 18 1 18 19
M  V30 19 2 19 20
M  V30 20 1 20 21
M  V30 21 2 21 22
M  V30 22 1 22 23
M  V30 23 2 23 24
M  V30 24 1 24 25
M  V30 25 2 25 26
M  V30 26 1 26 27
M  V30 27 2 27 28
M  V30 28 2 14 29
M  V30 29 1 9 5
M  V30 30 1 29 10
M  V30 31 1 28 19
M  V30 32 1 28 23
M  V30 33 1 1 30
M  V30 34 1 1 31
M  V30 35 1 1 32
M  V30 36 1 2 33 CFG=1
M  V30 37 1 3 34
M  V30 38 1 3 35
M  V30 39 1 4 36
M  V30 40 1 6 37
M  V30 41 1 11 38
M  V30 42 1 12 39
M  V30 43 1 13 40
M  V30 44 1 15 41
M  V30 45 1 18 42
M  V30 46 1 21 43
M  V30 47 1 22 44
M  V30 48 1 24 45
M  V30 49 1 25 46
M  V30 50 1 26 47
M  V30 51 1 27 48
M  V30 END BOND
M  V30 END CTAB
M  END
>  <Dataset>  (234) 
ChEMBL_Kinases

>  <Ligand_Instance>  (234) 
nan

>  <PDB_ID>  (234) 
nan

>  <Standardized_SMILES>  (234) 
C[C@H](CO)n1cnnc1-c1cccc(NC(=O)Nc2nccc3ccccc23)n1

>  <Name>  (234) 
nan

>  <Pocket>  (234) 
nan

>  <ATP_Site>  (234) 
nan

>  <Peripheral>  (234) 
nan

>  <Num_H_Atoms_ProtBoundConf>  (234) 
nan

>  <Num_Resolved_Atoms>  (234) 
nan

>  <Num_Not_Resolved_Atoms>  (234) 
nan

$$$$
CHEMBL5083405
     RDKit          3D

  0  0  0  0  0  0  0  0  0  0999 V3000
M  V30 BEGIN CTAB
M  V30 COUNTS 65 69 0 0 0
M  V30 BEGIN ATOM
M  V30 1 C 3.000807 0.093583 4.969342 0
M  V30 2 C 3.399480 -1.133458 4.195725 0
M  V30 3 N 2.460346 -1.541818 3.191875 0
M  V30 4 C 1.158822 -2.080229 3.520095 0
M  V30 5 C 0.225817 -1.057515 4.135091 0
M  V30 6 C 2.768618 -1.415751 1.789550 0
M  V30 7 C 3.497627 -2.154150 0.895288 0
M  V30 8 N 3.600495 -1.802254 -0.394686 0
M  V30 9 C 2.999481 -0.708174 -0.891262 0
M  V30 10 C 3.077343 -0.319386 -2.209604 0
M  V30 11 C 2.445804 0.804244 -2.698792 0
M  V30 12 C 1.700930 1.580343 -1.838892 0
M  V30 13 C 0.924304 2.822629 -2.091272 0
M  V30 14 N -0.300265 2.889331 -1.561606 0
M  V30 15 C -1.173763 3.887889 -1.630263 0
M  V30 16 N -2.379117 3.597156 -0.943212 0
M  V30 17 C -2.889403 2.277310 -0.819379 0
M  V30 18 C -2.382998 1.232233 -1.522140 0
M  V30 19 C -2.773359 -0.081226 -1.390386 0
M  V30 20 C -3.758762 -0.405351 -0.476596 0
M  V30 21 C -4.285702 -1.740208 -0.174385 0
M  V30 22 O -5.539707 -1.816075 -0.181803 0
M  V30 23 N -3.222994 -2.680813 0.070411 0
M  V30 24 C -1.779557 -2.796289 0.121260 0
M  V30 25 C -1.319594 -3.897557 -0.834693 0
M  V30 26 N -1.917409 -5.147203 -0.476861 0
M  V30 27 C -2.821959 -5.019262 0.647784 0
M  V30 28 C -3.877484 -3.957721 0.390125 0
M  V30 29 C -4.267337 0.698044 0.234137 0
M  V30 30 N -3.844486 1.989220 0.064395 0
M  V30 31 N -0.746207 4.943337 -2.323754 0
M  V30 32 C 0.473838 4.968319 -2.896343 0
M  V30 33 C 1.375261 3.901871 -2.808798 0
M  V30 34 F 2.590572 3.851536 -3.345674 0
M  V30 35 C 1.635186 1.170885 -0.510950 0
M  V30 36 C 2.246282 0.059818 0.018615 0
M  V30 37 N 2.132447 -0.287459 1.336460 0
M  V30 38 H 3.903998 0.757183 5.122994 0
M  V30 39 H 2.684533 -0.195679 5.991546 0
M  V30 40 H 2.266366 0.746814 4.438986 0
M  V30 41 H 3.609113 -1.965892 4.914848 0
M  V30 42 H 4.376868 -0.946774 3.697192 0
M  V30 43 H 1.286907 -2.873782 4.262542 0
M  V30 44 H 0.638654 -2.482544 2.646751 0
M  V30 45 H 0.026589 -0.186023 3.497277 0
M  V30 46 H 0.518301 -0.729766 5.145913 0
M  V30 47 H -0.752568 -1.606585 4.257635 0
M  V30 48 H 3.931020 -2.992006 1.387371 0
M  V30 49 H 3.652511 -0.902088 -2.912995 0
M  V30 50 H 2.452813 1.177983 -3.697799 0
M  V30 51 H -2.918758 4.374343 -0.510308 0
M  V30 52 H -1.629311 1.284804 -2.282229 0
M  V30 53 H -2.390687 -0.923850 -1.957930 0
M  V30 54 H -1.265089 -1.864867 -0.184808 0
M  V30 55 H -1.416752 -3.026246 1.158522 0
M  V30 56 H -1.624532 -3.630598 -1.855720 0
M  V30 57 H -0.220029 -3.977462 -0.846529 0
M  V30 58 H -2.421923 -5.546767 -1.275679 0
M  V30 59 H -2.252738 -4.807013 1.570453 0
M  V30 60 H -3.335636 -5.996262 0.791198 0
M  V30 61 H -4.561306 -4.246665 -0.411327 0
M  V30 62 H -4.466770 -3.840675 1.338290 0
M  V30 63 H -5.058373 0.493469 0.972998 0
M  V30 64 H 0.785208 5.844401 -3.454816 0
M  V30 65 H 1.067173 1.728896 0.241612 0
M  V30 END ATOM
M  V30 BEGIN BOND
M  V30 1 1 1 2
M  V30 2 1 2 3
M  V30 3 1 3 4
M  V30 4 1 4 5
M  V30 5 1 3 6
M  V30 6 2 6 7
M  V30 7 1 7 8
M  V30 8 2 8 9
M  V30 9 1 9 10
M  V30 10 2 10 11
M  V30 11 1 11 12
M  V30 12 1 12 13
M  V30 13 2 13 14
M  V30 14 1 14 15
M  V30 15 1 15 16
M  V30 16 1 16 17
M  V30 17 2 17 18
M  V30 18 1 18 19
M  V30 19 2 19 20
M  V30 20 1 20 21
M  V30 21 2 21 22
M  V30 22 1 21 23
M  V30 23 1 23 24
M  V30 24 1 24 25
M  V30 25 1 25 26
M  V30 26 1 26 27
M  V30 27 1 27 28
M  V30 28 1 20 29
M  V30 29 2 29 30
M  V30 30 2 15 31
M  V30 31 1 31 32
M  V30 32 2 32 33
M  V30 33 1 33 34
M  V30 34 2 12 35
M  V30 35 1 35 36
M  V30 36 2 36 37
M  V30 37 1 37 6
M  V30 38 1 36 9
M  V30 39 1 33 13
M  V30 40 1 30 17
M  V30 41 1 28 23
M  V30 42 1 1 38
M  V30 43 1 1 39
M  V30 44 1 1 40
M  V30 45 1 2 41
M  V30 46 1 2 42
M  V30 47 1 4 43
M  V30 48 1 4 44
M  V30 49 1 5 45
M  V30 50 1 5 46
M  V30 51 1 5 47
M  V30 52 1 7 48
M  V30 53 1 10 49
M  V30 54 1 11 50
M  V30 55 1 16 51
M  V30 56 1 18 52
M  V30 57 1 19 53
M  V30 58 1 24 54
M  V30 59 1 24 55
M  V30 60 1 25 56
M  V30 61 1 25 57
M  V30 62 1 26 58
M  V30 63 1 27 59
M  V30 64 1 27 60
M  V30 65 1 28 61
M  V30 66 1 28 62
M  V30 67 1 29 63
M  V30 68 1 32 64
M  V30 69 1 35 65
M  V30 END BOND
M  V30 END CTAB
M  END
>  <Dataset>  (235) 
ChEMBL_Kinases

>  <Ligand_Instance>  (235) 
nan

>  <PDB_ID>  (235) 
nan

>  <Standardized_SMILES>  (235) 
CCN(CC)c1cnc2ccc(-c3nc(Nc4ccc(C(=O)N5CCNCC5)cn4)ncc3F)cc2n1

>  <Name>  (235) 
nan

>  <Pocket>  (235) 
nan

>  <ATP_Site>  (235) 
nan

>  <Peripheral>  (235) 
nan

>  <Num_H_Atoms_ProtBoundConf>  (235) 
nan

>  <Num_Resolved_Atoms>  (235) 
nan

>  <Num_Not_Resolved_Atoms>  (235) 
nan

$$$$
CHEMBL4759911
     RDKit          3D

  0  0  0  0  0  0  0  0  0  0999 V3000
M  V30 BEGIN CTAB
M  V30 COUNTS 52 56 0 0 0
M  V30 BEGIN ATOM
M  V30 1 C 4.908419 -0.828217 -0.895442 0
M  V30 2 C 4.591358 -1.769683 0.209701 0
M  V30 3 C 5.072850 -3.061861 0.151238 0
M  V30 4 C 4.775667 -3.929545 1.176771 0
M  V30 5 C 4.017214 -3.534758 2.243426 0
M  V30 6 C 3.503998 -2.237648 2.353020 0
M  V30 7 N 2.730131 -1.839793 3.465149 0
M  V30 8 C 2.103452 -0.560236 3.728068 0
M  V30 9 C 1.026293 -0.264069 2.745927 0
M  V30 10 N 0.866652 0.341661 1.578643 0
M  V30 11 C -0.394905 0.299685 1.126235 0
M  V30 12 C -0.859080 0.880745 -0.123905 0
M  V30 13 C -1.803003 1.888458 0.003473 0
M  V30 14 C -2.262969 2.458995 -1.171608 0
M  V30 15 C -1.817800 2.059543 -2.414813 0
M  V30 16 N -2.117136 2.460749 -3.651749 0
M  V30 17 N -1.415240 1.761469 -4.529187 0
M  V30 18 C -0.622978 0.867278 -3.877433 0
M  V30 19 C -0.866364 1.041887 -2.511094 0
M  V30 20 C -0.405544 0.471780 -1.357664 0
M  V30 21 C -1.121965 -0.387415 2.070044 0
M  V30 22 C -2.548199 -0.662632 1.972414 0
M  V30 23 C -3.408275 -0.170414 2.936406 0
M  V30 24 C -4.747185 -0.487184 2.752298 0
M  V30 25 C -5.145680 -1.246479 1.662881 0
M  V30 26 C -4.202248 -1.697420 0.743804 0
M  V30 27 C -4.622422 -2.513243 -0.430161 0
M  V30 28 N -2.893618 -1.410160 0.888982 0
M  V30 29 N -0.236494 -0.708167 3.023702 0
M  V30 30 C 3.832008 -1.414804 1.301966 0
M  V30 31 H 4.846826 0.225366 -0.500946 0
M  V30 32 H 5.950327 -0.964725 -1.270349 0
M  V30 33 H 4.236965 -0.905908 -1.752639 0
M  V30 34 H 5.672661 -3.442810 -0.649736 0
M  V30 35 H 5.133437 -4.952309 1.171120 0
M  V30 36 H 3.798118 -4.242164 3.039808 0
M  V30 37 H 2.590255 -2.586877 4.210986 0
M  V30 38 H 2.874357 0.264486 3.713440 0
M  V30 39 H 1.698873 -0.530084 4.757970 0
M  V30 40 H -2.163897 2.213884 0.976104 0
M  V30 41 H -2.997490 3.247845 -1.134885 0
M  V30 42 H -2.799193 3.211905 -3.925734 0
M  V30 43 H 0.083028 0.128155 -4.209819 0
M  V30 44 H 0.325470 -0.311584 -1.403462 0
M  V30 45 H -2.991250 0.407317 3.739313 0
M  V30 46 H -5.433225 -0.110341 3.496462 0
M  V30 47 H -6.206819 -1.483974 1.538407 0
M  V30 48 H -5.705128 -2.690172 -0.394138 0
M  V30 49 H -4.065241 -3.483296 -0.345786 0
M  V30 50 H -4.322074 -2.041135 -1.389828 0
M  V30 51 H -0.599520 -1.253428 3.861533 0
M  V30 52 H 3.500921 -0.405215 1.284772 0
M  V30 END ATOM
M  V30 BEGIN BOND
M  V30 1 1 1 2
M  V30 2 2 2 3
M  V30 3 1 3 4
M  V30 4 2 4 5
M  V30 5 1 5 6
M  V30 6 1 6 7
M  V30 7 1 7 8
M  V30 8 1 8 9
M  V30 9 2 9 10
M  V30 10 1 10 11
M  V30 11 1 11 12
M  V30 12 2 12 13
M  V30 13 1 13 14
M  V30 14 2 14 15
M  V30 15 1 15 16
M  V30 16 1 16 17
M  V30 17 2 17 18
M  V30 18 1 18 19
M  V30 19 2 19 20
M  V30 20 2 11 21
M  V30 21 1 21 22
M  V30 22 2 22 23
M  V30 23 1 23 24
M  V30 24 2 24 25
M  V30 25 1 25 26
M  V30 26 1 26 27
M  V30 27 2 26 28
M  V30 28 1 21 29
M  V30 29 2 6 30
M  V30 30 1 30 2
M  V30 31 1 29 9
M  V30 32 1 20 12
M  V30 33 1 28 22
M  V30 34 1 19 15
M  V30 35 1 1 31
M  V30 36 1 1 32
M  V30 37 1 1 33
M  V30 38 1 3 34
M  V30 39 1 4 35
M  V30 40 1 5 36
M  V30 41 1 7 37
M  V30 42 1 8 38
M  V30 43 1 8 39
M  V30 44 1 13 40
M  V30 45 1 14 41
M  V30 46 1 16 42
M  V30 47 1 18 43
M  V30 48 1 20 44
M  V30 49 1 23 45
M  V30 50 1 24 46
M  V30 51 1 25 47
M  V30 52 1 27 48
M  V30 53 1 27 49
M  V30 54 1 27 50
M  V30 55 1 29 51
M  V30 56 1 30 52
M  V30 END BOND
M  V30 END CTAB
M  END
>  <Dataset>  (236) 
ChEMBL_Kinases

>  <Ligand_Instance>  (236) 
nan

>  <PDB_ID>  (236) 
nan

>  <Standardized_SMILES>  (236) 
Cc1cccc(NCc2nc(-c3ccc4[nH]ncc4c3)c(-c3cccc(C)n3)[nH]2)c1

>  <Name>  (236) 
nan

>  <Pocket>  (236) 
nan

>  <ATP_Site>  (236) 
nan

>  <Peripheral>  (236) 
nan

>  <Num_H_Atoms_ProtBoundConf>  (236) 
nan

>  <Num_Resolved_Atoms>  (236) 
nan

>  <Num_Not_Resolved_Atoms>  (236) 
nan

$$$$
CHEMBL185288
     RDKit          3D

  0  0  0  0  0  0  0  0  0  0999 V3000
M  V30 BEGIN CTAB
M  V30 COUNTS 28 30 0 0 0
M  V30 BEGIN ATOM
M  V30 1 N -1.975059 -2.914923 1.257922 0
M  V30 2 C -1.039366 -3.458610 2.175806 0
M  V30 3 O -1.316701 -4.506832 2.813832 0
M  V30 4 C 0.246746 -2.800777 2.380042 0
M  V30 5 C 1.149832 -3.349439 3.283927 0
M  V30 6 C 2.343607 -2.671414 3.422757 0
M  V30 7 C 2.700233 -1.521300 2.751174 0
M  V30 8 C 1.775527 -0.997420 1.854183 0
M  V30 9 N 1.794460 0.084782 1.050097 0
M  V30 10 C 0.627907 0.134601 0.378348 0
M  V30 11 C 0.183202 1.118169 -0.603599 0
M  V30 12 C -1.047963 1.051970 -1.223162 0
M  V30 13 C -1.462155 1.988032 -2.152777 0
M  V30 14 C -0.569792 3.012185 -2.438315 0
M  V30 15 N 0.630132 3.074912 -1.833123 0
M  V30 16 C 1.034658 2.164898 -0.928366 0
M  V30 17 N -0.122899 -0.913096 0.758549 0
M  V30 18 C 0.554660 -1.652690 1.683500 0
M  V30 19 H -1.895103 -3.381049 0.320651 0
M  V30 20 H -2.668710 -2.159217 1.431008 0
M  V30 21 H 0.943328 -4.240178 3.841945 0
M  V30 22 H 3.071268 -3.064762 4.114382 0
M  V30 23 H 3.655468 -1.040344 2.908611 0
M  V30 24 H 2.573878 0.766277 0.961028 0
M  V30 25 H -1.658445 0.208139 -0.920066 0
M  V30 26 H -2.439532 1.870196 -2.595497 0
M  V30 27 H -0.884692 3.744319 -3.160486 0
M  V30 28 H 2.001117 2.200584 -0.429760 0
M  V30 END ATOM
M  V30 BEGIN BOND
M  V30 1 1 1 2
M  V30 2 2 2 3
M  V30 3 1 2 4
M  V30 4 2 4 5
M  V30 5 1 5 6
M  V30 6 2 6 7
M  V30 7 1 7 8
M  V30 8 1 8 9
M  V30 9 1 9 10
M  V30 10 1 10 11
M  V30 11 2 11 12
M  V30 12 1 12 13
M  V30 13 2 13 14
M  V30 14 1 14 15
M  V30 15 2 15 16
M  V30 16 2 10 17
M  V30 17 1 17 18
M  V30 18 1 18 4
M  V30 19 2 18 8
M  V30 20 1 16 11
M  V30 21 1 1 19
M  V30 22 1 1 20
M  V30 23 1 5 21
M  V30 24 1 6 22
M  V30 25 1 7 23
M  V30 26 1 9 24
M  V30 27 1 12 25
M  V30 28 1 13 26
M  V30 29 1 14 27
M  V30 30 1 16 28
M  V30 END BOND
M  V30 END CTAB
M  END
>  <Dataset>  (237) 
ChEMBL_Kinases

>  <Ligand_Instance>  (237) 
nan

>  <PDB_ID>  (237) 
nan

>  <Standardized_SMILES>  (237) 
NC(=O)c1cccc2[nH]c(-c3cccnc3)nc12

>  <Name>  (237) 
nan

>  <Pocket>  (237) 
nan

>  <ATP_Site>  (237) 
nan

>  <Peripheral>  (237) 
nan

>  <Num_H_Atoms_ProtBoundConf>  (237) 
nan

>  <Num_Resolved_Atoms>  (237) 
nan

>  <Num_Not_Resolved_Atoms>  (237) 
nan

$$$$
CHEMBL4760245
     RDKit          3D

  0  0  0  0  0  0  0  0  0  0999 V3000
M  V30 BEGIN CTAB
M  V30 COUNTS 43 46 0 0 0
M  V30 BEGIN ATOM
M  V30 1 C -0.265048 -4.600827 -0.254931 0
M  V30 2 C 0.112593 -3.212366 0.108719 0
M  V30 3 C 1.357178 -2.773318 -0.286793 0
M  V30 4 C 1.716918 -1.480794 0.047828 0
M  V30 5 N 3.003021 -1.066798 -0.375145 0
M  V30 6 C 3.340539 -0.000356 -1.245048 0
M  V30 7 C 2.395765 0.764658 -1.883258 0
M  V30 8 C 2.815794 1.772669 -2.700134 0
M  V30 9 N 4.107209 2.044880 -2.903830 0
M  V30 10 N 5.015906 1.290701 -2.275110 0
M  V30 11 C 4.669603 0.281697 -1.456305 0
M  V30 12 C 0.813860 -0.691098 0.764189 0
M  V30 13 O 1.306747 0.446279 0.973028 0
M  V30 14 N -0.412862 -1.064560 1.180486 0
M  V30 15 C -0.686170 -2.329982 0.811886 0
M  V30 16 C -2.083186 -2.666423 1.175299 0
M  V30 17 O -2.848017 -3.631618 1.093656 0
M  V30 18 N -2.531650 -1.453012 1.766730 0
M  V30 19 C -1.448147 -0.459078 1.941828 0
M  V30 20 C -1.181543 -0.554823 3.421917 0
M  V30 21 C -0.106559 0.389581 3.811563 0
M  V30 22 C -0.424675 1.768612 3.405202 0
M  V30 23 C -1.137275 2.014000 2.146296 0
M  V30 24 C -1.865994 0.889065 1.535030 0
M  V30 25 H -0.934894 -4.963694 0.561541 0
M  V30 26 H -0.823297 -4.640163 -1.201615 0
M  V30 27 H 0.643134 -5.233531 -0.218923 0
M  V30 28 H 2.007660 -3.417813 -0.830018 0
M  V30 29 H 3.736560 -1.669037 0.048515 0
M  V30 30 H 1.349632 0.589548 -1.758036 0
M  V30 31 H 2.116018 2.399099 -3.221558 0
M  V30 32 H 5.449029 -0.312526 -0.960021 0
M  V30 33 H -3.472839 -1.123828 2.101922 0
M  V30 34 H -2.139730 -0.307895 3.971286 0
M  V30 35 H -0.925026 -1.624642 3.620327 0
M  V30 36 H 0.883701 -0.013143 3.506179 0
M  V30 37 H -0.119978 0.385497 4.964400 0
M  V30 38 H -0.981749 2.271607 4.257333 0
M  V30 39 H 0.559602 2.336956 3.415192 0
M  V30 40 H -0.431598 2.510980 1.416531 0
M  V30 41 H -1.898785 2.835315 2.313980 0
M  V30 42 H -2.971611 0.956131 1.681445 0
M  V30 43 H -1.734867 0.964667 0.417208 0
M  V30 END ATOM
M  V30 BEGIN BOND
M  V30 1 1 1 2
M  V30 2 1 2 3
M  V30 3 2 3 4
M  V30 4 1 4 5
M  V30 5 1 5 6
M  V30 6 2 6 7
M  V30 7 1 7 8
M  V30 8 2 8 9
M  V30 9 1 9 10
M  V30 10 2 10 11
M  V30 11 1 4 12
M  V30 12 2 12 13
M  V30 13 1 12 14
M  V30 14 1 14 15
M  V30 15 1 15 16
M  V30 16 2 16 17
M  V30 17 1 16 18
M  V30 18 1 18 19
M  V30 19 1 19 20
M  V30 20 1 20 21
M  V30 21 1 21 22
M  V30 22 1 22 23
M  V30 23 1 23 24
M  V30 24 2 15 2
M  V30 25 1 24 19
M  V30 26 1 11 6
M  V30 27 1 19 14
M  V30 28 1 1 25
M  V30 29 1 1 26
M  V30 30 1 1 27
M  V30 31 1 3 28
M  V30 32 1 5 29
M  V30 33 1 7 30
M  V30 34 1 8 31
M  V30 35 1 11 32
M  V30 36 1 18 33
M  V30 37 1 20 34
M  V30 38 1 20 35
M  V30 39 1 21 36
M  V30 40 1 21 37
M  V30 41 1 22 38
M  V30 42 1 22 39
M  V30 43 1 23 40
M  V30 44 1 23 41
M  V30 45 1 24 42
M  V30 46 1 24 43
M  V30 END BOND
M  V30 END CTAB
M  END
>  <Dataset>  (238) 
ChEMBL_Kinases

>  <Ligand_Instance>  (238) 
nan

>  <PDB_ID>  (238) 
nan

>  <Standardized_SMILES>  (238) 
Cc1cc(Nc2ccnnc2)c(=O)n2c1C(=O)NC21CCCCC1

>  <Name>  (238) 
nan

>  <Pocket>  (238) 
nan

>  <ATP_Site>  (238) 
nan

>  <Peripheral>  (238) 
nan

>  <Num_H_Atoms_ProtBoundConf>  (238) 
nan

>  <Num_Resolved_Atoms>  (238) 
nan

>  <Num_Not_Resolved_Atoms>  (238) 
nan

$$$$
CHEMBL5085698
     RDKit          3D

  0  0  0  0  0  0  0  0  0  0999 V3000
M  V30 BEGIN CTAB
M  V30 COUNTS 53 56 0 0 0
M  V30 BEGIN ATOM
M  V30 1 C 0.048980 -2.504468 0.927496 0
M  V30 2 C 1.409971 -2.678969 1.053259 0
M  V30 3 C 2.154453 -1.677334 1.630027 0
M  V30 4 C 3.641833 -1.811733 1.792157 0
M  V30 5 N 4.237772 -1.278258 0.613809 0
M  V30 6 C 3.860577 -1.939756 -0.596891 0
M  V30 7 C 4.731904 -1.604604 -1.766087 0
M  V30 8 O 5.365400 -0.383462 -1.659233 0
M  V30 9 C 5.983471 -0.123131 -0.467934 0
M  V30 10 C 5.652037 -1.096864 0.643839 0
M  V30 11 C 1.565849 -0.527010 2.073382 0
M  V30 12 C 0.209868 -0.296361 1.974364 0
M  V30 13 N -0.371687 0.907917 2.444999 0
M  V30 14 C -1.726451 1.325592 2.416689 0
M  V30 15 N -2.078045 2.516771 2.926952 0
M  V30 16 C -3.334958 2.969616 2.931040 0
M  V30 17 C -4.339843 2.197850 2.392007 0
M  V30 18 C -4.020584 0.980718 1.863860 0
M  V30 19 N -5.076707 0.222592 1.323094 0
M  V30 20 C -5.263021 0.534919 -0.062418 0
M  V30 21 C -4.089652 0.265857 -0.942298 0
M  V30 22 C -3.668544 -1.145050 -0.952400 0
M  V30 23 C -2.603997 -1.587719 -1.706914 0
M  V30 24 N -2.504179 -2.907816 -1.481042 0
M  V30 25 C -3.478149 -3.263865 -0.614159 0
M  V30 26 N -4.195507 -2.168214 -0.290688 0
M  V30 27 N -2.750385 0.631248 1.911464 0
M  V30 28 C -0.492896 -1.326584 1.390626 0
M  V30 29 H -0.540187 -3.289619 0.474848 0
M  V30 30 H 1.862408 -3.594363 0.698171 0
M  V30 31 H 3.837329 -2.915653 1.891361 0
M  V30 32 H 3.998923 -1.336842 2.706872 0
M  V30 33 H 3.893477 -3.043915 -0.451194 0
M  V30 34 H 2.771394 -1.703508 -0.770586 0
M  V30 35 H 5.418275 -2.437215 -1.992826 0
M  V30 36 H 4.036322 -1.529098 -2.651145 0
M  V30 37 H 7.078006 0.042247 -0.553853 0
M  V30 38 H 5.559791 0.862005 -0.111661 0
M  V30 39 H 5.983367 -0.631731 1.594069 0
M  V30 40 H 6.164795 -2.051501 0.414200 0
M  V30 41 H 2.194415 0.245765 2.526644 0
M  V30 42 H 0.312996 1.593966 2.882083 0
M  V30 43 H -3.535546 3.944152 3.362998 0
M  V30 44 H -5.342085 2.581546 2.406119 0
M  V30 45 H -5.599365 -0.455657 1.932588 0
M  V30 46 H -5.446329 1.647886 -0.126418 0
M  V30 47 H -6.207441 0.086393 -0.428541 0
M  V30 48 H -4.335274 0.621124 -1.957525 0
M  V30 49 H -3.237082 0.859440 -0.560015 0
M  V30 50 H -1.943255 -1.054126 -2.362699 0
M  V30 51 H -3.646840 -4.262254 -0.246709 0
M  V30 52 H -5.004159 -2.167774 0.360279 0
M  V30 53 H -1.555377 -1.257130 1.261545 0
M  V30 END ATOM
M  V30 BEGIN BOND
M  V30 1 2 1 2
M  V30 2 1 2 3
M  V30 3 1 3 4
M  V30 4 1 4 5
M  V30 5 1 5 6
M  V30 6 1 6 7
M  V30 7 1 7 8
M  V30 8 1 8 9
M  V30 9 1 9 10
M  V30 10 2 3 11
M  V30 11 1 11 12
M  V30 12 1 12 13
M  V30 13 1 13 14
M  V30 14 2 14 15
M  V30 15 1 15 16
M  V30 16 2 16 17
M  V30 17 1 17 18
M  V30 18 1 18 19
M  V30 19 1 19 20
M  V30 20 1 20 21
M  V30 21 1 21 22
M  V30 22 2 22 23
M  V30 23 1 23 24
M  V30 24 2 24 25
M  V30 25 1 25 26
M  V30 26 2 18 27
M  V30 27 2 12 28
M  V30 28 1 28 1
M  V30 29 1 10 5
M  V30 30 1 27 14
M  V30 31 1 26 22
M  V30 32 1 1 29
M  V30 33 1 2 30
M  V30 34 1 4 31
M  V30 35 1 4 32
M  V30 36 1 6 33
M  V30 37 1 6 34
M  V30 38 1 7 35
M  V30 39 1 7 36
M  V30 40 1 9 37
M  V30 41 1 9 38
M  V30 42 1 10 39
M  V30 43 1 10 40
M  V30 44 1 11 41
M  V30 45 1 13 42
M  V30 46 1 16 43
M  V30 47 1 17 44
M  V30 48 1 19 45
M  V30 49 1 20 46
M  V30 50 1 20 47
M  V30 51 1 21 48
M  V30 52 1 21 49
M  V30 53 1 23 50
M  V30 54 1 25 51
M  V30 55 1 26 52
M  V30 56 1 28 53
M  V30 END BOND
M  V30 END CTAB
M  END
>  <Dataset>  (239) 
ChEMBL_Kinases

>  <Ligand_Instance>  (239) 
nan

>  <PDB_ID>  (239) 
nan

>  <Standardized_SMILES>  (239) 
c1cc(CN2CCOCC2)cc(Nc2nccc(NCCc3cnc[nH]3)n2)c1

>  <Name>  (239) 
nan

>  <Pocket>  (239) 
nan

>  <ATP_Site>  (239) 
nan

>  <Peripheral>  (239) 
nan

>  <Num_H_Atoms_ProtBoundConf>  (239) 
nan

>  <Num_Resolved_Atoms>  (239) 
nan

>  <Num_Not_Resolved_Atoms>  (239) 
nan

$$$$
CHEMBL5085656
     RDKit          3D

  0  0  0  0  0  0  0  0  0  0999 V3000
M  V30 BEGIN CTAB
M  V30 COUNTS 38 41 0 0 0
M  V30 BEGIN ATOM
M  V30 1 C 2.071775 -2.040460 5.341408 0
M  V30 2 C 1.348208 -1.270747 4.289884 0
M  V30 3 N 1.542703 -1.607056 3.001341 0
M  V30 4 C 0.913672 -0.946276 1.984488 0
M  V30 5 O 1.114706 -1.294561 0.666672 0
M  V30 6 C 2.002791 -2.369043 0.386660 0
M  V30 7 C 2.043928 -2.543136 -1.111539 0
M  V30 8 C 1.107501 -3.457183 -1.778555 0
M  V30 9 S 1.686712 -3.182164 -3.538664 0
M  V30 10 C 3.015503 -1.947037 -3.056270 0
M  V30 11 N 2.998500 -1.771463 -1.630248 0
M  V30 12 C 0.080015 0.074309 2.390225 0
M  V30 13 C -0.657308 0.873103 1.540047 0
M  V30 14 C -0.853106 1.012991 0.103682 0
M  V30 15 C 0.086355 1.116522 -0.900900 0
M  V30 16 C -0.322640 1.230790 -2.212547 0
M  V30 17 N -1.615739 1.247011 -2.568241 0
M  V30 18 C -2.579610 1.150774 -1.643011 0
M  V30 19 N -3.957806 1.165733 -1.994379 0
M  V30 20 C -2.184761 1.036239 -0.332405 0
M  V30 21 C -1.335578 1.742727 2.403412 0
M  V30 22 N -1.016304 1.472493 3.682310 0
M  V30 23 C -0.144693 0.447668 3.700105 0
M  V30 24 N 0.516670 -0.257684 4.641696 0
M  V30 25 H 3.123637 -2.125092 5.020420 0
M  V30 26 H 1.920666 -1.595239 6.333570 0
M  V30 27 H 1.665028 -3.087011 5.316367 0
M  V30 28 H 1.588655 -3.335304 0.805862 0
M  V30 29 H 2.975842 -2.264831 0.855232 0
M  V30 30 H 0.401156 -4.007921 -1.250445 0
M  V30 31 H 3.688598 -1.443822 -3.728135 0
M  V30 32 H 1.097164 1.107049 -0.578647 0
M  V30 33 H 0.486500 1.307724 -2.946872 0
M  V30 34 H -4.440109 2.036693 -2.268664 0
M  V30 35 H -4.514887 0.269078 -1.978617 0
M  V30 36 H -3.002842 0.959246 0.401387 0
M  V30 37 H -2.038737 2.551389 2.173370 0
M  V30 38 H -1.337450 1.923362 4.562183 0
M  V30 END ATOM
M  V30 BEGIN BOND
M  V30 1 1 1 2
M  V30 2 2 2 3
M  V30 3 1 3 4
M  V30 4 1 4 5
M  V30 5 1 5 6
M  V30 6 1 6 7
M  V30 7 2 7 8
M  V30 8 1 8 9
M  V30 9 1 9 10
M  V30 10 2 10 11
M  V30 11 2 4 12
M  V30 12 1 12 13
M  V30 13 1 13 14
M  V30 14 2 14 15
M  V30 15 1 15 16
M  V30 16 2 16 17
M  V30 17 1 17 18
M  V30 18 1 18 19
M  V30 19 2 18 20
M  V30 20 2 13 21
M  V30 21 1 21 22
M  V30 22 1 22 23
M  V30 23 2 23 24
M  V30 24 1 24 2
M  V30 25 1 11 7
M  V30 26 1 23 12
M  V30 27 1 20 14
M  V30 28 1 1 25
M  V30 29 1 1 26
M  V30 30 1 1 27
M  V30 31 1 6 28
M  V30 32 1 6 29
M  V30 33 1 8 30
M  V30 34 1 10 31
M  V30 35 1 15 32
M  V30 36 1 16 33
M  V30 37 1 19 34
M  V30 38 1 19 35
M  V30 39 1 20 36
M  V30 40 1 21 37
M  V30 41 1 22 38
M  V30 END BOND
M  V30 END CTAB
M  END
>  <Dataset>  (240) 
ChEMBL_Kinases

>  <Ligand_Instance>  (240) 
nan

>  <PDB_ID>  (240) 
nan

>  <Standardized_SMILES>  (240) 
Cc1nc(OCc2cscn2)c2c(-c3ccnc(N)c3)c[nH]c2n1

>  <Name>  (240) 
nan

>  <Pocket>  (240) 
nan

>  <ATP_Site>  (240) 
nan

>  <Peripheral>  (240) 
nan

>  <Num_H_Atoms_ProtBoundConf>  (240) 
nan

>  <Num_Resolved_Atoms>  (240) 
nan

>  <Num_Not_Resolved_Atoms>  (240) 
nan

$$$$
CHEMBL184649
     RDKit          3D

  0  0  0  0  0  0  0  0  0  0999 V3000
M  V30 BEGIN CTAB
M  V30 COUNTS 50 53 0 0 0
M  V30 BEGIN ATOM
M  V30 1 C -0.849536 -1.836264 5.438291 0
M  V30 2 N 0.364450 -1.886282 4.631733 0
M  V30 3 C 1.012257 -3.144893 4.951561 0
M  V30 4 C -0.057892 -1.854066 3.247880 0
M  V30 5 C 1.078230 -1.897514 2.263951 0
M  V30 6 N 0.472943 -1.856485 0.925984 0
M  V30 7 C 0.189027 -0.740954 0.205701 0
M  V30 8 C -0.384675 -1.089739 -1.022910 0
M  V30 9 C -0.790742 -0.105913 -2.012403 0
M  V30 10 C -0.008172 0.932840 -2.251460 0
M  V30 11 N 1.244419 1.529928 -1.855591 0
M  V30 12 C 1.245194 2.565954 -0.869414 0
M  V30 13 C 2.392255 3.221398 -0.425848 0
M  V30 14 C 2.301733 4.201143 0.526641 0
M  V30 15 C 1.102836 4.577533 1.079011 0
M  V30 16 C -0.062205 3.959386 0.674092 0
M  V30 17 C 0.055345 2.974989 -0.287191 0
M  V30 18 C -0.641414 1.782109 -3.282603 0
M  V30 19 O -0.399361 2.866771 -3.910644 0
M  V30 20 N -1.893387 1.175868 -3.664022 0
M  V30 21 C -1.972974 -0.010216 -2.856375 0
M  V30 22 O -2.913252 -0.843385 -2.867481 0
M  V30 23 C -0.411533 -2.465637 -0.962993 0
M  V30 24 C -0.877891 -3.342059 -1.918817 0
M  V30 25 C -0.840367 -4.707022 -1.724370 0
M  V30 26 C -0.304266 -5.142289 -0.507844 0
M  V30 27 C 0.174533 -4.286423 0.476124 0
M  V30 28 C 0.108114 -2.940071 0.218983 0
M  V30 29 H -0.852834 -0.831895 5.946105 0
M  V30 30 H -0.912139 -2.656971 6.161965 0
M  V30 31 H -1.771371 -1.895517 4.819298 0
M  V30 32 H 0.900519 -3.889890 4.136351 0
M  V30 33 H 2.086611 -3.026837 5.136083 0
M  V30 34 H 0.572764 -3.636454 5.849967 0
M  V30 35 H -0.643619 -0.932591 3.062104 0
M  V30 36 H -0.745003 -2.698152 3.033230 0
M  V30 37 H 1.768357 -1.042618 2.367232 0
M  V30 38 H 1.673157 -2.820915 2.357881 0
M  V30 39 H 0.410038 0.231834 0.608544 0
M  V30 40 H 2.195114 1.274254 -2.230369 0
M  V30 41 H 3.300148 2.871236 -0.906644 0
M  V30 42 H 3.227559 4.676219 0.833163 0
M  V30 43 H 1.048317 5.364427 1.841916 0
M  V30 44 H -1.026507 4.232524 1.090512 0
M  V30 45 H -0.856856 2.474916 -0.619214 0
M  V30 46 H -2.654140 1.420424 -4.340202 0
M  V30 47 H -1.286755 -3.009385 -2.858896 0
M  V30 48 H -1.181490 -5.461753 -2.413597 0
M  V30 49 H -0.260714 -6.226401 -0.322367 0
M  V30 50 H 0.576696 -4.696601 1.396221 0
M  V30 END ATOM
M  V30 BEGIN BOND
M  V30 1 1 1 2
M  V30 2 1 2 3
M  V30 3 1 2 4
M  V30 4 1 4 5
M  V30 5 1 5 6
M  V30 6 1 6 7
M  V30 7 2 7 8
M  V30 8 1 8 9
M  V30 9 2 9 10
M  V30 10 1 10 11
M  V30 11 1 11 12
M  V30 12 2 12 13
M  V30 13 1 13 14
M  V30 14 2 14 15
M  V30 15 1 15 16
M  V30 16 2 16 17
M  V30 17 1 10 18
M  V30 18 2 18 19
M  V30 19 1 18 20
M  V30 20 1 20 21
M  V30 21 2 21 22
M  V30 22 1 8 23
M  V30 23 2 23 24
M  V30 24 1 24 25
M  V30 25 2 25 26
M  V30 26 1 26 27
M  V30 27 2 27 28
M  V30 28 1 28 6
M  V30 29 1 21 9
M  V30 30 1 28 23
M  V30 31 1 17 12
M  V30 32 1 1 29
M  V30 33 1 1 30
M  V30 34 1 1 31
M  V30 35 1 3 32
M  V30 36 1 3 33
M  V30 37 1 3 34
M  V30 38 1 4 35
M  V30 39 1 4 36
M  V30 40 1 5 37
M  V30 41 1 5 38
M  V30 42 1 7 39
M  V30 43 1 11 40
M  V30 44 1 13 41
M  V30 45 1 14 42
M  V30 46 1 15 43
M  V30 47 1 16 44
M  V30 48 1 17 45
M  V30 49 1 20 46
M  V30 50 1 24 47
M  V30 51 1 25 48
M  V30 52 1 26 49
M  V30 53 1 27 50
M  V30 END BOND
M  V30 END CTAB
M  END
>  <Dataset>  (241) 
ChEMBL_Kinases

>  <Ligand_Instance>  (241) 
nan

>  <PDB_ID>  (241) 
nan

>  <Standardized_SMILES>  (241) 
CN(C)CCn1cc(C2=C(Nc3ccccc3)C(=O)NC2=O)c2ccccc21

>  <Name>  (241) 
nan

>  <Pocket>  (241) 
nan

>  <ATP_Site>  (241) 
nan

>  <Peripheral>  (241) 
nan

>  <Num_H_Atoms_ProtBoundConf>  (241) 
nan

>  <Num_Resolved_Atoms>  (241) 
nan

>  <Num_Not_Resolved_Atoms>  (241) 
nan

$$$$
CHEMBL184146
     RDKit          3D

  0  0  0  0  0  0  0  0  0  0999 V3000
M  V30 BEGIN CTAB
M  V30 COUNTS 62 66 0 0 0
M  V30 BEGIN ATOM
M  V30 1 C 0.098541 0.695820 5.083935 0
M  V30 2 N 1.118893 -0.234086 5.535370 0
M  V30 3 C 2.451675 0.358643 5.389249 0
M  V30 4 C 2.862808 0.317177 3.910413 0
M  V30 5 N 2.888692 -1.006187 3.446366 0
M  V30 6 C 3.662065 -1.349621 2.328165 0
M  V30 7 C 3.049802 -0.723082 1.056921 0
M  V30 8 C 1.684880 -1.314804 0.959202 0
M  V30 9 N 0.883141 -0.891894 -0.136449 0
M  V30 10 C 0.011134 0.129468 -0.116476 0
M  V30 11 C -0.611960 0.240533 -1.366088 0
M  V30 12 C -1.614803 1.252700 -1.662683 0
M  V30 13 C -2.779315 1.248599 -2.333390 0
M  V30 14 N -3.414508 0.163537 -2.997924 0
M  V30 15 C -3.815267 -1.059654 -2.393984 0
M  V30 16 C -3.651386 -1.306367 -1.047671 0
M  V30 17 C -4.039723 -2.519104 -0.464336 0
M  V30 18 C -4.601131 -3.474581 -1.294336 0
M  V30 19 C -4.767753 -3.226503 -2.656523 0
M  V30 20 C -4.377363 -2.031346 -3.192520 0
M  V30 21 C -3.378601 2.576114 -2.312450 0
M  V30 22 O -4.475164 2.927534 -2.846464 0
M  V30 23 N -2.540161 3.455762 -1.588449 0
M  V30 24 C -1.450138 2.644674 -1.185427 0
M  V30 25 O -0.484269 3.122813 -0.499672 0
M  V30 26 C -0.039469 -0.778160 -2.095483 0
M  V30 27 C -0.262925 -1.138947 -3.385985 0
M  V30 28 C 0.380929 -2.182355 -4.012183 0
M  V30 29 C 1.308153 -2.875306 -3.223993 0
M  V30 30 C 1.562338 -2.538363 -1.911035 0
M  V30 31 C 0.880868 -1.478863 -1.344882 0
M  V30 32 C 2.355160 -1.961802 4.309965 0
M  V30 33 C 1.017669 -1.516898 4.906124 0
M  V30 34 H -0.868034 0.544963 5.602546 0
M  V30 35 H 0.471578 1.709255 5.373543 0
M  V30 36 H -0.050556 0.682088 3.993939 0
M  V30 37 H 3.139859 -0.261184 5.994103 0
M  V30 38 H 2.421653 1.379737 5.791641 0
M  V30 39 H 3.840389 0.856599 3.891068 0
M  V30 40 H 2.104412 0.936817 3.374512 0
M  V30 41 H 4.718605 -0.954820 2.413576 0
M  V30 42 H 3.782420 -2.429912 2.209475 0
M  V30 43 H 3.677004 -0.854954 0.181681 0
M  V30 44 H 2.986785 0.363586 1.272466 0
M  V30 45 H 1.132932 -1.070004 1.897175 0
M  V30 46 H 1.720374 -2.423403 0.941116 0
M  V30 47 H -0.162318 0.753514 0.750823 0
M  V30 48 H -3.575466 0.338275 -4.013619 0
M  V30 49 H -3.216993 -0.568373 -0.396186 0
M  V30 50 H -3.921763 -2.738132 0.588687 0
M  V30 51 H -4.915774 -4.428271 -0.881273 0
M  V30 52 H -5.208908 -3.994122 -3.278095 0
M  V30 53 H -4.530105 -1.903380 -4.239149 0
M  V30 54 H -2.675142 4.465433 -1.387569 0
M  V30 55 H -0.969981 -0.612839 -4.008648 0
M  V30 56 H 0.212172 -2.485416 -5.046314 0
M  V30 57 H 1.856545 -3.714542 -3.652685 0
M  V30 58 H 2.276844 -3.064568 -1.292392 0
M  V30 59 H 2.989398 -2.185103 5.214374 0
M  V30 60 H 2.162714 -2.963915 3.851373 0
M  V30 61 H 0.625817 -2.305877 5.581310 0
M  V30 62 H 0.261543 -1.419142 4.098920 0
M  V30 END ATOM
M  V30 BEGIN BOND
M  V30 1 1 1 2
M  V30 2 1 2 3
M  V30 3 1 3 4
M  V30 4 1 4 5
M  V30 5 1 5 6
M  V30 6 1 6 7
M  V30 7 1 7 8
M  V30 8 1 8 9
M  V30 9 1 9 10
M  V30 10 2 10 11
M  V30 11 1 11 12
M  V30 12 2 12 13
M  V30 13 1 13 14
M  V30 14 1 14 15
M  V30 15 2 15 16
M  V30 16 1 16 17
M  V30 17 2 17 18
M  V30 18 1 18 19
M  V30 19 2 19 20
M  V30 20 1 13 21
M  V30 21 2 21 22
M  V30 22 1 21 23
M  V30 23 1 23 24
M  V30 24 2 24 25
M  V30 25 1 11 26
M  V30 26 2 26 27
M  V30 27 1 27 28
M  V30 28 2 28 29
M  V30 29 1 29 30
M  V30 30 2 30 31
M  V30 31 1 5 32
M  V30 32 1 32 33
M  V30 33 1 33 2
M  V30 34 1 31 9
M  V30 35 1 24 12
M  V30 36 1 31 26
M  V30 37 1 20 15
M  V30 38 1 1 34
M  V30 39 1 1 35
M  V30 40 1 1 36
M  V30 41 1 3 37
M  V30 42 1 3 38
M  V30 43 1 4 39
M  V30 44 1 4 40
M  V30 45 1 6 41
M  V30 46 1 6 42
M  V30 47 1 7 43
M  V30 48 1 7 44
M  V30 49 1 8 45
M  V30 50 1 8 46
M  V30 51 1 10 47
M  V30 52 1 14 48
M  V30 53 1 16 49
M  V30 54 1 17 50
M  V30 55 1 18 51
M  V30 56 1 19 52
M  V30 57 1 20 53
M  V30 58 1 23 54
M  V30 59 1 27 55
M  V30 60 1 28 56
M  V30 61 1 29 57
M  V30 62 1 30 58
M  V30 63 1 32 59
M  V30 64 1 32 60
M  V30 65 1 33 61
M  V30 66 1 33 62
M  V30 END BOND
M  V30 END CTAB
M  END
>  <Dataset>  (242) 
ChEMBL_Kinases

>  <Ligand_Instance>  (242) 
nan

>  <PDB_ID>  (242) 
nan

>  <Standardized_SMILES>  (242) 
CN1CCN(CCCn2cc(C3=C(Nc4ccccc4)C(=O)NC3=O)c3ccccc32)CC1

>  <Name>  (242) 
nan

>  <Pocket>  (242) 
nan

>  <ATP_Site>  (242) 
nan

>  <Peripheral>  (242) 
nan

>  <Num_H_Atoms_ProtBoundConf>  (242) 
nan

>  <Num_Resolved_Atoms>  (242) 
nan

>  <Num_Not_Resolved_Atoms>  (242) 
nan

$$$$
CHEMBL184042
     RDKit          3D

  0  0  0  0  0  0  0  0  0  0999 V3000
M  V30 BEGIN CTAB
M  V30 COUNTS 57 61 0 0 0
M  V30 BEGIN ATOM
M  V30 1 O -0.180427 -6.726618 2.027778 0
M  V30 2 C 0.095936 -5.485003 2.028236 0
M  V30 3 N 0.851248 -4.885532 3.066928 0
M  V30 4 C 0.901659 -3.510043 2.641536 0
M  V30 5 O 1.514574 -2.674124 3.352935 0
M  V30 6 C 0.158596 -3.436485 1.370549 0
M  V30 7 C 0.078447 -2.107819 0.788179 0
M  V30 8 C 1.095544 -1.177034 0.573682 0
M  V30 9 N 0.622914 -0.005118 0.016226 0
M  V30 10 C 1.670986 0.955308 -0.128699 0
M  V30 11 C 2.198563 1.647233 1.041137 0
M  V30 12 C 1.489502 2.576816 1.907508 0
M  V30 13 N 1.017523 3.816989 1.416786 0
M  V30 14 C 0.587227 4.573659 2.614711 0
M  V30 15 C -0.701994 3.882856 2.966503 0
M  V30 16 C -1.204221 3.292150 1.639376 0
M  V30 17 C -0.207361 3.850617 0.687147 0
M  V30 18 C -0.684084 -0.283815 -0.086967 0
M  V30 19 C -1.540675 0.642241 -0.628327 0
M  V30 20 C -2.870398 0.296673 -0.722953 0
M  V30 21 C -3.341807 -0.923889 -0.296633 0
M  V30 22 C -2.419967 -1.814576 0.240016 0
M  V30 23 C -1.080092 -1.519055 0.354768 0
M  V30 24 C -0.328263 -4.583663 0.981791 0
M  V30 25 N -1.074108 -4.877869 -0.182269 0
M  V30 26 C -0.607021 -4.789761 -1.509565 0
M  V30 27 C 0.306285 -5.732752 -1.984356 0
M  V30 28 C 0.809494 -5.727332 -3.276646 0
M  V30 29 C 0.384884 -4.728855 -4.152598 0
M  V30 30 C -0.525481 -3.725680 -3.801143 0
M  V30 31 C -0.895841 -3.910897 -2.500963 0
M  V30 32 H 1.253377 -5.330804 3.901851 0
M  V30 33 H 2.098846 -1.532805 0.882538 0
M  V30 34 H 1.302615 1.663755 -0.939114 0
M  V30 35 H 2.553698 0.470773 -0.667533 0
M  V30 36 H 2.583987 0.789230 1.732431 0
M  V30 37 H 3.216744 2.069273 0.731813 0
M  V30 38 H 2.222475 2.861378 2.741681 0
M  V30 39 H 0.704775 2.019442 2.502326 0
M  V30 40 H 1.349010 4.479566 3.410876 0
M  V30 41 H 0.327267 5.618656 2.359851 0
M  V30 42 H -0.591165 3.121914 3.751149 0
M  V30 43 H -1.487823 4.588105 3.317419 0
M  V30 44 H -2.223263 3.656590 1.397189 0
M  V30 45 H -1.224231 2.207895 1.682574 0
M  V30 46 H -0.462415 4.960540 0.599665 0
M  V30 47 H -0.165554 3.455099 -0.315262 0
M  V30 48 H -1.272854 1.611330 -0.997501 0
M  V30 49 H -3.619543 0.975214 -1.145604 0
M  V30 50 H -4.369643 -1.245322 -0.347644 0
M  V30 51 H -2.719740 -2.790581 0.597985 0
M  V30 52 H -2.061587 -5.196744 -0.160347 0
M  V30 53 H 0.694464 -6.551620 -1.379873 0
M  V30 54 H 1.528054 -6.481762 -3.623095 0
M  V30 55 H 0.795920 -4.741851 -5.165195 0
M  V30 56 H -0.868380 -2.958941 -4.444864 0
M  V30 57 H -1.624661 -3.140705 -2.176898 0
M  V30 END ATOM
M  V30 BEGIN BOND
M  V30 1 2 1 2
M  V30 2 1 2 3
M  V30 3 1 3 4
M  V30 4 2 4 5
M  V30 5 1 4 6
M  V30 6 1 6 7
M  V30 7 2 7 8
M  V30 8 1 8 9
M  V30 9 1 9 10
M  V30 10 1 10 11
M  V30 11 1 11 12
M  V30 12 1 12 13
M  V30 13 1 13 14
M  V30 14 1 14 15
M  V30 15 1 15 16
M  V30 16 1 16 17
M  V30 17 1 9 18
M  V30 18 2 18 19
M  V30 19 1 19 20
M  V30 20 2 20 21
M  V30 21 1 21 22
M  V30 22 2 22 23
M  V30 23 2 6 24
M  V30 24 1 24 25
M  V30 25 1 25 26
M  V30 26 2 26 27
M  V30 27 1 27 28
M  V30 28 2 28 29
M  V30 29 1 29 30
M  V30 30 2 30 31
M  V30 31 1 24 2
M  V30 32 1 31 26
M  V30 33 1 23 7
M  V30 34 1 17 13
M  V30 35 1 23 18
M  V30 36 1 3 32
M  V30 37 1 8 33
M  V30 38 1 10 34
M  V30 39 1 10 35
M  V30 40 1 11 36
M  V30 41 1 11 37
M  V30 42 1 12 38
M  V30 43 1 12 39
M  V30 44 1 14 40
M  V30 45 1 14 41
M  V30 46 1 15 42
M  V30 47 1 15 43
M  V30 48 1 16 44
M  V30 49 1 16 45
M  V30 50 1 17 46
M  V30 51 1 17 47
M  V30 52 1 19 48
M  V30 53 1 20 49
M  V30 54 1 21 50
M  V30 55 1 22 51
M  V30 56 1 25 52
M  V30 57 1 27 53
M  V30 58 1 28 54
M  V30 59 1 29 55
M  V30 60 1 30 56
M  V30 61 1 31 57
M  V30 END BOND
M  V30 END CTAB
M  END
>  <Dataset>  (243) 
ChEMBL_Kinases

>  <Ligand_Instance>  (243) 
nan

>  <PDB_ID>  (243) 
nan

>  <Standardized_SMILES>  (243) 
O=C1NC(=O)C(c2cn(CCCN3CCCC3)c3ccccc23)=C1Nc1ccccc1

>  <Name>  (243) 
nan

>  <Pocket>  (243) 
nan

>  <ATP_Site>  (243) 
nan

>  <Peripheral>  (243) 
nan

>  <Num_H_Atoms_ProtBoundConf>  (243) 
nan

>  <Num_Resolved_Atoms>  (243) 
nan

>  <Num_Not_Resolved_Atoms>  (243) 
nan

$$$$
CHEMBL183906
     RDKit          3D

  0  0  0  0  0  0  0  0  0  0999 V3000
M  V30 BEGIN CTAB
M  V30 COUNTS 24 25 0 0 0
M  V30 BEGIN ATOM
M  V30 1 O -1.248189 -4.234351 3.639064 0
M  V30 2 C -0.647949 -3.728732 2.639993 0
M  V30 3 N 0.558051 -4.351001 2.236324 0
M  V30 4 C 1.459920 -3.614478 1.384616 0
M  V30 5 O 2.571585 -3.936976 0.895115 0
M  V30 6 C 0.937890 -2.289055 1.079013 0
M  V30 7 C 1.550658 -1.239054 0.648621 0
M  V30 8 C 0.975724 0.062093 0.363852 0
M  V30 9 C -0.185266 -0.056398 -0.415925 0
M  V30 10 C -0.923943 1.060915 -0.792577 0
M  V30 11 C -0.483623 2.287481 -0.378855 0
M  V30 12 C 0.649244 2.434223 0.386631 0
M  V30 13 C 1.113474 3.759218 0.856775 0
M  V30 14 F 1.590666 3.635050 2.155592 0
M  V30 15 F -0.002098 4.589586 0.828111 0
M  V30 16 F 2.027786 4.308767 -0.011115 0
M  V30 17 C 1.368639 1.325589 0.751961 0
M  V30 18 S -0.833909 -2.366894 1.459194 0
M  V30 19 H 0.925241 -5.329435 2.484396 0
M  V30 20 H 2.639178 -1.278649 0.452289 0
M  V30 21 H -0.621442 -0.990517 -0.798848 0
M  V30 22 H -1.808601 1.027012 -1.391254 0
M  V30 23 H -1.013747 3.210432 -0.645643 0
M  V30 24 H 2.252850 1.306919 1.326680 0
M  V30 END ATOM
M  V30 BEGIN BOND
M  V30 1 2 1 2
M  V30 2 1 2 3
M  V30 3 1 3 4
M  V30 4 2 4 5
M  V30 5 1 4 6
M  V30 6 2 6 7
M  V30 7 1 7 8
M  V30 8 2 8 9
M  V30 9 1 9 10
M  V30 10 2 10 11
M  V30 11 1 11 12
M  V30 12 1 12 13
M  V30 13 1 13 14
M  V30 14 1 13 15
M  V30 15 1 13 16
M  V30 16 2 12 17
M  V30 17 1 6 18
M  V30 18 1 18 2
M  V30 19 1 17 8
M  V30 20 1 3 19
M  V30 21 1 7 20
M  V30 22 1 9 21
M  V30 23 1 10 22
M  V30 24 1 11 23
M  V30 25 1 17 24
M  V30 END BOND
M  V30 END CTAB
M  END
>  <Dataset>  (244) 
ChEMBL_Kinases

>  <Ligand_Instance>  (244) 
nan

>  <PDB_ID>  (244) 
nan

>  <Standardized_SMILES>  (244) 
O=C1NC(=O)/C(=C/c2cccc(C(F)(F)F)c2)S1

>  <Name>  (244) 
nan

>  <Pocket>  (244) 
nan

>  <ATP_Site>  (244) 
nan

>  <Peripheral>  (244) 
nan

>  <Num_H_Atoms_ProtBoundConf>  (244) 
nan

>  <Num_Resolved_Atoms>  (244) 
nan

>  <Num_Not_Resolved_Atoms>  (244) 
nan

$$$$
CHEMBL4762662
     RDKit          3D

  0  0  0  0  0  0  0  0  0  0999 V3000
M  V30 BEGIN CTAB
M  V30 COUNTS 40 43 0 0 0
M  V30 BEGIN ATOM
M  V30 1 O 0.248036 -2.417579 0.290385 0
M  V30 2 C 0.301035 -2.071313 -0.918417 0
M  V30 3 C 0.497952 -3.178443 -1.898293 0
M  V30 4 C 0.592143 -4.493156 -1.218059 0
M  V30 5 C 1.838742 -4.972728 -0.810011 0
M  V30 6 C 1.818762 -6.213451 -0.182444 0
M  V30 7 C 0.693073 -6.976400 0.056581 0
M  V30 8 C -0.499760 -6.435826 -0.375352 0
M  V30 9 C -0.569290 -5.211319 -1.006496 0
M  V30 10 N 0.195478 -0.756315 -1.451673 0
M  V30 11 C 0.007230 0.264086 -0.459295 0
M  V30 12 C -1.282515 0.634684 -0.060269 0
M  V30 13 C -1.388826 1.638408 0.913443 0
M  V30 14 C -0.251086 2.212612 1.432615 0
M  V30 15 C 1.020514 1.847853 1.039801 0
M  V30 16 C 1.143210 0.846901 0.068251 0
M  V30 17 O 2.152149 2.424905 1.561918 0
M  V30 18 C 2.142324 3.440745 2.544716 0
M  V30 19 C 0.783323 3.828153 2.961815 0
M  V30 20 C 0.699287 4.817843 3.921206 0
M  V30 21 N -0.530193 5.204895 4.334185 0
M  V30 22 C -1.666775 4.653709 3.837218 0
M  V30 23 C -1.600349 3.665141 2.879456 0
M  V30 24 C -0.360309 3.255081 2.443912 0
M  V30 25 H 1.358821 -3.012215 -2.561053 0
M  V30 26 H -0.403158 -3.179704 -2.555408 0
M  V30 27 H 2.746620 -4.435159 -0.963310 0
M  V30 28 H 2.788962 -6.605798 0.144843 0
M  V30 29 H 0.821403 -7.927665 0.556688 0
M  V30 30 H -1.392379 -7.019436 -0.196689 0
M  V30 31 H -1.502144 -4.795082 -1.340982 0
M  V30 32 H 0.256142 -0.600709 -2.482080 0
M  V30 33 H -2.147037 0.153815 -0.497869 0
M  V30 34 H -2.377199 1.876072 1.174416 0
M  V30 35 H 2.127477 0.553822 -0.246175 0
M  V30 36 H 2.739505 3.132963 3.450194 0
M  V30 37 H 2.678324 4.313757 2.118158 0
M  V30 38 H 1.587374 5.292595 4.352076 0
M  V30 39 H -2.533599 5.103625 4.299550 0
M  V30 40 H -2.529787 3.292187 2.548274 0
M  V30 END ATOM
M  V30 BEGIN BOND
M  V30 1 2 1 2
M  V30 2 1 2 3
M  V30 3 1 3 4
M  V30 4 2 4 5
M  V30 5 1 5 6
M  V30 6 2 6 7
M  V30 7 1 7 8
M  V30 8 2 8 9
M  V30 9 1 2 10
M  V30 10 1 10 11
M  V30 11 2 11 12
M  V30 12 1 12 13
M  V30 13 2 13 14
M  V30 14 1 14 15
M  V30 15 2 15 16
M  V30 16 1 15 17
M  V30 17 1 17 18
M  V30 18 1 18 19
M  V30 19 2 19 20
M  V30 20 1 20 21
M  V30 21 2 21 22
M  V30 22 1 22 23
M  V30 23 2 23 24
M  V30 24 1 9 4
M  V30 25 1 16 11
M  V30 26 1 24 19
M  V30 27 1 24 14
M  V30 28 1 3 25
M  V30 29 1 3 26
M  V30 30 1 5 27
M  V30 31 1 6 28
M  V30 32 1 7 29
M  V30 33 1 8 30
M  V30 34 1 9 31
M  V30 35 1 10 32
M  V30 36 1 12 33
M  V30 37 1 13 34
M  V30 38 1 16 35
M  V30 39 1 18 36
M  V30 40 1 18 37
M  V30 41 1 20 38
M  V30 42 1 22 39
M  V30 43 1 23 40
M  V30 END BOND
M  V30 END CTAB
M  END
>  <Dataset>  (245) 
ChEMBL_Kinases

>  <Ligand_Instance>  (245) 
nan

>  <PDB_ID>  (245) 
nan

>  <Standardized_SMILES>  (245) 
O=C(Cc1ccccc1)Nc1ccc2c(c1)OCc1cnccc1-2

>  <Name>  (245) 
nan

>  <Pocket>  (245) 
nan

>  <ATP_Site>  (245) 
nan

>  <Peripheral>  (245) 
nan

>  <Num_H_Atoms_ProtBoundConf>  (245) 
nan

>  <Num_Resolved_Atoms>  (245) 
nan

>  <Num_Not_Resolved_Atoms>  (245) 
nan

$$$$
CHEMBL1836719
     RDKit          3D

  0  0  0  0  0  0  0  0  0  0999 V3000
M  V30 BEGIN CTAB
M  V30 COUNTS 34 36 0 0 0
M  V30 BEGIN ATOM
M  V30 1 C -0.305685 -6.734493 3.217754 0
M  V30 2 S 0.217008 -5.190912 4.043183 0
M  V30 3 C 0.424949 -3.864914 2.862846 0
M  V30 4 C 1.610606 -3.588053 2.213855 0
M  V30 5 C 1.694852 -2.545426 1.314124 0
M  V30 6 C 0.552263 -1.802527 1.097030 0
M  V30 7 C 0.602251 -0.704000 0.161724 0
M  V30 8 C 1.583454 -0.222935 -0.593217 0
M  V30 9 C 1.419245 0.842158 -1.426682 0
M  V30 10 N 2.265798 1.472480 -2.258514 0
M  V30 11 C 1.871446 2.522680 -2.996586 0
M  V30 12 N 0.651091 3.078691 -3.024339 0
M  V30 13 C -0.274952 2.548904 -2.248237 0
M  V30 14 S -1.953165 3.048572 -2.064535 0
M  V30 15 C -2.078660 4.290373 -0.739768 0
M  V30 16 C -1.761779 3.759481 0.590088 0
M  V30 17 O -0.584758 3.767604 1.063586 0
M  V30 18 O -2.701683 3.197713 1.464539 0
M  V30 19 C 0.050607 1.367709 -1.375682 0
M  V30 20 S -0.803647 0.387779 -0.248552 0
M  V30 21 C -0.645124 -2.059516 1.733731 0
M  V30 22 C -0.724781 -3.103494 2.632820 0
M  V30 23 H 0.202768 -6.782160 2.218947 0
M  V30 24 H -0.034893 -7.630462 3.773855 0
M  V30 25 H -1.403540 -6.746000 3.038742 0
M  V30 26 H 2.469322 -4.207376 2.427750 0
M  V30 27 H 2.594008 -2.295330 0.788496 0
M  V30 28 H 2.545433 -0.718252 -0.523606 0
M  V30 29 H 2.683202 2.920569 -3.621158 0
M  V30 30 H -1.423169 5.131012 -1.016567 0
M  V30 31 H -3.128928 4.681419 -0.696980 0
M  V30 32 H -2.423283 2.363728 2.003635 0
M  V30 33 H -1.517236 -1.444858 1.528465 0
M  V30 34 H -1.674626 -3.283651 3.117497 0
M  V30 END ATOM
M  V30 BEGIN BOND
M  V30 1 1 1 2
M  V30 2 1 2 3
M  V30 3 2 3 4
M  V30 4 1 4 5
M  V30 5 2 5 6
M  V30 6 1 6 7
M  V30 7 2 7 8
M  V30 8 1 8 9
M  V30 9 2 9 10
M  V30 10 1 10 11
M  V30 11 2 11 12
M  V30 12 1 12 13
M  V30 13 1 13 14
M  V30 14 1 14 15
M  V30 15 1 15 16
M  V30 16 2 16 17
M  V30 17 1 16 18
M  V30 18 2 13 19
M  V30 19 1 19 20
M  V30 20 1 6 21
M  V30 21 2 21 22
M  V30 22 1 22 3
M  V30 23 1 20 7
M  V30 24 1 19 9
M  V30 25 1 1 23
M  V30 26 1 1 24
M  V30 27 1 1 25
M  V30 28 1 4 26
M  V30 29 1 5 27
M  V30 30 1 8 28
M  V30 31 1 11 29
M  V30 32 1 15 30
M  V30 33 1 15 31
M  V30 34 1 18 32
M  V30 35 1 21 33
M  V30 36 1 22 34
M  V30 END BOND
M  V30 END CTAB
M  END
>  <Dataset>  (246) 
ChEMBL_Kinases

>  <Ligand_Instance>  (246) 
nan

>  <PDB_ID>  (246) 
nan

>  <Standardized_SMILES>  (246) 
CSc1ccc(-c2cc3ncnc(SCC(=O)O)c3s2)cc1

>  <Name>  (246) 
nan

>  <Pocket>  (246) 
nan

>  <ATP_Site>  (246) 
nan

>  <Peripheral>  (246) 
nan

>  <Num_H_Atoms_ProtBoundConf>  (246) 
nan

>  <Num_Resolved_Atoms>  (246) 
nan

>  <Num_Not_Resolved_Atoms>  (246) 
nan

$$$$
CHEMBL1374355
     RDKit          3D

  0  0  0  0  0  0  0  0  0  0999 V3000
M  V30 BEGIN CTAB
M  V30 COUNTS 31 33 0 0 0
M  V30 BEGIN ATOM
M  V30 1 C -2.284876 -1.968888 1.727364 0
M  V30 2 N -0.991529 -2.626786 1.934651 0
M  V30 3 C -0.853844 -3.063479 3.311090 0
M  V30 4 C -0.010537 -2.804423 0.909209 0
M  V30 5 N 0.377096 -4.060321 0.556975 0
M  V30 6 C 1.310314 -4.244543 -0.419879 0
M  V30 7 N 1.880047 -3.210475 -1.068339 0
M  V30 8 C 1.518924 -1.938891 -0.744765 0
M  V30 9 C 2.104314 -0.882679 -1.409945 0
M  V30 10 C 1.750374 0.431784 -1.094649 0
M  V30 11 C 0.804664 0.606562 -0.103876 0
M  V30 12 C 0.434147 1.977819 0.227225 0
M  V30 13 C 1.358418 3.017662 0.124389 0
M  V30 14 C 0.718469 4.199401 0.504643 0
M  V30 15 O -0.501537 3.877133 0.811094 0
M  V30 16 C -0.728408 2.613457 0.672482 0
M  V30 17 C 0.192883 -0.423835 0.587663 0
M  V30 18 C 0.562892 -1.718509 0.254604 0
M  V30 19 H -3.089914 -2.733516 1.936326 0
M  V30 20 H -2.444305 -1.677330 0.676354 0
M  V30 21 H -2.473622 -1.153810 2.442978 0
M  V30 22 H -1.197768 -2.276649 4.016971 0
M  V30 23 H -1.527855 -3.934835 3.456407 0
M  V30 24 H 0.207444 -3.354271 3.531383 0
M  V30 25 H 1.579734 -5.279774 -0.657186 0
M  V30 26 H 2.846137 -1.056983 -2.186015 0
M  V30 27 H 2.206608 1.261592 -1.613726 0
M  V30 28 H 2.386387 2.987813 -0.183195 0
M  V30 29 H 1.165753 5.182254 0.532932 0
M  V30 30 H -1.601486 1.971104 0.824740 0
M  V30 31 H -0.544287 -0.240899 1.357558 0
M  V30 END ATOM
M  V30 BEGIN BOND
M  V30 1 1 1 2
M  V30 2 1 2 3
M  V30 3 1 2 4
M  V30 4 2 4 5
M  V30 5 1 5 6
M  V30 6 2 6 7
M  V30 7 1 7 8
M  V30 8 2 8 9
M  V30 9 1 9 10
M  V30 10 2 10 11
M  V30 11 1 11 12
M  V30 12 1 12 13
M  V30 13 2 13 14
M  V30 14 1 14 15
M  V30 15 1 15 16
M  V30 16 1 11 17
M  V30 17 2 17 18
M  V30 18 1 18 4
M  V30 19 1 18 8
M  V30 20 2 16 12
M  V30 21 1 1 19
M  V30 22 1 1 20
M  V30 23 1 1 21
M  V30 24 1 3 22
M  V30 25 1 3 23
M  V30 26 1 3 24
M  V30 27 1 6 25
M  V30 28 1 9 26
M  V30 29 1 10 27
M  V30 30 1 13 28
M  V30 31 1 14 29
M  V30 32 1 16 30
M  V30 33 1 17 31
M  V30 END BOND
M  V30 END CTAB
M  END
>  <Dataset>  (247) 
ChEMBL_Kinases

>  <Ligand_Instance>  (247) 
nan

>  <PDB_ID>  (247) 
nan

>  <Standardized_SMILES>  (247) 
CN(C)c1ncnc2ccc(-c3ccoc3)cc12

>  <Name>  (247) 
nan

>  <Pocket>  (247) 
nan

>  <ATP_Site>  (247) 
nan

>  <Peripheral>  (247) 
nan

>  <Num_H_Atoms_ProtBoundConf>  (247) 
nan

>  <Num_Resolved_Atoms>  (247) 
nan

>  <Num_Not_Resolved_Atoms>  (247) 
nan

$$$$
CHEMBL1836641
     RDKit          3D

  0  0  0  0  0  0  0  0  0  0999 V3000
M  V30 BEGIN CTAB
M  V30 COUNTS 33 36 0 0 0
M  V30 BEGIN ATOM
M  V30 1 O 3.326429 -2.646075 4.054306 0
M  V30 2 C 3.001803 -3.868942 4.157110 0
M  V30 3 O 4.083890 -3.660009 5.000817 0
M  V30 4 C 1.868163 -4.498487 3.399141 0
M  V30 5 O 1.298878 -3.497617 2.615067 0
M  V30 6 C 1.954135 -2.782179 1.646291 0
M  V30 7 N 3.269591 -2.978573 1.337767 0
M  V30 8 C 3.710946 -2.153758 0.341821 0
M  V30 9 N 3.002220 -1.238092 -0.303342 0
M  V30 10 C 1.686330 -1.047234 0.010856 0
M  V30 11 C 0.906773 -0.125511 -0.612454 0
M  V30 12 C -0.409051 -0.060440 -0.171571 0
M  V30 13 C -1.603387 0.749766 -0.523039 0
M  V30 14 C -2.761776 0.518734 0.153126 0
M  V30 15 C -3.830534 1.317173 -0.233824 0
M  V30 16 C -3.687070 2.273316 -1.244360 0
M  V30 17 N -4.520938 3.163732 -1.813351 0
M  V30 18 N -3.922254 3.866329 -2.745529 0
M  V30 19 C -2.649780 3.437345 -2.806162 0
M  V30 20 C -2.450241 2.434650 -1.881089 0
M  V30 21 C -1.347834 1.648992 -1.519825 0
M  V30 22 S -0.496860 -1.368836 1.172574 0
M  V30 23 C 1.190232 -1.848924 1.004647 0
M  V30 24 H 4.440357 -4.330101 5.654672 0
M  V30 25 H 2.248742 -5.336452 2.749038 0
M  V30 26 H 1.150094 -4.982061 4.083543 0
M  V30 27 H 4.764496 -2.304956 0.088732 0
M  V30 28 H 1.125788 0.575378 -1.398993 0
M  V30 29 H -2.855158 -0.223987 0.931060 0
M  V30 30 H -4.792466 1.209812 0.243205 0
M  V30 31 H -5.511571 3.215863 -1.484642 0
M  V30 32 H -1.840780 3.786462 -3.466013 0
M  V30 33 H -0.408187 1.772610 -2.004469 0
M  V30 END ATOM
M  V30 BEGIN BOND
M  V30 1 2 1 2
M  V30 2 1 2 3
M  V30 3 1 2 4
M  V30 4 1 4 5
M  V30 5 1 5 6
M  V30 6 2 6 7
M  V30 7 1 7 8
M  V30 8 2 8 9
M  V30 9 1 9 10
M  V30 10 1 10 11
M  V30 11 2 11 12
M  V30 12 1 12 13
M  V30 13 2 13 14
M  V30 14 1 14 15
M  V30 15 2 15 16
M  V30 16 1 16 17
M  V30 17 1 17 18
M  V30 18 2 18 19
M  V30 19 1 19 20
M  V30 20 2 20 21
M  V30 21 1 12 22
M  V30 22 1 22 23
M  V30 23 1 23 6
M  V30 24 2 23 10
M  V30 25 1 21 13
M  V30 26 1 20 16
M  V30 27 1 3 24
M  V30 28 1 4 25
M  V30 29 1 4 26
M  V30 30 1 8 27
M  V30 31 1 11 28
M  V30 32 1 14 29
M  V30 33 1 15 30
M  V30 34 1 17 31
M  V30 35 1 19 32
M  V30 36 1 21 33
M  V30 END BOND
M  V30 END CTAB
M  END
>  <Dataset>  (248) 
ChEMBL_Kinases

>  <Ligand_Instance>  (248) 
nan

>  <PDB_ID>  (248) 
nan

>  <Standardized_SMILES>  (248) 
O=C(O)COc1ncnc2cc(-c3ccc4[nH]ncc4c3)sc12

>  <Name>  (248) 
nan

>  <Pocket>  (248) 
nan

>  <ATP_Site>  (248) 
nan

>  <Peripheral>  (248) 
nan

>  <Num_H_Atoms_ProtBoundConf>  (248) 
nan

>  <Num_Resolved_Atoms>  (248) 
nan

>  <Num_Not_Resolved_Atoms>  (248) 
nan

$$$$
CHEMBL4761304
     RDKit          3D

  0  0  0  0  0  0  0  0  0  0999 V3000
M  V30 BEGIN CTAB
M  V30 COUNTS 64 67 0 0 0
M  V30 BEGIN ATOM
M  V30 1 C 3.763181 -5.278337 3.677952 0
M  V30 2 C 2.737380 -5.409834 2.573296 0
M  V30 3 C 1.793183 -6.520259 2.970445 0
M  V30 4 N 2.124603 -4.143169 2.366001 0
M  V30 5 C 2.026192 -3.357348 1.158637 0
M  V30 6 O 2.616082 -4.096135 0.354327 0
M  V30 7 C 1.354464 -2.076554 1.170833 0
M  V30 8 C 0.915331 -1.593897 2.370815 0
M  V30 9 N 0.300282 -0.411855 2.411014 0
M  V30 10 C 0.089384 0.331360 1.323390 0
M  V30 11 N -0.589646 1.606754 1.377347 0
M  V30 12 C -1.990632 1.457865 1.639333 0
M  V30 13 C -2.344991 0.682627 2.710944 0
M  V30 14 C -3.690507 0.457845 3.022211 0
M  V30 15 C -4.599654 1.071867 2.172324 0
M  V30 16 C -4.292064 1.861104 1.079385 0
M  V30 17 C -2.925015 2.048193 0.823146 0
M  V30 18 C -5.490045 2.340681 0.390227 0
M  V30 19 C -5.645644 3.845409 0.373911 0
M  V30 20 C -5.637276 1.755017 -0.998469 0
M  V30 21 O -6.547503 1.819563 1.172829 0
M  V30 22 C -6.064109 1.053633 2.221776 0
M  V30 23 O -6.762303 0.437297 3.083350 0
M  V30 24 N 0.527866 -0.156931 0.153728 0
M  V30 25 C 1.160910 -1.344037 0.019942 0
M  V30 26 N 1.572901 -1.812076 -1.246722 0
M  V30 27 C 1.356886 -0.975316 -2.414646 0 CFG=2
M  V30 28 C 1.815041 -1.771087 -3.632735 0
M  V30 29 O 1.046515 -2.920700 -3.686575 0
M  V30 30 C 2.125077 0.297017 -2.357337 0
M  V30 31 C 1.781594 1.601042 -2.636682 0
M  V30 32 C 2.675762 2.641093 -2.512854 0
M  V30 33 C 3.956279 2.319809 -2.089445 0
M  V30 34 C 4.345747 1.033894 -1.798104 0
M  V30 35 C 3.418379 -0.006925 -1.931267 0
M  V30 36 H 4.103540 -4.226546 3.759740 0
M  V30 37 H 3.271623 -5.538932 4.630662 0
M  V30 38 H 4.602217 -5.993159 3.547552 0
M  V30 39 H 3.257123 -5.737922 1.618309 0
M  V30 40 H 0.877248 -6.403216 2.369614 0
M  V30 41 H 2.214992 -7.521525 2.777216 0
M  V30 42 H 1.579779 -6.426507 4.035078 0
M  V30 43 H 1.719954 -3.850801 3.308020 0
M  V30 44 H 0.980950 -2.018577 3.359354 0
M  V30 45 H 0.199607 2.255798 1.237309 0
M  V30 46 H -1.691868 0.180715 3.423131 0
M  V30 47 H -4.028193 -0.142332 3.853482 0
M  V30 48 H -2.684231 2.660245 -0.017015 0
M  V30 49 H -5.325407 4.296209 -0.588998 0
M  V30 50 H -5.053937 4.257717 1.206445 0
M  V30 51 H -6.707867 4.104899 0.550848 0
M  V30 52 H -5.498629 0.645402 -0.899250 0
M  V30 53 H -6.600202 1.951618 -1.466497 0
M  V30 54 H -4.829131 2.147554 -1.639146 0
M  V30 55 H 2.027164 -2.739174 -1.363029 0
M  V30 56 H 0.292344 -0.778076 -2.545084 0
M  V30 57 H 2.879837 -2.005444 -3.448189 0
M  V30 58 H 1.660498 -1.104336 -4.494183 0
M  V30 59 H 0.093393 -2.735835 -3.555720 0
M  V30 60 H 0.733106 1.641307 -2.947736 0
M  V30 61 H 2.295679 3.620854 -2.760343 0
M  V30 62 H 4.667277 3.154426 -1.990798 0
M  V30 63 H 5.386048 0.889226 -1.468833 0
M  V30 64 H 3.863899 -0.956577 -1.670551 0
M  V30 END ATOM
M  V30 BEGIN BOND
M  V30 1 1 1 2
M  V30 2 1 2 3
M  V30 3 1 2 4
M  V30 4 1 4 5
M  V30 5 2 5 6
M  V30 6 1 5 7
M  V30 7 2 7 8
M  V30 8 1 8 9
M  V30 9 2 9 10
M  V30 10 1 10 11
M  V30 11 1 11 12
M  V30 12 2 12 13
M  V30 13 1 13 14
M  V30 14 2 14 15
M  V30 15 1 15 16
M  V30 16 2 16 17
M  V30 17 1 16 18
M  V30 18 1 18 19
M  V30 19 1 18 20
M  V30 20 1 18 21
M  V30 21 1 21 22
M  V30 22 2 22 23
M  V30 23 1 10 24
M  V30 24 2 24 25
M  V30 25 1 25 26
M  V30 26 1 26 27
M  V30 27 1 27 28
M  V30 28 1 28 29
M  V30 29 1 27 30
M  V30 30 2 30 31
M  V30 31 1 31 32
M  V30 32 2 32 33
M  V30 33 1 33 34
M  V30 34 2 34 35
M  V30 35 1 25 7
M  V30 36 1 35 30
M  V30 37 1 17 12
M  V30 38 1 22 15
M  V30 39 1 1 36
M  V30 40 1 1 37
M  V30 41 1 1 38
M  V30 42 1 2 39
M  V30 43 1 3 40
M  V30 44 1 3 41
M  V30 45 1 3 42
M  V30 46 1 4 43
M  V30 47 1 8 44
M  V30 48 1 11 45
M  V30 49 1 13 46
M  V30 50 1 14 47
M  V30 51 1 17 48
M  V30 52 1 19 49
M  V30 53 1 19 50
M  V30 54 1 19 51
M  V30 55 1 20 52
M  V30 56 1 20 53
M  V30 57 1 20 54
M  V30 58 1 26 55
M  V30 59 1 27 56 CFG=3
M  V30 60 1 28 57
M  V30 61 1 28 58
M  V30 62 1 29 59
M  V30 63 1 31 60
M  V30 64 1 32 61
M  V30 65 1 33 62
M  V30 66 1 34 63
M  V30 67 1 35 64
M  V30 END BOND
M  V30 END CTAB
M  END
>  <Dataset>  (249) 
ChEMBL_Kinases

>  <Ligand_Instance>  (249) 
nan

>  <PDB_ID>  (249) 
nan

>  <Standardized_SMILES>  (249) 
CC(C)NC(=O)c1cnc(Nc2ccc3c(c2)C(C)(C)OC3=O)nc1N[C@H](CO)c1ccccc1

>  <Name>  (249) 
nan

>  <Pocket>  (249) 
nan

>  <ATP_Site>  (249) 
nan

>  <Peripheral>  (249) 
nan

>  <Num_H_Atoms_ProtBoundConf>  (249) 
nan

>  <Num_Resolved_Atoms>  (249) 
nan

>  <Num_Not_Resolved_Atoms>  (249) 
nan

$$$$
CHEMBL4761669
     RDKit          3D

  0  0  0  0  0  0  0  0  0  0999 V3000
M  V30 BEGIN CTAB
M  V30 COUNTS 46 49 0 0 0
M  V30 BEGIN ATOM
M  V30 1 O -1.182341 -0.043870 0.554240 0
M  V30 2 C -0.975892 -1.187447 1.040509 0
M  V30 3 N 0.101792 -1.873498 0.443342 0
M  V30 4 C 0.708371 -1.075706 -0.595411 0
M  V30 5 C 1.744667 -0.186130 -0.426078 0
M  V30 6 C 2.216961 0.506976 -1.530301 0
M  V30 7 C 3.256651 1.399937 -1.362395 0
M  V30 8 C 3.739979 2.101284 -2.459787 0
M  V30 9 C 4.824768 3.055488 -2.377018 0
M  V30 10 C 5.513881 3.392896 -1.220654 0
M  V30 11 N 6.427153 4.313128 -1.631086 0
M  V30 12 C 6.298466 4.518921 -2.951031 0
M  V30 13 O 5.326524 3.748704 -3.373151 0
M  V30 14 C 3.127153 1.845272 -3.668890 0
M  V30 15 N 2.112941 0.969642 -3.813995 0
M  V30 16 C 1.619299 0.269611 -2.760062 0
M  V30 17 C 0.575583 -0.632582 -2.904926 0
M  V30 18 N 0.129921 -1.299358 -1.810601 0
M  V30 19 C -1.803057 -1.727335 2.131754 0 CFG=1
M  V30 20 C -2.525538 -2.999215 1.804837 0
M  V30 21 C -3.620059 -3.146432 2.838182 0
M  V30 22 C -3.142875 -2.968631 4.236113 0 CFG=2
M  V30 23 C -3.904806 -1.850424 4.960404 0
M  V30 24 O -5.260986 -2.133417 5.013232 0
M  V30 25 C -1.673963 -2.798334 4.392644 0
M  V30 26 C -0.989546 -1.961722 3.372978 0
M  V30 27 H 0.338188 -2.846585 0.800520 0
M  V30 28 H 2.127295 -0.081547 0.555833 0
M  V30 29 H 3.703149 1.564313 -0.390564 0
M  V30 30 H 5.350947 3.002249 -0.217257 0
M  V30 31 H 6.897075 5.203311 -3.553645 0
M  V30 32 H 3.469369 2.370751 -4.564684 0
M  V30 33 H 0.148373 -0.778822 -3.880151 0
M  V30 34 H -2.581407 -0.975667 2.385782 0
M  V30 35 H -1.855075 -3.883551 1.938862 0
M  V30 36 H -3.001878 -3.015179 0.813903 0
M  V30 37 H -4.155717 -4.103148 2.648509 0
M  V30 38 H -4.369505 -2.337395 2.601925 0
M  V30 39 H -3.434592 -3.900131 4.797495 0
M  V30 40 H -3.692596 -0.851393 4.512203 0
M  V30 41 H -3.559801 -1.762744 6.010511 0
M  V30 42 H -5.778459 -1.302408 4.776909 0
M  V30 43 H -1.182640 -3.803164 4.543895 0
M  V30 44 H -1.511655 -2.293092 5.386956 0
M  V30 45 H -0.612654 -0.986778 3.763883 0
M  V30 46 H -0.055169 -2.503246 3.054164 0
M  V30 END ATOM
M  V30 BEGIN BOND
M  V30 1 2 1 2
M  V30 2 1 2 3
M  V30 3 1 3 4
M  V30 4 2 4 5
M  V30 5 1 5 6
M  V30 6 2 6 7
M  V30 7 1 7 8
M  V30 8 1 8 9
M  V30 9 2 9 10
M  V30 10 1 10 11
M  V30 11 2 11 12
M  V30 12 1 12 13
M  V30 13 2 8 14
M  V30 14 1 14 15
M  V30 15 2 15 16
M  V30 16 1 16 17
M  V30 17 2 17 18
M  V30 18 1 2 19
M  V30 19 1 19 20
M  V30 20 1 20 21
M  V30 21 1 21 22
M  V30 22 1 22 23
M  V30 23 1 23 24
M  V30 24 1 22 25
M  V30 25 1 25 26
M  V30 26 1 18 4
M  V30 27 1 26 19
M  V30 28 1 16 6
M  V30 29 1 13 9
M  V30 30 1 3 27
M  V30 31 1 5 28
M  V30 32 1 7 29
M  V30 33 1 10 30
M  V30 34 1 12 31
M  V30 35 1 14 32
M  V30 36 1 17 33
M  V30 37 1 19 34 CFG=1
M  V30 38 1 20 35
M  V30 39 1 20 36
M  V30 40 1 21 37
M  V30 41 1 21 38
M  V30 42 1 22 39 CFG=1
M  V30 43 1 23 40
M  V30 44 1 23 41
M  V30 45 1 24 42
M  V30 46 1 25 43
M  V30 47 1 25 44
M  V30 48 1 26 45
M  V30 49 1 26 46
M  V30 END BOND
M  V30 END CTAB
M  END
>  <Dataset>  (250) 
ChEMBL_Kinases

>  <Ligand_Instance>  (250) 
nan

>  <PDB_ID>  (250) 
nan

>  <Standardized_SMILES>  (250) 
O=C(Nc1cc2cc(-c3cnco3)cnc2cn1)[C@H]1CC[C@H](CO)CC1

>  <Name>  (250) 
nan

>  <Pocket>  (250) 
nan

>  <ATP_Site>  (250) 
nan

>  <Peripheral>  (250) 
nan

>  <Num_H_Atoms_ProtBoundConf>  (250) 
nan

>  <Num_Resolved_Atoms>  (250) 
nan

>  <Num_Not_Resolved_Atoms>  (250) 
nan

$$$$
CHEMBL4761884
     RDKit          3D

  0  0  0  0  0  0  0  0  0  0999 V3000
M  V30 BEGIN CTAB
M  V30 COUNTS 58 61 0 0 0
M  V30 BEGIN ATOM
M  V30 1 C 4.065738 -4.266305 5.118022 0
M  V30 2 N 3.587578 -3.059306 4.480198 0
M  V30 3 C 2.574507 -3.034715 3.483958 0
M  V30 4 O 2.236581 -4.219288 3.319416 0
M  V30 5 C 2.147932 -1.784425 2.890255 0
M  V30 6 C 2.739794 -0.619954 3.297030 0
M  V30 7 N 2.381616 0.554267 2.779190 0
M  V30 8 C 1.432230 0.684384 1.837986 0
M  V30 9 N 1.085386 1.953435 1.300738 0
M  V30 10 C 0.026201 2.382161 0.477607 0
M  V30 11 C 0.106770 3.664923 -0.065956 0
M  V30 12 C -0.875132 4.206941 -0.844206 0
M  V30 13 C -1.984522 3.434275 -1.089202 0
M  V30 14 C -2.183904 2.166782 -0.617779 0
M  V30 15 C -1.128313 1.704524 0.162940 0
M  V30 16 C -3.478476 1.663423 -1.071716 0
M  V30 17 C -4.405708 1.322180 0.084149 0
M  V30 18 C -3.401121 0.471456 -1.996985 0
M  V30 19 O -4.023965 2.711669 -1.829080 0
M  V30 20 C -3.159186 3.783215 -1.863429 0
M  V30 21 O -3.379144 4.869302 -2.472700 0
M  V30 22 N 0.857429 -0.462285 1.444384 0
M  V30 23 C 1.175290 -1.671799 1.927645 0
M  V30 24 N 0.501050 -2.829963 1.457854 0
M  V30 25 C -0.496046 -2.669535 0.416847 0 CFG=2
M  V30 26 C -1.230907 -3.974318 0.108307 0
M  V30 27 O -1.878611 -4.430862 1.261143 0
M  V30 28 C 0.192798 -2.281046 -0.874149 0
M  V30 29 C -0.026418 -1.315633 -1.830147 0
M  V30 30 C 0.808915 -1.236909 -2.919184 0
M  V30 31 C 1.864730 -2.084457 -3.102370 0
M  V30 32 C 2.103382 -3.057634 -2.159247 0
M  V30 33 C 1.276221 -3.155798 -1.055981 0
M  V30 34 H 3.684007 -5.197886 4.669882 0
M  V30 35 H 3.921365 -4.240886 6.223010 0
M  V30 36 H 5.181953 -4.291168 4.959132 0
M  V30 37 H 4.092708 -2.215775 4.857559 0
M  V30 38 H 3.517338 -0.496075 4.035231 0
M  V30 39 H 1.775609 2.699465 1.594709 0
M  V30 40 H 0.981137 4.313193 0.110104 0
M  V30 41 H -0.781119 5.201455 -1.248661 0
M  V30 42 H -1.198117 0.699432 0.583434 0
M  V30 43 H -3.861217 0.957665 0.982821 0
M  V30 44 H -5.183161 0.601426 -0.245365 0
M  V30 45 H -4.910815 2.291616 0.349389 0
M  V30 46 H -3.303770 -0.487695 -1.436236 0
M  V30 47 H -4.378430 0.432554 -2.532237 0
M  V30 48 H -2.556587 0.576462 -2.708345 0
M  V30 49 H 0.627348 -3.809486 1.767657 0
M  V30 50 H -1.223893 -1.925457 0.685859 0
M  V30 51 H -0.515439 -4.729161 -0.283064 0
M  V30 52 H -1.977440 -3.756088 -0.667664 0
M  V30 53 H -2.290643 -5.311583 1.011641 0
M  V30 54 H -0.887994 -0.750249 -1.514843 0
M  V30 55 H 0.517395 -0.432182 -3.588716 0
M  V30 56 H 2.439166 -1.911206 -4.001788 0
M  V30 57 H 2.953764 -3.691460 -2.364281 0
M  V30 58 H 1.608747 -3.983468 -0.407502 0
M  V30 END ATOM
M  V30 BEGIN BOND
M  V30 1 1 1 2
M  V30 2 1 2 3
M  V30 3 2 3 4
M  V30 4 1 3 5
M  V30 5 2 5 6
M  V30 6 1 6 7
M  V30 7 2 7 8
M  V30 8 1 8 9
M  V30 9 1 9 10
M  V30 10 2 10 11
M  V30 11 1 11 12
M  V30 12 2 12 13
M  V30 13 1 13 14
M  V30 14 2 14 15
M  V30 15 1 14 16
M  V30 16 1 16 17
M  V30 17 1 16 18
M  V30 18 1 16 19
M  V30 19 1 19 20
M  V30 20 2 20 21
M  V30 21 1 8 22
M  V30 22 2 22 23
M  V30 23 1 23 24
M  V30 24 1 24 25
M  V30 25 1 25 26
M  V30 26 1 26 27
M  V30 27 1 25 28
M  V30 28 2 28 29
M  V30 29 1 29 30
M  V30 30 2 30 31
M  V30 31 1 31 32
M  V30 32 2 32 33
M  V30 33 1 23 5
M  V30 34 1 33 28
M  V30 35 1 15 10
M  V30 36 1 20 13
M  V30 37 1 1 34
M  V30 38 1 1 35
M  V30 39 1 1 36
M  V30 40 1 2 37
M  V30 41 1 6 38
M  V30 42 1 9 39
M  V30 43 1 11 40
M  V30 44 1 12 41
M  V30 45 1 15 42
M  V30 46 1 17 43
M  V30 47 1 17 44
M  V30 48 1 17 45
M  V30 49 1 18 46
M  V30 50 1 18 47
M  V30 51 1 18 48
M  V30 52 1 24 49
M  V30 53 1 25 50 CFG=1
M  V30 54 1 26 51
M  V30 55 1 26 52
M  V30 56 1 27 53
M  V30 57 1 29 54
M  V30 58 1 30 55
M  V30 59 1 31 56
M  V30 60 1 32 57
M  V30 61 1 33 58
M  V30 END BOND
M  V30 END CTAB
M  END
>  <Dataset>  (251) 
ChEMBL_Kinases

>  <Ligand_Instance>  (251) 
nan

>  <PDB_ID>  (251) 
nan

>  <Standardized_SMILES>  (251) 
CNC(=O)c1cnc(Nc2ccc3c(c2)C(C)(C)OC3=O)nc1N[C@H](CO)c1ccccc1

>  <Name>  (251) 
nan

>  <Pocket>  (251) 
nan

>  <ATP_Site>  (251) 
nan

>  <Peripheral>  (251) 
nan

>  <Num_H_Atoms_ProtBoundConf>  (251) 
nan

>  <Num_Resolved_Atoms>  (251) 
nan

>  <Num_Not_Resolved_Atoms>  (251) 
nan

$$$$
CHEMBL5084750
     RDKit          3D

  0  0  0  0  0  0  0  0  0  0999 V3000
M  V30 BEGIN CTAB
M  V30 COUNTS 55 58 0 0 0
M  V30 BEGIN ATOM
M  V30 1 C 4.877509 1.462364 -0.391451 0
M  V30 2 C 4.324813 0.627001 0.720379 0
M  V30 3 N 4.983509 -0.187139 1.533058 0
M  V30 4 N 4.224627 -0.784374 2.412334 0
M  V30 5 C 4.617150 -1.737926 3.460927 0
M  V30 6 C 4.964753 -0.965995 4.737875 0
M  V30 7 F 6.015133 -0.124125 4.424410 0
M  V30 8 F 5.316588 -1.838287 5.739681 0
M  V30 9 F 3.859450 -0.252451 5.176542 0
M  V30 10 C 2.934906 -0.373540 2.218289 0
M  V30 11 C 3.008891 0.510449 1.157363 0
M  V30 12 N 1.936346 1.234341 0.575360 0
M  V30 13 C 0.530965 1.358761 0.709288 0
M  V30 14 N 0.170483 1.903399 1.909293 0
M  V30 15 C -1.133842 2.109298 2.187946 0
M  V30 16 C -2.093286 1.755113 1.227249 0
M  V30 17 C -3.460176 2.004913 1.715038 0
M  V30 18 C -3.925302 1.119524 2.873751 0
M  V30 19 C -4.610104 1.152816 1.501937 0
M  V30 20 C -1.710195 1.217317 0.039822 0
M  V30 21 N -2.691442 0.942277 -0.919260 0
M  V30 22 C -2.491494 0.356607 -2.231254 0
M  V30 23 C -2.078990 -1.064226 -2.194136 0
M  V30 24 C -0.833107 -1.652477 -2.141283 0
M  V30 25 C -0.738195 -3.026693 -2.122148 0
M  V30 26 C -1.818250 -3.868201 -2.152883 0
M  V30 27 S -1.649994 -5.610837 -2.120876 0
M  V30 28 N -1.781707 -6.165311 -0.486492 0
M  V30 29 O -0.333145 -6.036956 -2.714001 0
M  V30 30 O -2.812885 -6.184427 -2.890603 0
M  V30 31 C -3.074714 -3.306554 -2.205920 0
M  V30 32 C -3.184652 -1.930895 -2.225381 0
M  V30 33 N -0.399587 1.031431 -0.186523 0
M  V30 34 H 4.258194 2.345498 -0.562943 0
M  V30 35 H 5.943681 1.691406 -0.137417 0
M  V30 36 H 4.928224 0.849034 -1.334749 0
M  V30 37 H 5.468207 -2.353203 3.172251 0
M  V30 38 H 3.746796 -2.371231 3.707736 0
M  V30 39 H 2.050712 -0.677391 2.778793 0
M  V30 40 H 2.093958 1.916420 -0.201678 0
M  V30 41 H -1.367259 2.551218 3.170906 0
M  V30 42 H -3.667706 3.076997 1.916766 0
M  V30 43 H -4.515964 1.551465 3.697036 0
M  V30 44 H -3.338866 0.250641 3.179100 0
M  V30 45 H -4.672842 0.143888 1.088385 0
M  V30 46 H -5.623596 1.639481 1.444662 0
M  V30 47 H -3.696854 1.157482 -0.763484 0
M  V30 48 H -1.666906 0.933313 -2.770258 0
M  V30 49 H -3.353757 0.476088 -2.915472 0
M  V30 50 H -0.049313 -0.940454 -2.121976 0
M  V30 51 H 0.282699 -3.426022 -2.080076 0
M  V30 52 H -0.975536 -5.909273 0.099373 0
M  V30 53 H -2.718553 -5.948861 -0.102508 0
M  V30 54 H -3.905403 -3.972599 -2.229090 0
M  V30 55 H -4.218889 -1.600024 -2.266443 0
M  V30 END ATOM
M  V30 BEGIN BOND
M  V30 1 1 1 2
M  V30 2 2 2 3
M  V30 3 1 3 4
M  V30 4 1 4 5
M  V30 5 1 5 6
M  V30 6 1 6 7
M  V30 7 1 6 8
M  V30 8 1 6 9
M  V30 9 1 4 10
M  V30 10 2 10 11
M  V30 11 1 11 12
M  V30 12 1 12 13
M  V30 13 2 13 14
M  V30 14 1 14 15
M  V30 15 2 15 16
M  V30 16 1 16 17
M  V30 17 1 17 18
M  V30 18 1 18 19
M  V30 19 1 16 20
M  V30 20 1 20 21
M  V30 21 1 21 22
M  V30 22 1 22 23
M  V30 23 2 23 24
M  V30 24 1 24 25
M  V30 25 2 25 26
M  V30 26 1 26 27
M  V30 27 1 27 28
M  V30 28 2 27 29
M  V30 29 2 27 30
M  V30 30 1 26 31
M  V30 31 2 31 32
M  V30 32 2 20 33
M  V30 33 1 11 2
M  V30 34 1 33 13
M  V30 35 1 19 17
M  V30 36 1 32 23
M  V30 37 1 1 34
M  V30 38 1 1 35
M  V30 39 1 1 36
M  V30 40 1 5 37
M  V30 41 1 5 38
M  V30 42 1 10 39
M  V30 43 1 12 40
M  V30 44 1 15 41
M  V30 45 1 17 42
M  V30 46 1 18 43
M  V30 47 1 18 44
M  V30 48 1 19 45
M  V30 49 1 19 46
M  V30 50 1 21 47
M  V30 51 1 22 48
M  V30 52 1 22 49
M  V30 53 1 24 50
M  V30 54 1 25 51
M  V30 55 1 28 52
M  V30 56 1 28 53
M  V30 57 1 31 54
M  V30 58 1 32 55
M  V30 END BOND
M  V30 END CTAB
M  END
>  <Dataset>  (252) 
ChEMBL_Kinases

>  <Ligand_Instance>  (252) 
nan

>  <PDB_ID>  (252) 
nan

>  <Standardized_SMILES>  (252) 
Cc1nn(CC(F)(F)F)cc1Nc1ncc(C2CC2)c(NCc2ccc(S(N)(=O)=O)cc2)n1

>  <Name>  (252) 
nan

>  <Pocket>  (252) 
nan

>  <ATP_Site>  (252) 
nan

>  <Peripheral>  (252) 
nan

>  <Num_H_Atoms_ProtBoundConf>  (252) 
nan

>  <Num_Resolved_Atoms>  (252) 
nan

>  <Num_Not_Resolved_Atoms>  (252) 
nan

$$$$
CHEMBL5084437
     RDKit          3D

  0  0  0  0  0  0  0  0  0  0999 V3000
M  V30 BEGIN CTAB
M  V30 COUNTS 40 43 0 0 0
M  V30 BEGIN ATOM
M  V30 1 C -2.028375 -3.053857 4.172019 0
M  V30 2 C -1.139117 -2.693754 3.043685 0
M  V30 3 C -1.329161 -3.251865 1.801813 0
M  V30 4 C -0.481970 -2.893258 0.776965 0
M  V30 5 C 0.572260 -1.982719 0.932235 0
M  V30 6 C 1.336394 -1.790785 -0.290196 0
M  V30 7 C 1.891940 -2.877980 -0.978236 0
M  V30 8 N 2.570967 -2.398920 -2.040885 0
M  V30 9 C 2.507202 -1.049535 -2.113200 0
M  V30 10 N 2.960976 -0.072214 -2.902331 0
M  V30 11 C 2.654191 1.225289 -2.609466 0
M  V30 12 N 1.893002 1.577498 -1.531586 0
M  V30 13 C 1.425289 0.603166 -0.722689 0
M  V30 14 N 0.622449 1.128640 0.324635 0
M  V30 15 C -0.816358 0.806501 0.280571 0
M  V30 16 C -1.496558 2.146706 -0.014414 0
M  V30 17 O -0.615370 3.211193 0.127966 0
M  V30 18 C 0.071724 3.214593 1.328489 0
M  V30 19 C 0.912459 1.966703 1.490713 0
M  V30 20 C 1.740276 -0.700310 -1.023874 0
M  V30 21 C 0.740677 -1.432543 2.204336 0
M  V30 22 C -0.113647 -1.799784 3.220347 0
M  V30 23 H -3.114962 -2.985365 3.892984 0
M  V30 24 H -1.863616 -2.403630 5.032624 0
M  V30 25 H -1.857963 -4.143566 4.414353 0
M  V30 26 H -2.139944 -3.952551 1.680581 0
M  V30 27 H -0.717686 -3.391940 -0.167234 0
M  V30 28 H 1.816463 -3.938807 -0.736700 0
M  V30 29 H 3.111943 -2.946019 -2.772936 0
M  V30 30 H 3.056677 1.968996 -3.293327 0
M  V30 31 H -1.177196 0.525893 1.290534 0
M  V30 32 H -1.040952 0.048566 -0.492239 0
M  V30 33 H -2.398614 2.300865 0.632226 0
M  V30 34 H -1.835616 2.116254 -1.059644 0
M  V30 35 H -0.597145 3.376653 2.200304 0
M  V30 36 H 0.757772 4.085960 1.303724 0
M  V30 37 H 0.666540 1.451275 2.444474 0
M  V30 38 H 1.988018 2.230893 1.479869 0
M  V30 39 H 1.571486 -0.751767 2.224413 0
M  V30 40 H 0.099026 -1.322920 4.154924 0
M  V30 END ATOM
M  V30 BEGIN BOND
M  V30 1 1 1 2
M  V30 2 2 2 3
M  V30 3 1 3 4
M  V30 4 2 4 5
M  V30 5 1 5 6
M  V30 6 2 6 7
M  V30 7 1 7 8
M  V30 8 1 8 9
M  V30 9 2 9 10
M  V30 10 1 10 11
M  V30 11 2 11 12
M  V30 12 1 12 13
M  V30 13 1 13 14
M  V30 14 1 14 15
M  V30 15 1 15 16
M  V30 16 1 16 17
M  V30 17 1 17 18
M  V30 18 1 18 19
M  V30 19 2 13 20
M  V30 20 1 5 21
M  V30 21 2 21 22
M  V30 22 1 22 2
M  V30 23 1 20 6
M  V30 24 1 20 9
M  V30 25 1 19 14
M  V30 26 1 1 23
M  V30 27 1 1 24
M  V30 28 1 1 25
M  V30 29 1 3 26
M  V30 30 1 4 27
M  V30 31 1 7 28
M  V30 32 1 8 29
M  V30 33 1 11 30
M  V30 34 1 15 31
M  V30 35 1 15 32
M  V30 36 1 16 33
M  V30 37 1 16 34
M  V30 38 1 18 35
M  V30 39 1 18 36
M  V30 40 1 19 37
M  V30 41 1 19 38
M  V30 42 1 21 39
M  V30 43 1 22 40
M  V30 END BOND
M  V30 END CTAB
M  END
>  <Dataset>  (253) 
ChEMBL_Kinases

>  <Ligand_Instance>  (253) 
nan

>  <PDB_ID>  (253) 
nan

>  <Standardized_SMILES>  (253) 
Cc1ccc(-c2c[nH]c3ncnc(N4CCOCC4)c23)cc1

>  <Name>  (253) 
nan

>  <Pocket>  (253) 
nan

>  <ATP_Site>  (253) 
nan

>  <Peripheral>  (253) 
nan

>  <Num_H_Atoms_ProtBoundConf>  (253) 
nan

>  <Num_Resolved_Atoms>  (253) 
nan

>  <Num_Not_Resolved_Atoms>  (253) 
nan

$$$$
CHEMBL476259
     RDKit          3D

  0  0  0  0  0  0  0  0  0  0999 V3000
M  V30 BEGIN CTAB
M  V30 COUNTS 70 74 0 0 0
M  V30 BEGIN ATOM
M  V30 1 C 6.215755 -2.595709 5.858099 0
M  V30 2 C 6.176362 -1.880474 4.507500 0
M  V30 3 C 4.904356 -2.295046 3.824238 0
M  V30 4 N 4.712657 -1.715328 2.536506 0
M  V30 5 C 4.473936 -0.307580 2.635835 0
M  V30 6 C 4.233480 0.402968 1.353368 0
M  V30 7 C 3.730607 -0.426154 0.210400 0
M  V30 8 C 2.495148 0.200242 -0.399202 0
M  V30 9 C 1.273245 -0.168202 0.116833 0
M  V30 10 C 0.143383 0.414934 -0.421275 0
M  V30 11 C 0.135626 1.346325 -1.443687 0
M  V30 12 N -1.023090 1.961277 -1.979447 0
M  V30 13 C -2.381392 1.704099 -1.667390 0
M  V30 14 N -2.840614 0.738223 -0.863751 0
M  V30 15 C -4.094420 0.480407 -0.547058 0
M  V30 16 N -4.523073 -0.585140 0.301434 0
M  V30 17 C -4.887042 -1.743061 -0.442897 0
M  V30 18 C -4.823080 -1.781735 -1.812998 0
M  V30 19 C -5.169900 -2.885868 -2.594086 0
M  V30 20 F -5.076476 -2.833285 -3.957306 0
M  V30 21 C -5.608972 -4.023211 -1.957847 0
M  V30 22 C -5.692631 -4.041177 -0.592273 0
M  V30 23 C -5.335541 -2.917935 0.117594 0
M  V30 24 C -5.462362 -3.035076 1.563286 0
M  V30 25 N -5.919215 -4.207067 2.224082 0
M  V30 26 O -5.285922 -2.369567 2.606345 0
M  V30 27 C -5.063200 1.294166 -1.099574 0
M  V30 28 C -6.433226 1.400633 -1.057253 0
M  V30 29 C -6.804248 2.473410 -1.868427 0
M  V30 30 N -5.679161 2.997664 -2.386200 0
M  V30 31 C -4.631885 2.289087 -1.923281 0
M  V30 32 N -3.342019 2.467809 -2.180739 0
M  V30 33 C 1.389539 1.680502 -1.926491 0
M  V30 34 O 1.513537 2.601511 -2.951093 0
M  V30 35 C 2.700522 3.039369 -3.535573 0
M  V30 36 C 2.535407 1.119337 -1.413794 0
M  V30 37 C 3.561481 -1.876814 0.475219 0
M  V30 38 C 3.542246 -2.289992 1.907423 0
M  V30 39 H 5.589936 -3.515222 5.837781 0
M  V30 40 H 5.810351 -1.924437 6.666718 0
M  V30 41 H 7.271533 -2.762129 6.099998 0
M  V30 42 H 7.043930 -2.270826 3.905651 0
M  V30 43 H 6.308702 -0.798657 4.629975 0
M  V30 44 H 4.004782 -2.042419 4.453653 0
M  V30 45 H 4.864558 -3.417836 3.724058 0
M  V30 46 H 5.384541 0.150178 3.127449 0
M  V30 47 H 3.666148 -0.142607 3.391342 0
M  V30 48 H 3.504981 1.235718 1.585529 0
M  V30 49 H 5.165580 0.952910 1.069854 0
M  V30 50 H 4.488058 -0.303408 -0.609514 0
M  V30 51 H 1.186515 -0.891705 0.920454 0
M  V30 52 H -0.788934 0.096293 0.014142 0
M  V30 53 H -0.846791 2.704036 -2.698073 0
M  V30 54 H -4.578115 -0.558785 1.341331 0
M  V30 55 H -4.485185 -0.922932 -2.399722 0
M  V30 56 H -5.892645 -4.907486 -2.516246 0
M  V30 57 H -6.043070 -4.955233 -0.123181 0
M  V30 58 H -5.341757 -4.960336 2.664510 0
M  V30 59 H -6.971851 -4.330739 2.276361 0
M  V30 60 H -7.084682 0.730013 -0.469689 0
M  V30 61 H -7.819783 2.825008 -2.051428 0
M  V30 62 H -5.678028 3.812670 -3.030767 0
M  V30 63 H 2.559102 4.084304 -3.947363 0
M  V30 64 H 3.069430 2.436607 -4.365869 0
M  V30 65 H 3.517109 3.096099 -2.754179 0
M  V30 66 H 3.531138 1.337521 -1.748829 0
M  V30 67 H 2.544994 -2.154345 0.063391 0
M  V30 68 H 4.289883 -2.532622 -0.062128 0
M  V30 69 H 3.679400 -3.395230 1.937106 0
M  V30 70 H 2.672126 -1.942268 2.469672 0
M  V30 END ATOM
M  V30 BEGIN BOND
M  V30 1 1 1 2
M  V30 2 1 2 3
M  V30 3 1 3 4
M  V30 4 1 4 5
M  V30 5 1 5 6
M  V30 6 1 6 7
M  V30 7 1 7 8
M  V30 8 2 8 9
M  V30 9 1 9 10
M  V30 10 2 10 11
M  V30 11 1 11 12
M  V30 12 1 12 13
M  V30 13 2 13 14
M  V30 14 1 14 15
M  V30 15 1 15 16
M  V30 16 1 16 17
M  V30 17 2 17 18
M  V30 18 1 18 19
M  V30 19 1 19 20
M  V30 20 2 19 21
M  V30 21 1 21 22
M  V30 22 2 22 23
M  V30 23 1 23 24
M  V30 24 1 24 25
M  V30 25 2 24 26
M  V30 26 2 15 27
M  V30 27 1 27 28
M  V30 28 2 28 29
M  V30 29 1 29 30
M  V30 30 1 30 31
M  V30 31 2 31 32
M  V30 32 1 11 33
M  V30 33 1 33 34
M  V30 34 1 34 35
M  V30 35 2 33 36
M  V30 36 1 7 37
M  V30 37 1 37 38
M  V30 38 1 38 4
M  V30 39 1 36 8
M  V30 40 1 32 13
M  V30 41 1 23 17
M  V30 42 1 31 27
M  V30 43 1 1 39
M  V30 44 1 1 40
M  V30 45 1 1 41
M  V30 46 1 2 42
M  V30 47 1 2 43
M  V30 48 1 3 44
M  V30 49 1 3 45
M  V30 50 1 5 46
M  V30 51 1 5 47
M  V30 52 1 6 48
M  V30 53 1 6 49
M  V30 54 1 7 50
M  V30 55 1 9 51
M  V30 56 1 10 52
M  V30 57 1 12 53
M  V30 58 1 16 54
M  V30 59 1 18 55
M  V30 60 1 21 56
M  V30 61 1 22 57
M  V30 62 1 25 58
M  V30 63 1 25 59
M  V30 64 1 28 60
M  V30 65 1 29 61
M  V30 66 1 30 62
M  V30 67 1 35 63
M  V30 68 1 35 64
M  V30 69 1 35 65
M  V30 70 1 36 66
M  V30 71 1 37 67
M  V30 72 1 37 68
M  V30 73 1 38 69
M  V30 74 1 38 70
M  V30 END BOND
M  V30 END CTAB
M  END
>  <Dataset>  (254) 
ChEMBL_Kinases

>  <Ligand_Instance>  (254) 
nan

>  <PDB_ID>  (254) 
nan

>  <Standardized_SMILES>  (254) 
CCCN1CCC(c2ccc(Nc3nc(Nc4cc(F)ccc4C(N)=O)c4cc[nH]c4n3)c(OC)c2)CC1

>  <Name>  (254) 
GSK-1326255A

>  <Pocket>  (254) 
nan

>  <ATP_Site>  (254) 
nan

>  <Peripheral>  (254) 
nan

>  <Num_H_Atoms_ProtBoundConf>  (254) 
nan

>  <Num_Resolved_Atoms>  (254) 
nan

>  <Num_Not_Resolved_Atoms>  (254) 
nan

$$$$
CHEMBL4762609
     RDKit          3D

  0  0  0  0  0  0  0  0  0  0999 V3000
M  V30 BEGIN CTAB
M  V30 COUNTS 58 62 0 0 0
M  V30 BEGIN ATOM
M  V30 1 O 2.174805 1.414105 4.037798 0
M  V30 2 C 2.625227 1.670950 2.895863 0
M  V30 3 C 3.711607 0.774170 2.425387 0
M  V30 4 C 3.219019 -0.622652 2.161870 0
M  V30 5 C 3.129034 -1.698589 3.015185 0
M  V30 6 C 2.630825 -2.897683 2.537064 0
M  V30 7 C 2.213561 -3.079243 1.236100 0
M  V30 8 F 1.742336 -4.294191 0.881609 0
M  V30 9 C 2.295015 -2.002603 0.350473 0
M  V30 10 F 1.890098 -2.159157 -0.933663 0
M  V30 11 C 2.800894 -0.794682 0.846068 0
M  V30 12 N 2.088816 2.757593 2.157844 0
M  V30 13 C 1.054757 3.615672 2.712688 0
M  V30 14 C 0.202201 4.242317 1.626771 0
M  V30 15 C -0.049521 3.238179 0.506392 0
M  V30 16 N -0.831949 2.120403 0.974983 0
M  V30 17 C -1.211471 0.918845 0.319582 0
M  V30 18 N -1.967949 -0.014671 0.975961 0
M  V30 19 C -2.322653 -1.167711 0.393938 0
M  V30 20 C -1.916413 -1.411084 -0.884713 0
M  V30 21 C -2.151151 -2.523366 -1.682566 0
M  V30 22 N -2.898331 -3.699148 -1.319154 0
M  V30 23 C -2.395035 -4.423568 -0.166785 0
M  V30 24 C -2.710358 -5.904032 -0.419793 0
M  V30 25 O -2.783594 -6.195998 -1.756358 0
M  V30 26 C -3.806833 -5.590652 -2.440163 0
M  V30 27 C -4.074559 -4.157944 -2.034554 0
M  V30 28 N -1.504252 -2.213690 -2.844547 0
M  V30 29 N -0.940193 -1.024681 -2.735256 0
M  V30 30 C -1.160401 -0.464243 -1.525830 0
M  V30 31 N -0.795007 0.693804 -0.964364 0
M  V30 32 C 1.265076 2.833137 -0.132682 0
M  V30 33 C 2.421220 3.156696 0.803427 0
M  V30 34 H 4.281480 1.193658 1.578514 0
M  V30 35 H 4.467082 0.641496 3.242881 0
M  V30 36 H 3.478945 -1.464676 4.007485 0
M  V30 37 H 2.618787 -3.657900 3.332152 0
M  V30 38 H 2.826124 -0.016457 0.081579 0
M  V30 39 H 1.537569 4.380011 3.346859 0
M  V30 40 H 0.365172 3.030198 3.363578 0
M  V30 41 H -0.767070 4.577573 2.000136 0
M  V30 42 H 0.738953 5.104634 1.202817 0
M  V30 43 H -0.639434 3.768121 -0.260360 0
M  V30 44 H -1.181585 2.220243 1.980163 0
M  V30 45 H -2.904957 -1.777805 1.037042 0
M  V30 46 H -3.020355 -4.132152 0.715081 0
M  V30 47 H -1.313144 -4.272441 0.017775 0
M  V30 48 H -1.838719 -6.480336 -0.005526 0
M  V30 49 H -3.602413 -6.232690 0.147499 0
M  V30 50 H -4.731229 -6.203791 -2.495547 0
M  V30 51 H -3.457947 -5.522669 -3.513958 0
M  V30 52 H -4.244574 -3.500368 -2.911853 0
M  V30 53 H -4.962421 -4.131636 -1.357760 0
M  V30 54 H -0.388891 -0.589134 -3.516919 0
M  V30 55 H 1.238320 1.739165 -0.284469 0
M  V30 56 H 1.377872 3.303256 -1.115743 0
M  V30 57 H 2.578024 4.250897 0.774525 0
M  V30 58 H 3.344196 2.638672 0.502738 0
M  V30 END ATOM
M  V30 BEGIN BOND
M  V30 1 2 1 2
M  V30 2 1 2 3
M  V30 3 1 3 4
M  V30 4 2 4 5
M  V30 5 1 5 6
M  V30 6 2 6 7
M  V30 7 1 7 8
M  V30 8 1 7 9
M  V30 9 1 9 10
M  V30 10 2 9 11
M  V30 11 1 2 12
M  V30 12 1 12 13
M  V30 13 1 13 14
M  V30 14 1 14 15
M  V30 15 1 15 16
M  V30 16 1 16 17
M  V30 17 2 17 18
M  V30 18 1 18 19
M  V30 19 2 19 20
M  V30 20 1 20 21
M  V30 21 1 21 22
M  V30 22 1 22 23
M  V30 23 1 23 24
M  V30 24 1 24 25
M  V30 25 1 25 26
M  V30 26 1 26 27
M  V30 27 2 21 28
M  V30 28 1 28 29
M  V30 29 1 29 30
M  V30 30 2 30 31
M  V30 31 1 15 32
M  V30 32 1 32 33
M  V30 33 1 11 4
M  V30 34 1 33 12
M  V30 35 1 31 17
M  V30 36 1 30 20
M  V30 37 1 27 22
M  V30 38 1 3 34
M  V30 39 1 3 35
M  V30 40 1 5 36
M  V30 41 1 6 37
M  V30 42 1 11 38
M  V30 43 1 13 39
M  V30 44 1 13 40
M  V30 45 1 14 41
M  V30 46 1 14 42
M  V30 47 1 15 43
M  V30 48 1 16 44
M  V30 49 1 19 45
M  V30 50 1 23 46
M  V30 51 1 23 47
M  V30 52 1 24 48
M  V30 53 1 24 49
M  V30 54 1 26 50
M  V30 55 1 26 51
M  V30 56 1 27 52
M  V30 57 1 27 53
M  V30 58 1 29 54
M  V30 59 1 32 55
M  V30 60 1 32 56
M  V30 61 1 33 57
M  V30 62 1 33 58
M  V30 END BOND
M  V30 END CTAB
M  END
>  <Dataset>  (255) 
ChEMBL_Kinases

>  <Ligand_Instance>  (255) 
nan

>  <PDB_ID>  (255) 
nan

>  <Standardized_SMILES>  (255) 
O=C(Cc1ccc(F)c(F)c1)N1CCC(Nc2ncc3c(N4CCOCC4)n[nH]c3n2)CC1

>  <Name>  (255) 
nan

>  <Pocket>  (255) 
nan

>  <ATP_Site>  (255) 
nan

>  <Peripheral>  (255) 
nan

>  <Num_H_Atoms_ProtBoundConf>  (255) 
nan

>  <Num_Resolved_Atoms>  (255) 
nan

>  <Num_Not_Resolved_Atoms>  (255) 
nan

$$$$
CHEMBL1836721
     RDKit          3D

  0  0  0  0  0  0  0  0  0  0999 V3000
M  V30 BEGIN CTAB
M  V30 COUNTS 34 36 0 0 0
M  V30 BEGIN ATOM
M  V30 1 N 1.414966 -7.205586 1.229637 0
M  V30 2 C 1.310968 -6.096908 2.115397 0
M  V30 3 O 1.391881 -6.285582 3.355265 0
M  V30 4 C 1.111793 -4.746720 1.598417 0
M  V30 5 C 1.014606 -3.702984 2.501098 0
M  V30 6 C 0.823736 -2.384292 2.081727 0
M  V30 7 C 0.742582 -2.220813 0.714093 0
M  V30 8 C 0.543646 -0.889096 0.158599 0
M  V30 9 C 0.426115 -0.391068 -1.055399 0
M  V30 10 C 0.243592 0.933298 -1.250922 0
M  V30 11 N 0.101757 1.635434 -2.404361 0
M  V30 12 C -0.070236 2.946079 -2.399543 0
M  V30 13 N -0.130391 3.760654 -1.307152 0
M  V30 14 C 0.004209 3.120035 -0.131810 0
M  V30 15 S -0.037643 3.960312 1.441182 0
M  V30 16 C -1.731499 4.059962 2.086783 0
M  V30 17 C -2.580965 4.927428 1.229387 0
M  V30 18 O -1.789038 5.297021 0.325721 0
M  V30 19 O -3.621045 5.647248 0.674145 0
M  V30 20 C 0.189365 1.713315 -0.125221 0
M  V30 21 S 0.398390 0.557381 1.203442 0
M  V30 22 C 0.835092 -3.237640 -0.214033 0
M  V30 23 C 1.023781 -4.528738 0.237707 0
M  V30 24 H 1.954739 -7.626192 0.451608 0
M  V30 25 H 0.686888 -7.952885 1.337800 0
M  V30 26 H 1.089429 -3.925777 3.552496 0
M  V30 27 H 0.746625 -1.566723 2.770125 0
M  V30 28 H 0.487817 -1.127737 -1.871267 0
M  V30 29 H -0.176476 3.432716 -3.381330 0
M  V30 30 H -2.169126 3.039628 2.046537 0
M  V30 31 H -1.734106 4.507337 3.080194 0
M  V30 32 H -4.368881 5.214081 0.142964 0
M  V30 33 H 0.765487 -3.059746 -1.279327 0
M  V30 34 H 1.100338 -5.346928 -0.455716 0
M  V30 END ATOM
M  V30 BEGIN BOND
M  V30 1 1 1 2
M  V30 2 2 2 3
M  V30 3 1 2 4
M  V30 4 2 4 5
M  V30 5 1 5 6
M  V30 6 2 6 7
M  V30 7 1 7 8
M  V30 8 2 8 9
M  V30 9 1 9 10
M  V30 10 2 10 11
M  V30 11 1 11 12
M  V30 12 2 12 13
M  V30 13 1 13 14
M  V30 14 1 14 15
M  V30 15 1 15 16
M  V30 16 1 16 17
M  V30 17 2 17 18
M  V30 18 1 17 19
M  V30 19 2 14 20
M  V30 20 1 20 21
M  V30 21 1 7 22
M  V30 22 2 22 23
M  V30 23 1 23 4
M  V30 24 1 21 8
M  V30 25 1 20 10
M  V30 26 1 1 24
M  V30 27 1 1 25
M  V30 28 1 5 26
M  V30 29 1 6 27
M  V30 30 1 9 28
M  V30 31 1 12 29
M  V30 32 1 16 30
M  V30 33 1 16 31
M  V30 34 1 19 32
M  V30 35 1 22 33
M  V30 36 1 23 34
M  V30 END BOND
M  V30 END CTAB
M  END
>  <Dataset>  (256) 
ChEMBL_Kinases

>  <Ligand_Instance>  (256) 
nan

>  <PDB_ID>  (256) 
nan

>  <Standardized_SMILES>  (256) 
NC(=O)c1ccc(-c2cc3ncnc(SCC(=O)O)c3s2)cc1

>  <Name>  (256) 
nan

>  <Pocket>  (256) 
nan

>  <ATP_Site>  (256) 
nan

>  <Peripheral>  (256) 
nan

>  <Num_H_Atoms_ProtBoundConf>  (256) 
nan

>  <Num_Resolved_Atoms>  (256) 
nan

>  <Num_Not_Resolved_Atoms>  (256) 
nan

$$$$
CHEMBL5076995
     RDKit          3D

  0  0  0  0  0  0  0  0  0  0999 V3000
M  V30 BEGIN CTAB
M  V30 COUNTS 36 39 0 0 0
M  V30 BEGIN ATOM
M  V30 1 Cl -2.128598 -4.031617 1.961717 0
M  V30 2 C -1.664436 -3.212387 0.492038 0
M  V30 3 C -2.473985 -3.102049 -0.609296 0
M  V30 4 C -2.045117 -2.442910 -1.734937 0
M  V30 5 C -0.775022 -1.902927 -1.705379 0
M  V30 6 C 0.102081 -1.980518 -0.611769 0
M  V30 7 C 1.388537 -1.362026 -0.878014 0
M  V30 8 C 2.158782 -1.908315 -1.914407 0
M  V30 9 N 3.348549 -1.267508 -2.009510 0
M  V30 10 C 3.372134 -0.315091 -1.059645 0
M  V30 11 N 4.269624 0.612427 -0.682316 0
M  V30 12 C 3.957711 1.425824 0.333173 0
M  V30 13 N 2.799232 1.371556 0.998963 0
M  V30 14 C 1.856474 0.468179 0.673743 0
M  V30 15 N 0.616040 0.453873 1.362356 0
M  V30 16 C 0.460180 1.399782 2.440173 0
M  V30 17 C -0.830349 1.376312 3.167693 0
M  V30 18 C -2.098059 1.648502 2.349807 0
M  V30 19 C -1.844960 0.334210 3.101506 0
M  V30 20 C 2.184790 -0.364152 -0.367799 0
M  V30 21 C -0.404490 -2.667051 0.498406 0
M  V30 22 H -3.444301 -3.567599 -0.505310 0
M  V30 23 H -2.698514 -2.367312 -2.591653 0
M  V30 24 H -0.514132 -1.393760 -2.648131 0
M  V30 25 H 1.950806 -2.728105 -2.615458 0
M  V30 26 H 4.131140 -1.439152 -2.672846 0
M  V30 27 H 4.655327 2.195765 0.676280 0
M  V30 28 H -0.261212 -0.070503 1.291085 0
M  V30 29 H 1.293519 1.305804 3.193488 0
M  V30 30 H 0.592033 2.461655 2.069899 0
M  V30 31 H -0.825906 1.988005 4.106594 0
M  V30 32 H -2.007567 1.632224 1.234000 0
M  V30 33 H -2.864434 2.323017 2.729570 0
M  V30 34 H -2.529402 0.206255 3.988872 0
M  V30 35 H -1.856763 -0.534042 2.443846 0
M  V30 36 H 0.343954 -2.673241 1.288244 0
M  V30 END ATOM
M  V30 BEGIN BOND
M  V30 1 1 1 2
M  V30 2 2 2 3
M  V30 3 1 3 4
M  V30 4 2 4 5
M  V30 5 1 5 6
M  V30 6 1 6 7
M  V30 7 2 7 8
M  V30 8 1 8 9
M  V30 9 1 9 10
M  V30 10 2 10 11
M  V30 11 1 11 12
M  V30 12 2 12 13
M  V30 13 1 13 14
M  V30 14 1 14 15
M  V30 15 1 15 16
M  V30 16 1 16 17
M  V30 17 1 17 18
M  V30 18 1 18 19
M  V30 19 2 14 20
M  V30 20 2 6 21
M  V30 21 1 21 2
M  V30 22 1 20 7
M  V30 23 1 20 10
M  V30 24 1 19 17
M  V30 25 1 3 22
M  V30 26 1 4 23
M  V30 27 1 5 24
M  V30 28 1 8 25
M  V30 29 1 9 26
M  V30 30 1 12 27
M  V30 31 1 15 28
M  V30 32 1 16 29
M  V30 33 1 16 30
M  V30 34 1 17 31
M  V30 35 1 18 32
M  V30 36 1 18 33
M  V30 37 1 19 34
M  V30 38 1 19 35
M  V30 39 1 21 36
M  V30 END BOND
M  V30 END CTAB
M  END
>  <Dataset>  (257) 
ChEMBL_Kinases

>  <Ligand_Instance>  (257) 
nan

>  <PDB_ID>  (257) 
nan

>  <Standardized_SMILES>  (257) 
Clc1cccc(-c2c[nH]c3ncnc(NCC4CC4)c23)c1

>  <Name>  (257) 
nan

>  <Pocket>  (257) 
nan

>  <ATP_Site>  (257) 
nan

>  <Peripheral>  (257) 
nan

>  <Num_H_Atoms_ProtBoundConf>  (257) 
nan

>  <Num_Resolved_Atoms>  (257) 
nan

>  <Num_Not_Resolved_Atoms>  (257) 
nan

$$$$
CHEMBL4776295
     RDKit          3D

  0  0  0  0  0  0  0  0  0  0999 V3000
M  V30 BEGIN CTAB
M  V30 COUNTS 53 56 0 0 0
M  V30 BEGIN ATOM
M  V30 1 C 6.665065 -1.649266 1.590213 0
M  V30 2 C 5.702661 -2.534849 1.405811 0
M  V30 3 C 4.570913 -3.393049 1.108944 0
M  V30 4 O 3.760094 -4.341594 1.041747 0
M  V30 5 N 3.506211 -2.941346 0.277456 0
M  V30 6 C 2.395106 -3.836415 0.034980 0
M  V30 7 C 1.438152 -3.027341 -0.799210 0
M  V30 8 C 2.230705 -1.864159 -1.374837 0
M  V30 9 C 1.382857 -0.640267 -1.465084 0
M  V30 10 C 0.801116 -0.037322 -2.551135 0
M  V30 11 C 0.058237 1.113774 -2.430017 0
M  V30 12 C -0.141672 1.729140 -1.187225 0
M  V30 13 C -0.931412 2.978070 -1.111608 0
M  V30 14 C -0.001112 4.071970 -0.626118 0
M  V30 15 C -2.124517 2.822151 -0.339713 0
M  V30 16 O -1.602061 1.629934 -0.405402 0
M  V30 17 N -3.294632 2.661065 0.419131 0
M  V30 18 C -3.877113 1.537232 1.020991 0
M  V30 19 C -3.522719 0.221550 1.053861 0
M  V30 20 C -4.512986 -0.362672 1.822243 0
M  V30 21 C -4.584571 -1.827468 2.164454 0
M  V30 22 C -4.164444 -2.780682 1.030658 0
M  V30 23 C -3.253809 -2.582273 2.166864 0
M  V30 24 N -5.412588 0.571689 2.224600 0
M  V30 25 N -5.006283 1.745223 1.720521 0
M  V30 26 C 0.476089 1.068337 -0.111835 0
M  V30 27 N 1.194808 -0.056255 -0.274191 0
M  V30 28 C 3.350667 -1.674262 -0.403352 0
M  V30 29 H 7.534645 -1.834353 2.186390 0
M  V30 30 H 6.223831 -0.858834 0.984399 0
M  V30 31 H 5.943187 -3.457302 1.950141 0
M  V30 32 H 1.871051 -4.114012 0.989241 0
M  V30 33 H 2.715513 -4.735523 -0.529334 0
M  V30 34 H 0.597930 -2.668503 -0.185463 0
M  V30 35 H 1.070272 -3.673740 -1.645611 0
M  V30 36 H 2.627149 -2.153711 -2.367894 0
M  V30 37 H 1.001227 -0.576556 -3.484688 0
M  V30 38 H -0.363933 1.518399 -3.352885 0
M  V30 39 H -1.231327 3.226931 -2.180163 0
M  V30 40 H 0.821673 4.146179 -1.367002 0
M  V30 41 H 0.454857 3.755296 0.331482 0
M  V30 42 H -0.486176 5.066975 -0.596986 0
M  V30 43 H -3.484826 3.695197 0.315622 0
M  V30 44 H -2.669746 -0.193538 0.577937 0
M  V30 45 H -5.413522 -2.174643 2.785323 0
M  V30 46 H -4.785273 -3.683774 0.896867 0
M  V30 47 H -3.884209 -2.297506 0.063838 0
M  V30 48 H -3.118603 -3.420930 2.892721 0
M  V30 49 H -2.328945 -1.969170 2.005109 0
M  V30 50 H -6.260472 0.418352 2.811849 0
M  V30 51 H 0.339952 1.520688 0.855964 0
M  V30 52 H 3.100925 -0.868858 0.342467 0
M  V30 53 H 4.345120 -1.472298 -0.893891 0
M  V30 END ATOM
M  V30 BEGIN BOND
M  V30 1 2 1 2
M  V30 2 1 2 3
M  V30 3 2 3 4
M  V30 4 1 3 5
M  V30 5 1 5 6
M  V30 6 1 6 7
M  V30 7 1 7 8
M  V30 8 1 8 9
M  V30 9 2 9 10
M  V30 10 1 10 11
M  V30 11 2 11 12
M  V30 12 1 12 13
M  V30 13 1 13 14
M  V30 14 1 13 15
M  V30 15 2 15 16
M  V30 16 1 15 17
M  V30 17 1 17 18
M  V30 18 1 18 19
M  V30 19 2 19 20
M  V30 20 1 20 21
M  V30 21 1 21 22
M  V30 22 1 22 23
M  V30 23 1 20 24
M  V30 24 1 24 25
M  V30 25 1 12 26
M  V30 26 2 26 27
M  V30 27 1 8 28
M  V30 28 1 28 5
M  V30 29 1 27 9
M  V30 30 2 25 18
M  V30 31 1 23 21
M  V30 32 1 1 29
M  V30 33 1 1 30
M  V30 34 1 2 31
M  V30 35 1 6 32
M  V30 36 1 6 33
M  V30 37 1 7 34
M  V30 38 1 7 35
M  V30 39 1 8 36
M  V30 40 1 10 37
M  V30 41 1 11 38
M  V30 42 1 13 39
M  V30 43 1 14 40
M  V30 44 1 14 41
M  V30 45 1 14 42
M  V30 46 1 17 43
M  V30 47 1 19 44
M  V30 48 1 21 45
M  V30 49 1 22 46
M  V30 50 1 22 47
M  V30 51 1 23 48
M  V30 52 1 23 49
M  V30 53 1 24 50
M  V30 54 1 26 51
M  V30 55 1 28 52
M  V30 56 1 28 53
M  V30 END BOND
M  V30 END CTAB
M  END
>  <Dataset>  (258) 
ChEMBL_Kinases

>  <Ligand_Instance>  (258) 
nan

>  <PDB_ID>  (258) 
nan

>  <Standardized_SMILES>  (258) 
C=CC(=O)N1CCC(c2ccc(C(C)C(=O)Nc3cc(C4CC4)[nH]n3)cn2)C1

>  <Name>  (258) 
nan

>  <Pocket>  (258) 
nan

>  <ATP_Site>  (258) 
nan

>  <Peripheral>  (258) 
nan

>  <Num_H_Atoms_ProtBoundConf>  (258) 
nan

>  <Num_Resolved_Atoms>  (258) 
nan

>  <Num_Not_Resolved_Atoms>  (258) 
nan

$$$$
CHEMBL1395850
     RDKit          3D

  0  0  0  0  0  0  0  0  0  0999 V3000
M  V30 BEGIN CTAB
M  V30 COUNTS 41 43 0 0 0
M  V30 BEGIN ATOM
M  V30 1 C 0.366449 -7.480667 -0.338364 0
M  V30 2 C 0.340959 -6.091078 0.178136 0
M  V30 3 O -0.613125 -5.741864 0.913446 0
M  V30 4 N 1.362487 -5.169866 -0.142954 0
M  V30 5 C 1.436684 -3.775969 0.309900 0
M  V30 6 C 0.227628 -3.042827 -0.181098 0
M  V30 7 N 0.185294 -1.642923 0.206946 0
M  V30 8 C 1.190236 -0.750200 -0.253345 0
M  V30 9 N 2.186404 -1.159509 -1.054858 0
M  V30 10 C 3.155200 -0.381025 -1.527820 0
M  V30 11 N 3.181819 0.943576 -1.201277 0
M  V30 12 C 2.228575 1.463311 -0.400904 0
M  V30 13 C 2.227885 2.798658 -0.052113 0
M  V30 14 C 1.245575 3.316047 0.768369 0
M  V30 15 C 0.247985 2.462283 1.241873 0
M  V30 16 C -0.787727 3.017701 2.109454 0
M  V30 17 C -1.044312 2.216770 3.206299 0
M  V30 18 C -2.001450 2.560950 4.167099 0
M  V30 19 C -2.687552 3.745055 3.975029 0
M  V30 20 C -2.442124 4.551904 2.887586 0
M  V30 21 C -1.488725 4.193467 1.945190 0
M  V30 22 Cl -1.081000 5.118657 0.528539 0
M  V30 23 C 0.293131 1.136837 0.864630 0
M  V30 24 C 1.258764 0.592809 0.048798 0
M  V30 25 H -0.149955 -8.138793 0.390446 0
M  V30 26 H 1.423048 -7.853651 -0.456085 0
M  V30 27 H -0.216034 -7.602128 -1.289090 0
M  V30 28 H 2.133096 -5.548118 -0.770280 0
M  V30 29 H 1.483333 -3.835242 1.419874 0
M  V30 30 H 2.340707 -3.305361 -0.113805 0
M  V30 31 H -0.678221 -3.540195 0.184490 0
M  V30 32 H 0.208038 -3.134815 -1.310226 0
M  V30 33 H -0.601218 -1.350030 0.821949 0
M  V30 34 H 3.939180 -0.789334 -2.181072 0
M  V30 35 H 3.027516 3.434884 -0.444197 0
M  V30 36 H 1.309150 4.365559 0.997822 0
M  V30 37 H -0.541292 1.262710 3.427835 0
M  V30 38 H -2.205389 1.930972 5.032660 0
M  V30 39 H -3.451392 4.073918 4.690897 0
M  V30 40 H -2.943731 5.491304 2.677938 0
M  V30 41 H -0.513061 0.560173 1.277367 0
M  V30 END ATOM
M  V30 BEGIN BOND
M  V30 1 1 1 2
M  V30 2 2 2 3
M  V30 3 1 2 4
M  V30 4 1 4 5
M  V30 5 1 5 6
M  V30 6 1 6 7
M  V30 7 1 7 8
M  V30 8 2 8 9
M  V30 9 1 9 10
M  V30 10 2 10 11
M  V30 11 1 11 12
M  V30 12 2 12 13
M  V30 13 1 13 14
M  V30 14 2 14 15
M  V30 15 1 15 16
M  V30 16 2 16 17
M  V30 17 1 17 18
M  V30 18 2 18 19
M  V30 19 1 19 20
M  V30 20 2 20 21
M  V30 21 1 21 22
M  V30 22 1 15 23
M  V30 23 2 23 24
M  V30 24 1 24 8
M  V30 25 1 24 12
M  V30 26 1 21 16
M  V30 27 1 1 25
M  V30 28 1 1 26
M  V30 29 1 1 27
M  V30 30 1 4 28
M  V30 31 1 5 29
M  V30 32 1 5 30
M  V30 33 1 6 31
M  V30 34 1 6 32
M  V30 35 1 7 33
M  V30 36 1 10 34
M  V30 37 1 13 35
M  V30 38 1 14 36
M  V30 39 1 17 37
M  V30 40 1 18 38
M  V30 41 1 19 39
M  V30 42 1 20 40
M  V30 43 1 23 41
M  V30 END BOND
M  V30 END CTAB
M  END
>  <Dataset>  (259) 
ChEMBL_Kinases

>  <Ligand_Instance>  (259) 
nan

>  <PDB_ID>  (259) 
nan

>  <Standardized_SMILES>  (259) 
CC(=O)NCCNc1ncnc2ccc(-c3ccccc3Cl)cc12

>  <Name>  (259) 
nan

>  <Pocket>  (259) 
nan

>  <ATP_Site>  (259) 
nan

>  <Peripheral>  (259) 
nan

>  <Num_H_Atoms_ProtBoundConf>  (259) 
nan

>  <Num_Resolved_Atoms>  (259) 
nan

>  <Num_Not_Resolved_Atoms>  (259) 
nan

$$$$
CHEMBL507635
     RDKit          3D

  0  0  0  0  0  0  0  0  0  0999 V3000
M  V30 BEGIN CTAB
M  V30 COUNTS 30 33 0 0 0
M  V30 BEGIN ATOM
M  V30 1 N 5.605796 -1.967085 2.908870 0
M  V30 2 C 4.340798 -2.411174 2.444125 0
M  V30 3 N 4.035768 -3.740317 2.412696 0
M  V30 4 C 2.794234 -4.011382 1.945773 0
M  V30 5 N 1.917394 -3.115000 1.544293 0
M  V30 6 C 2.162521 -1.793330 1.552875 0
M  V30 7 C 3.417474 -1.499795 2.023506 0
M  V30 8 S 3.583385 0.264405 1.971954 0
M  V30 9 C 1.847884 0.509129 1.278220 0
M  V30 10 N 1.222296 1.656690 0.958290 0
M  V30 11 C -0.029685 1.657689 0.469366 0
M  V30 12 C -0.563338 0.396962 0.344139 0
M  V30 13 C -1.941896 0.327263 -0.189325 0
M  V30 14 C -2.411925 -0.728135 -0.943629 0
M  V30 15 C -3.696502 -0.770298 -1.427979 0
M  V30 16 C -4.566902 0.269082 -1.163576 0
M  V30 17 C -4.123938 1.349453 -0.405109 0
M  V30 18 C -2.826486 1.363817 0.068421 0
M  V30 19 C 0.063006 -0.779971 0.666289 0
M  V30 20 C 1.346228 -0.771024 1.166789 0
M  V30 21 H 6.585792 -1.798302 2.594710 0
M  V30 22 H 5.477739 -1.734503 3.930315 0
M  V30 23 H 2.475274 -5.066080 1.890727 0
M  V30 24 H -0.469222 2.599131 0.235767 0
M  V30 25 H -1.743253 -1.546334 -1.157861 0
M  V30 26 H -4.014852 -1.633736 -2.021200 0
M  V30 27 H -5.577015 0.280344 -1.519746 0
M  V30 28 H -4.767625 2.185608 -0.172157 0
M  V30 29 H -2.466932 2.194701 0.658577 0
M  V30 30 H -0.473142 -1.704951 0.517785 0
M  V30 END ATOM
M  V30 BEGIN BOND
M  V30 1 1 1 2
M  V30 2 2 2 3
M  V30 3 1 3 4
M  V30 4 2 4 5
M  V30 5 1 5 6
M  V30 6 2 6 7
M  V30 7 1 7 8
M  V30 8 1 8 9
M  V30 9 2 9 10
M  V30 10 1 10 11
M  V30 11 2 11 12
M  V30 12 1 12 13
M  V30 13 2 13 14
M  V30 14 1 14 15
M  V30 15 2 15 16
M  V30 16 1 16 17
M  V30 17 2 17 18
M  V30 18 1 12 19
M  V30 19 2 19 20
M  V30 20 1 7 2
M  V30 21 1 20 9
M  V30 22 1 20 6
M  V30 23 1 18 13
M  V30 24 1 1 21
M  V30 25 1 1 22
M  V30 26 1 4 23
M  V30 27 1 11 24
M  V30 28 1 14 25
M  V30 29 1 15 26
M  V30 30 1 16 27
M  V30 31 1 17 28
M  V30 32 1 18 29
M  V30 33 1 19 30
M  V30 END BOND
M  V30 END CTAB
M  END
>  <Dataset>  (260) 
ChEMBL_Kinases

>  <Ligand_Instance>  (260) 
nan

>  <PDB_ID>  (260) 
nan

>  <Standardized_SMILES>  (260) 
Nc1ncnc2c1sc1ncc(-c3ccccc3)cc12

>  <Name>  (260) 
nan

>  <Pocket>  (260) 
nan

>  <ATP_Site>  (260) 
nan

>  <Peripheral>  (260) 
nan

>  <Num_H_Atoms_ProtBoundConf>  (260) 
nan

>  <Num_Resolved_Atoms>  (260) 
nan

>  <Num_Not_Resolved_Atoms>  (260) 
nan

$$$$
CHEMBL181549
     RDKit          3D

  0  0  0  0  0  0  0  0  0  0999 V3000
M  V30 BEGIN CTAB
M  V30 COUNTS 21 22 0 0 0
M  V30 BEGIN ATOM
M  V30 1 C 0.997846 1.442365 3.793132 0
M  V30 2 C 0.830409 0.632366 2.552310 0
M  V30 3 C 0.867005 -0.693497 2.654121 0
M  V30 4 Br 1.130865 -1.464785 4.378703 0
M  V30 5 C 0.709719 -1.547500 1.477979 0
M  V30 6 O 0.743227 -2.803570 1.566460 0
M  V30 7 C 0.509712 -0.918766 0.175653 0
M  V30 8 C 0.353694 -1.689245 -0.982456 0
M  V30 9 C 0.168139 -1.032251 -2.182470 0
M  V30 10 C 0.125481 0.348620 -2.319699 0
M  V30 11 C 0.280621 1.123749 -1.167079 0
M  V30 12 C 0.465265 0.454634 0.025294 0
M  V30 13 C 0.629871 1.266685 1.246968 0
M  V30 14 O 0.596204 2.521855 1.157297 0
M  V30 15 H 0.374117 1.029864 4.612394 0
M  V30 16 H 0.545495 2.440149 3.566732 0
M  V30 17 H 2.058067 1.517366 4.100880 0
M  V30 18 H 0.379514 -2.774908 -0.927520 0
M  V30 19 H 0.043793 -1.613075 -3.101789 0
M  V30 20 H -0.020648 0.839892 -3.267777 0
M  V30 21 H 0.259445 2.205216 -1.190576 0
M  V30 END ATOM
M  V30 BEGIN BOND
M  V30 1 1 1 2
M  V30 2 2 2 3
M  V30 3 1 3 4
M  V30 4 1 3 5
M  V30 5 2 5 6
M  V30 6 1 5 7
M  V30 7 2 7 8
M  V30 8 1 8 9
M  V30 9 2 9 10
M  V30 10 1 10 11
M  V30 11 2 11 12
M  V30 12 1 12 13
M  V30 13 2 13 14
M  V30 14 1 13 2
M  V30 15 1 12 7
M  V30 16 1 1 15
M  V30 17 1 1 16
M  V30 18 1 1 17
M  V30 19 1 8 18
M  V30 20 1 9 19
M  V30 21 1 10 20
M  V30 22 1 11 21
M  V30 END BOND
M  V30 END CTAB
M  END
>  <Dataset>  (261) 
ChEMBL_Kinases

>  <Ligand_Instance>  (261) 
nan

>  <PDB_ID>  (261) 
nan

>  <Standardized_SMILES>  (261) 
CC1=C(Br)C(=O)c2ccccc2C1=O

>  <Name>  (261) 
nan

>  <Pocket>  (261) 
nan

>  <ATP_Site>  (261) 
nan

>  <Peripheral>  (261) 
nan

>  <Num_H_Atoms_ProtBoundConf>  (261) 
nan

>  <Num_Resolved_Atoms>  (261) 
nan

>  <Num_Not_Resolved_Atoms>  (261) 
nan

$$$$
CHEMBL13976
     RDKit          3D

  0  0  0  0  0  0  0  0  0  0999 V3000
M  V30 BEGIN CTAB
M  V30 COUNTS 50 52 0 0 0
M  V30 BEGIN ATOM
M  V30 1 C -0.651269 -3.092370 2.950489 0
M  V30 2 C 0.007145 -1.903321 2.364338 0
M  V30 3 N 0.252413 -0.737656 2.988739 0
M  V30 4 C 0.871099 0.095726 2.107792 0
M  V30 5 C 1.269552 1.409119 2.586951 0
M  V30 6 C 0.964542 2.631230 2.190488 0
M  V30 7 C 0.061190 2.868976 1.074397 0
M  V30 8 O -0.539361 2.018729 0.387567 0
M  V30 9 N -0.000897 4.277889 0.927152 0
M  V30 10 C 0.834314 4.857199 1.920483 0
M  V30 11 C 1.126014 6.178142 2.211872 0
M  V30 12 C 1.983034 6.562444 3.242030 0
M  V30 13 C 2.542881 5.522054 3.979251 0
M  V30 14 F 3.387014 5.846421 4.996782 0
M  V30 15 C 2.292982 4.186203 3.739769 0
M  V30 16 C 1.441592 3.901259 2.711567 0
M  V30 17 C 0.999005 -0.597029 0.922950 0
M  V30 18 C 1.666952 -0.040599 -0.293115 0
M  V30 19 C 0.457389 -1.862869 1.065393 0
M  V30 20 C 0.460051 -2.801532 -0.042474 0
M  V30 21 O 0.956881 -2.527939 -1.190579 0
M  V30 22 N -0.038629 -4.102954 -0.093582 0
M  V30 23 C 0.022159 -4.938567 -1.252708 0
M  V30 24 C -0.675206 -4.416419 -2.466693 0
M  V30 25 N -2.082210 -4.198016 -2.276950 0
M  V30 26 C -2.643134 -3.698098 -3.506683 0
M  V30 27 C -2.728084 -5.438530 -1.910341 0
M  V30 28 H -0.841510 -2.891022 4.051919 0
M  V30 29 H -1.612492 -3.310642 2.446039 0
M  V30 30 H 0.062844 -3.939572 2.974266 0
M  V30 31 H -0.024024 -0.579419 4.000090 0
M  V30 32 H 1.962450 1.392867 3.445908 0
M  V30 33 H -0.583795 4.729912 0.190155 0
M  V30 34 H 0.668104 6.962611 1.611917 0
M  V30 35 H 2.195703 7.599585 3.450747 0
M  V30 36 H 2.723460 3.396990 4.306299 0
M  V30 37 H 2.430500 -0.823446 -0.576552 0
M  V30 38 H 2.248126 0.862667 -0.024146 0
M  V30 39 H 0.980550 0.127056 -1.130725 0
M  V30 40 H -0.485018 -4.499806 0.759335 0
M  V30 41 H -0.288904 -5.961485 -1.053915 0
M  V30 42 H 1.115849 -4.994325 -1.531406 0
M  V30 43 H -0.588713 -5.237439 -3.237287 0
M  V30 44 H -0.186919 -3.549287 -2.948899 0
M  V30 45 H -2.625646 -2.570915 -3.521465 0
M  V30 46 H -3.690964 -4.044610 -3.633556 0
M  V30 47 H -2.053297 -4.031415 -4.371356 0
M  V30 48 H -3.787899 -5.395414 -2.224056 0
M  V30 49 H -2.724149 -5.563132 -0.794073 0
M  V30 50 H -2.230152 -6.320689 -2.354860 0
M  V30 END ATOM
M  V30 BEGIN BOND
M  V30 1 1 1 2
M  V30 2 1 2 3
M  V30 3 1 3 4
M  V30 4 1 4 5
M  V30 5 2 5 6
M  V30 6 1 6 7
M  V30 7 2 7 8
M  V30 8 1 7 9
M  V30 9 1 9 10
M  V30 10 2 10 11
M  V30 11 1 11 12
M  V30 12 2 12 13
M  V30 13 1 13 14
M  V30 14 1 13 15
M  V30 15 2 15 16
M  V30 16 2 4 17
M  V30 17 1 17 18
M  V30 18 1 17 19
M  V30 19 1 19 20
M  V30 20 2 20 21
M  V30 21 1 20 22
M  V30 22 1 22 23
M  V30 23 1 23 24
M  V30 24 1 24 25
M  V30 25 1 25 26
M  V30 26 1 25 27
M  V30 27 2 19 2
M  V30 28 1 16 6
M  V30 29 1 16 10
M  V30 30 1 1 28
M  V30 31 1 1 29
M  V30 32 1 1 30
M  V30 33 1 3 31
M  V30 34 1 5 32
M  V30 35 1 9 33
M  V30 36 1 11 34
M  V30 37 1 12 35
M  V30 38 1 15 36
M  V30 39 1 18 37
M  V30 40 1 18 38
M  V30 41 1 18 39
M  V30 42 1 22 40
M  V30 43 1 23 41
M  V30 44 1 23 42
M  V30 45 1 24 43
M  V30 46 1 24 44
M  V30 47 1 26 45
M  V30 48 1 26 46
M  V30 49 1 26 47
M  V30 50 1 27 48
M  V30 51 1 27 49
M  V30 52 1 27 50
M  V30 END BOND
M  V30 END CTAB
M  END
>  <Dataset>  (262) 
ChEMBL_Kinases

>  <Ligand_Instance>  (262) 
nan

>  <PDB_ID>  (262) 
nan

>  <Standardized_SMILES>  (262) 
Cc1[nH]c(/C=C2\C(=O)Nc3ccc(F)cc32)c(C)c1C(=O)NCCN(C)C

>  <Name>  (262) 
nan

>  <Pocket>  (262) 
nan

>  <ATP_Site>  (262) 
nan

>  <Peripheral>  (262) 
nan

>  <Num_H_Atoms_ProtBoundConf>  (262) 
nan

>  <Num_Resolved_Atoms>  (262) 
nan

>  <Num_Not_Resolved_Atoms>  (262) 
nan

$$$$
CHEMBL181419
     RDKit          3D

  0  0  0  0  0  0  0  0  0  0999 V3000
M  V30 BEGIN CTAB
M  V30 COUNTS 76 83 0 0 0
M  V30 BEGIN ATOM
M  V30 1 C 2.863553 2.056088 10.160116 0
M  V30 2 N 3.215601 2.417034 8.800626 0
M  V30 3 N 4.351111 3.030565 8.524769 0
M  V30 4 N 4.397241 3.228423 7.220425 0
M  V30 5 C 3.286550 2.741991 6.639758 0
M  V30 6 C 2.793690 2.674995 5.265839 0
M  V30 7 C 2.392132 3.804185 4.563119 0
M  V30 8 C 1.927756 3.730019 3.265481 0
M  V30 9 C 1.849147 2.512884 2.622303 0
M  V30 10 N 1.396915 2.400027 1.343671 0
M  V30 11 C 1.330267 1.190381 0.735416 0
M  V30 12 C 0.843133 1.085309 -0.636101 0
M  V30 13 C -0.455807 1.487815 -0.930650 0
M  V30 14 C -0.989470 1.419630 -2.200782 0
M  V30 15 C -0.208853 0.927971 -3.252706 0
M  V30 16 C -0.804902 0.867026 -4.607078 0
M  V30 17 N -1.489312 -0.335782 -4.918816 0
M  V30 18 C -0.759299 -1.543233 -4.879855 0
M  V30 19 C -1.594525 -2.747715 -4.447602 0
M  V30 20 C -2.322901 -2.298006 -3.194463 0
M  V30 21 N -2.909282 -3.419288 -2.500261 0
M  V30 22 C -3.284252 -4.612664 -2.994275 0
M  V30 23 O -3.170252 -4.993388 -4.311203 0
M  V30 24 N -3.784071 -5.362311 -1.993075 0
M  V30 25 C -3.732095 -4.661399 -0.868145 0
M  V30 26 C -4.087284 -4.887417 0.449437 0
M  V30 27 C -3.916711 -3.944915 1.463332 0
M  V30 28 C -3.363163 -2.731078 1.110969 0
M  V30 29 C -2.997680 -2.482655 -0.213622 0
M  V30 30 C -3.181890 -3.435931 -1.180652 0
M  V30 31 C -3.356999 -1.280493 -3.611615 0
M  V30 32 C -2.884378 -0.375995 -4.703901 0
M  V30 33 C 1.075131 0.535155 -2.937259 0
M  V30 34 C 1.617099 0.599637 -1.670602 0
M  V30 35 C 1.729249 0.071243 1.434664 0
M  V30 36 C 1.677012 -1.259065 0.823507 0
M  V30 37 C 0.550896 -1.947601 0.374781 0
M  V30 38 C 0.708779 -3.187516 -0.169810 0
M  V30 39 C 1.936794 -3.781985 -0.292012 0
M  V30 40 C 3.069942 -3.125868 0.142744 0
M  V30 41 C 2.925702 -1.862730 0.699542 0
M  V30 42 N 2.173353 0.204989 2.698428 0
M  V30 43 C 2.248277 1.394359 3.322132 0
M  V30 44 C 2.718617 1.433901 4.624046 0
M  V30 45 N 2.551751 2.233442 7.652525 0
M  V30 46 H 2.115107 1.235565 10.192755 0
M  V30 47 H 3.766423 1.772665 10.740568 0
M  V30 48 H 2.423171 2.938069 10.691072 0
M  V30 49 H 2.451817 4.754476 5.060665 0
M  V30 50 H 1.608244 4.600654 2.697056 0
M  V30 51 H -1.061450 1.869419 -0.113095 0
M  V30 52 H -1.986032 1.740019 -2.370358 0
M  V30 53 H -1.490882 1.727009 -4.694930 0
M  V30 54 H 0.043865 0.959537 -5.331096 0
M  V30 55 H 0.148926 -1.572148 -4.276058 0
M  V30 56 H -0.428314 -1.798623 -5.925632 0
M  V30 57 H -0.900816 -3.580999 -4.239556 0
M  V30 58 H -2.349325 -2.965751 -5.222975 0
M  V30 59 H -1.591768 -1.823533 -2.504172 0
M  V30 60 H -2.522171 -5.726023 -4.581007 0
M  V30 61 H -4.525418 -5.838228 0.747869 0
M  V30 62 H -4.206079 -4.163455 2.468781 0
M  V30 63 H -3.244013 -2.023915 1.914950 0
M  V30 64 H -2.566790 -1.494868 -0.402494 0
M  V30 65 H -4.200054 -1.880030 -4.043010 0
M  V30 66 H -3.797949 -0.728489 -2.756707 0
M  V30 67 H -3.201461 0.670897 -4.419197 0
M  V30 68 H -3.413665 -0.541820 -5.676140 0
M  V30 69 H 1.698689 0.157563 -3.711941 0
M  V30 70 H 2.631985 0.277595 -1.477775 0
M  V30 71 H -0.351850 -1.402512 0.513660 0
M  V30 72 H -0.179674 -3.700803 -0.510433 0
M  V30 73 H 2.070866 -4.768436 -0.724376 0
M  V30 74 H 4.062234 -3.596483 0.048453 0
M  V30 75 H 3.870301 -1.399151 1.024074 0
M  V30 76 H 3.022116 0.551938 5.145355 0
M  V30 END ATOM
M  V30 BEGIN BOND
M  V30 1 1 1 2
M  V30 2 1 2 3
M  V30 3 2 3 4
M  V30 4 1 4 5
M  V30 5 1 5 6
M  V30 6 2 6 7
M  V30 7 1 7 8
M  V30 8 2 8 9
M  V30 9 1 9 10
M  V30 10 2 10 11
M  V30 11 1 11 12
M  V30 12 2 12 13
M  V30 13 1 13 14
M  V30 14 2 14 15
M  V30 15 1 15 16
M  V30 16 1 16 17
M  V30 17 1 17 18
M  V30 18 1 18 19
M  V30 19 1 19 20
M  V30 20 1 20 21
M  V30 21 1 21 22
M  V30 22 1 22 23
M  V30 23 2 22 24
M  V30 24 1 24 25
M  V30 25 2 25 26
M  V30 26 1 26 27
M  V30 27 2 27 28
M  V30 28 1 28 29
M  V30 29 2 29 30
M  V30 30 1 20 31
M  V30 31 1 31 32
M  V30 32 1 15 33
M  V30 33 2 33 34
M  V30 34 1 11 35
M  V30 35 1 35 36
M  V30 36 2 36 37
M  V30 37 1 37 38
M  V30 38 2 38 39
M  V30 39 1 39 40
M  V30 40 2 40 41
M  V30 41 2 35 42
M  V30 42 1 42 43
M  V30 43 2 43 44
M  V30 44 2 5 45
M  V30 45 1 45 2
M  V30 46 1 44 6
M  V30 47 1 43 9
M  V30 48 1 34 12
M  V30 49 1 41 36
M  V30 50 1 32 17
M  V30 51 1 30 21
M  V30 52 1 30 25
M  V30 53 1 1 46
M  V30 54 1 1 47
M  V30 55 1 1 48
M  V30 56 1 7 49
M  V30 57 1 8 50
M  V30 58 1 13 51
M  V30 59 1 14 52
M  V30 60 1 16 53
M  V30 61 1 16 54
M  V30 62 1 18 55
M  V30 63 1 18 56
M  V30 64 1 19 57
M  V30 65 1 19 58
M  V30 66 1 20 59
M  V30 67 1 23 60
M  V30 68 1 26 61
M  V30 69 1 27 62
M  V30 70 1 28 63
M  V30 71 1 29 64
M  V30 72 1 31 65
M  V30 73 1 31 66
M  V30 74 1 32 67
M  V30 75 1 32 68
M  V30 76 1 33 69
M  V30 77 1 34 70
M  V30 78 1 37 71
M  V30 79 1 38 72
M  V30 80 1 39 73
M  V30 81 1 40 74
M  V30 82 1 41 75
M  V30 83 1 44 76
M  V30 END BOND
M  V30 END CTAB
M  END
>  <Dataset>  (263) 
ChEMBL_Kinases

>  <Ligand_Instance>  (263) 
nan

>  <PDB_ID>  (263) 
nan

>  <Standardized_SMILES>  (263) 
Cn1nnc(-c2ccc3nc(-c4ccc(CN5CCC(n6c(O)nc7ccccc76)CC5)cc4)c(-c4ccccc4)nc3c2)n1

>  <Name>  (263) 
nan

>  <Pocket>  (263) 
nan

>  <ATP_Site>  (263) 
nan

>  <Peripheral>  (263) 
nan

>  <Num_H_Atoms_ProtBoundConf>  (263) 
nan

>  <Num_Resolved_Atoms>  (263) 
nan

>  <Num_Not_Resolved_Atoms>  (263) 
nan

$$$$
CHEMBL5075335
     RDKit          3D

  0  0  0  0  0  0  0  0  0  0999 V3000
M  V30 BEGIN CTAB
M  V30 COUNTS 49 53 0 0 0
M  V30 BEGIN ATOM
M  V30 1 C 0.608348 -4.380649 0.153857 0
M  V30 2 N 0.014374 -3.241893 0.807928 0
M  V30 3 C 0.642441 -2.897366 2.098457 0
M  V30 4 C 1.792205 -1.997615 1.910699 0
M  V30 5 N 2.976816 -2.654897 1.711929 0
M  V30 6 N 3.989925 -1.859776 1.535254 0
M  V30 7 C 5.369600 -2.331224 1.302299 0
M  V30 8 C 3.477755 -0.625372 1.616592 0
M  V30 9 C 2.089570 -0.682496 1.853522 0
M  V30 10 C 1.471841 0.633421 1.940776 0
M  V30 11 C 1.908237 1.650627 2.762675 0
M  V30 12 N 1.379948 2.885752 2.858162 0
M  V30 13 C 0.324853 3.210356 2.102548 0
M  V30 14 N -0.457689 4.310679 1.914354 0
M  V30 15 C -1.427256 4.068019 0.980298 0
M  V30 16 C -1.191436 2.770661 0.616598 0
M  V30 17 C -0.152282 2.243059 1.270275 0
M  V30 18 C 0.384216 0.986317 1.171079 0
M  V30 19 C -1.931056 1.962841 -0.310905 0
M  V30 20 C -2.341084 2.008540 -1.612140 0
M  V30 21 N -3.014472 0.858882 -1.802934 0
M  V30 22 N -3.055430 0.102582 -0.721829 0
M  V30 23 C -2.362700 0.804656 0.241084 0
M  V30 24 C -3.569581 -1.147212 -0.276809 0
M  V30 25 C -3.270187 -2.380085 -1.001372 0
M  V30 26 C -1.894163 -2.807420 -1.284385 0
M  V30 27 C -0.988225 -2.922092 -0.138793 0
M  V30 28 O -1.310176 -2.117740 0.744485 0
M  V30 29 H 0.987191 -4.183975 -0.857387 0
M  V30 30 H -0.143767 -5.217874 0.174517 0
M  V30 31 H 1.478535 -4.815926 0.704869 0
M  V30 32 H 0.831667 -3.818899 2.602894 0
M  V30 33 H -0.137821 -2.345968 2.722334 0
M  V30 34 H 5.428246 -2.688469 0.253253 0
M  V30 35 H 6.045319 -1.481468 1.408211 0
M  V30 36 H 5.609133 -3.182423 1.966329 0
M  V30 37 H 4.244396 0.156982 1.482137 0
M  V30 38 H 2.766355 1.457745 3.409264 0
M  V30 39 H -0.349761 5.224152 2.405173 0
M  V30 40 H -2.217626 4.668913 0.562773 0
M  V30 41 H 0.003286 0.235009 0.497520 0
M  V30 42 H -2.051180 2.893315 -2.142485 0
M  V30 43 H -2.221768 0.432124 1.278920 0
M  V30 44 H -4.718945 -1.048557 -0.319398 0
M  V30 45 H -3.429483 -1.259637 0.839793 0
M  V30 46 H -3.749095 -3.231729 -0.407834 0
M  V30 47 H -3.830194 -2.461685 -1.981613 0
M  V30 48 H -1.932475 -3.822537 -1.750392 0
M  V30 49 H -1.483506 -2.067101 -2.046982 0
M  V30 END ATOM
M  V30 BEGIN BOND
M  V30 1 1 1 2
M  V30 2 1 2 3
M  V30 3 1 3 4
M  V30 4 2 4 5
M  V30 5 1 5 6
M  V30 6 1 6 7
M  V30 7 1 6 8
M  V30 8 2 8 9
M  V30 9 1 9 10
M  V30 10 2 10 11
M  V30 11 1 11 12
M  V30 12 2 12 13
M  V30 13 1 13 14
M  V30 14 1 14 15
M  V30 15 2 15 16
M  V30 16 1 16 17
M  V30 17 2 17 18
M  V30 18 1 16 19
M  V30 19 1 19 20
M  V30 20 2 20 21
M  V30 21 1 21 22
M  V30 22 1 22 23
M  V30 23 1 22 24
M  V30 24 1 24 25
M  V30 25 1 25 26
M  V30 26 1 26 27
M  V30 27 2 27 28
M  V30 28 1 27 2
M  V30 29 1 9 4
M  V30 30 1 18 10
M  V30 31 2 23 19
M  V30 32 1 17 13
M  V30 33 1 1 29
M  V30 34 1 1 30
M  V30 35 1 1 31
M  V30 36 1 3 32
M  V30 37 1 3 33
M  V30 38 1 7 34
M  V30 39 1 7 35
M  V30 40 1 7 36
M  V30 41 1 8 37
M  V30 42 1 11 38
M  V30 43 1 14 39
M  V30 44 1 15 40
M  V30 45 1 18 41
M  V30 46 1 20 42
M  V30 47 1 23 43
M  V30 48 1 24 44
M  V30 49 1 24 45
M  V30 50 1 25 46
M  V30 51 1 25 47
M  V30 52 1 26 48
M  V30 53 1 26 49
M  V30 END BOND
M  V30 END CTAB
M  END
>  <Dataset>  (264) 
ChEMBL_Kinases

>  <Ligand_Instance>  (264) 
nan

>  <PDB_ID>  (264) 
nan

>  <Standardized_SMILES>  (264) 
CN1Cc2nn(C)cc2-c2cnc3[nH]cc(c3c2)-c2cnn(c2)CCCC1=O

>  <Name>  (264) 
nan

>  <Pocket>  (264) 
nan

>  <ATP_Site>  (264) 
nan

>  <Peripheral>  (264) 
nan

>  <Num_H_Atoms_ProtBoundConf>  (264) 
nan

>  <Num_Resolved_Atoms>  (264) 
nan

>  <Num_Not_Resolved_Atoms>  (264) 
nan

$$$$
CHEMBL5075321
     RDKit          3D

  0  0  0  0  0  0  0  0  0  0999 V3000
M  V30 BEGIN CTAB
M  V30 COUNTS 56 60 0 0 0
M  V30 BEGIN ATOM
M  V30 1 C 2.616942 0.241895 5.022327 0
M  V30 2 C 2.738685 -0.053028 3.593443 0
M  V30 3 N 3.869676 -0.247864 2.845162 0
M  V30 4 C 3.578392 -0.474210 1.542652 0
M  V30 5 N 4.140596 -0.721779 0.357825 0
M  V30 6 C 3.445348 -0.895776 -0.780028 0
M  V30 7 C 2.073127 -0.829510 -0.808815 0
M  V30 8 C 1.498847 -0.576883 0.401567 0
M  V30 9 C 2.218528 -0.404713 1.547641 0
M  V30 10 C 1.655071 -0.151684 2.774660 0
M  V30 11 C 0.199676 -0.112348 2.805649 0
M  V30 12 C -0.738011 0.660034 2.218818 0
M  V30 13 N -1.908343 0.135518 2.614320 0
M  V30 14 N -1.689730 -0.900579 3.402249 0
M  V30 15 C -0.353690 -1.124710 3.574926 0
M  V30 16 C 0.126999 -2.244094 4.444074 0
M  V30 17 F 0.992060 -3.096307 3.783707 0
M  V30 18 F -0.978376 -3.094452 4.721379 0
M  V30 19 F 0.562606 -1.877302 5.679303 0
M  V30 20 C -3.245352 0.552726 2.304918 0
M  V30 21 C -4.141401 -0.381343 1.609858 0
M  V30 22 C -3.857440 -0.762369 0.202622 0
M  V30 23 C -2.592996 -1.488637 0.076184 0
M  V30 24 O -1.572531 -1.978614 0.547719 0
M  V30 25 N -2.013749 -2.026391 -1.133664 0
M  V30 26 C -2.939639 -1.853053 -2.222506 0
M  V30 27 C -0.854282 -2.681304 -1.698572 0
M  V30 28 C 0.071568 -1.682575 -2.255567 0
M  V30 29 N -0.227864 -1.296581 -3.531650 0
M  V30 30 N 0.611430 -0.419267 -4.018623 0
M  V30 31 C 0.487966 0.142989 -5.379578 0
M  V30 32 C 1.513508 -0.197505 -3.045956 0
M  V30 33 C 2.566725 0.742282 -3.334550 0
M  V30 34 N 3.427002 1.498777 -3.549760 0
M  V30 35 C 1.186022 -0.972842 -1.955928 0
M  V30 36 H 1.614017 0.566255 5.308267 0
M  V30 37 H 3.025510 -0.548474 5.677188 0
M  V30 38 H 3.268397 1.146805 5.205560 0
M  V30 39 H 4.863284 -0.235392 3.179779 0
M  V30 40 H 3.910471 -1.094390 -1.736568 0
M  V30 41 H 0.445890 -0.477232 0.501668 0
M  V30 42 H -0.516315 1.494596 1.586800 0
M  V30 43 H -3.183397 1.558775 1.760429 0
M  V30 44 H -3.709008 0.859857 3.297762 0
M  V30 45 H -5.173175 0.100307 1.567441 0
M  V30 46 H -4.234209 -1.346011 2.183979 0
M  V30 47 H -3.865266 0.146646 -0.477825 0
M  V30 48 H -4.727962 -1.365660 -0.178158 0
M  V30 49 H -3.068582 -2.770242 -2.855473 0
M  V30 50 H -3.908987 -1.407649 -1.979858 0
M  V30 51 H -2.466221 -1.113864 -2.937410 0
M  V30 52 H -0.285333 -3.220921 -0.865412 0
M  V30 53 H -1.086725 -3.475792 -2.393170 0
M  V30 54 H 0.970176 -0.498379 -6.116797 0
M  V30 55 H 0.882058 1.190160 -5.386364 0
M  V30 56 H -0.598489 0.256238 -5.574800 0
M  V30 END ATOM
M  V30 BEGIN BOND
M  V30 1 1 1 2
M  V30 2 1 2 3
M  V30 3 1 3 4
M  V30 4 2 4 5
M  V30 5 1 5 6
M  V30 6 2 6 7
M  V30 7 1 7 8
M  V30 8 2 8 9
M  V30 9 1 9 10
M  V30 10 1 10 11
M  V30 11 2 11 12
M  V30 12 1 12 13
M  V30 13 1 13 14
M  V30 14 2 14 15
M  V30 15 1 15 16
M  V30 16 1 16 17
M  V30 17 1 16 18
M  V30 18 1 16 19
M  V30 19 1 13 20
M  V30 20 1 20 21
M  V30 21 1 21 22
M  V30 22 1 22 23
M  V30 23 2 23 24
M  V30 24 1 23 25
M  V30 25 1 25 26
M  V30 26 1 25 27
M  V30 27 1 27 28
M  V30 28 2 28 29
M  V30 29 1 29 30
M  V30 30 1 30 31
M  V30 31 1 30 32
M  V30 32 1 32 33
M  V30 33 3 33 34
M  V30 34 2 32 35
M  V30 35 2 10 2
M  V30 36 1 15 11
M  V30 37 1 35 28
M  V30 38 1 9 4
M  V30 39 1 35 7
M  V30 40 1 1 36
M  V30 41 1 1 37
M  V30 42 1 1 38
M  V30 43 1 3 39
M  V30 44 1 6 40
M  V30 45 1 8 41
M  V30 46 1 12 42
M  V30 47 1 20 43
M  V30 48 1 20 44
M  V30 49 1 21 45
M  V30 50 1 21 46
M  V30 51 1 22 47
M  V30 52 1 22 48
M  V30 53 1 26 49
M  V30 54 1 26 50
M  V30 55 1 26 51
M  V30 56 1 27 52
M  V30 57 1 27 53
M  V30 58 1 31 54
M  V30 59 1 31 55
M  V30 60 1 31 56
M  V30 END BOND
M  V30 END CTAB
M  END
>  <Dataset>  (265) 
ChEMBL_Kinases

>  <Ligand_Instance>  (265) 
nan

>  <PDB_ID>  (265) 
nan

>  <Standardized_SMILES>  (265) 
Cc1[nH]c2ncc3cc2c1-c1cn(nc1C(F)(F)F)CCCC(=O)N(C)Cc1nn(C)c(C#N)c1-3

>  <Name>  (265) 
nan

>  <Pocket>  (265) 
nan

>  <ATP_Site>  (265) 
nan

>  <Peripheral>  (265) 
nan

>  <Num_H_Atoms_ProtBoundConf>  (265) 
nan

>  <Num_Resolved_Atoms>  (265) 
nan

>  <Num_Not_Resolved_Atoms>  (265) 
nan

$$$$
CHEMBL5082456
     RDKit          3D

  0  0  0  0  0  0  0  0  0  0999 V3000
M  V30 BEGIN CTAB
M  V30 COUNTS 42 44 0 0 0
M  V30 BEGIN ATOM
M  V30 1 C -3.243647 -3.251298 -1.547449 0
M  V30 2 C -1.997520 -3.365939 -0.736700 0
M  V30 3 C -1.883096 -2.308339 0.328991 0
M  V30 4 C -1.837213 -0.907082 -0.174988 0
M  V30 5 N -0.716418 -0.610011 -1.039707 0
M  V30 6 C -0.497150 -0.639479 -2.364844 0
M  V30 7 C -1.510809 -1.019822 -3.349316 0
M  V30 8 N 0.751225 -0.273050 -2.684351 0
M  V30 9 C 1.416120 0.018751 -1.552615 0
M  V30 10 C 2.695430 0.440558 -1.258435 0
M  V30 11 C 3.097762 0.662892 0.042698 0
M  V30 12 C 2.151205 0.439515 1.020681 0
M  V30 13 C 2.441590 0.635444 2.438210 0
M  V30 14 C 1.454368 0.395988 3.371464 0
M  V30 15 C 1.641560 0.556612 4.748630 0
M  V30 16 N 0.604202 0.301193 5.678150 0
M  V30 17 N 2.862951 0.971607 5.195546 0
M  V30 18 C 3.849020 1.214522 4.313765 0
M  V30 19 N 5.112646 1.646748 4.814468 0
M  V30 20 C 3.648860 1.051480 2.958721 0
M  V30 21 N 0.903460 0.028018 0.732466 0
M  V30 22 C 0.494864 -0.194958 -0.550872 0
M  V30 23 H -3.041337 -3.461163 -2.634337 0
M  V30 24 H -3.990543 -4.026786 -1.209829 0
M  V30 25 H -3.725744 -2.269436 -1.483470 0
M  V30 26 H -1.098632 -3.347087 -1.394477 0
M  V30 27 H -1.975164 -4.398362 -0.288029 0
M  V30 28 H -0.995539 -2.590761 0.934798 0
M  V30 29 H -2.763114 -2.440959 1.013145 0
M  V30 30 H -2.805643 -0.666413 -0.662962 0
M  V30 31 H -1.755703 -0.209109 0.709432 0
M  V30 32 H -1.351701 -2.093501 -3.645611 0
M  V30 33 H -2.554236 -0.861507 -3.034065 0
M  V30 34 H -1.343775 -0.428251 -4.297432 0
M  V30 35 H 3.390301 0.597434 -2.072164 0
M  V30 36 H 4.095176 0.992606 0.283535 0
M  V30 37 H 0.446361 0.060415 3.095778 0
M  V30 38 H -0.063649 1.083761 5.667342 0
M  V30 39 H 0.373853 -0.452652 6.333034 0
M  V30 40 H 6.059254 1.334629 4.474314 0
M  V30 41 H 5.072642 2.339924 5.593657 0
M  V30 42 H 4.452674 1.251323 2.264542 0
M  V30 END ATOM
M  V30 BEGIN BOND
M  V30 1 1 1 2
M  V30 2 1 2 3
M  V30 3 1 3 4
M  V30 4 1 4 5
M  V30 5 1 5 6
M  V30 6 1 6 7
M  V30 7 2 6 8
M  V30 8 1 8 9
M  V30 9 2 9 10
M  V30 10 1 10 11
M  V30 11 2 11 12
M  V30 12 1 12 13
M  V30 13 2 13 14
M  V30 14 1 14 15
M  V30 15 1 15 16
M  V30 16 2 15 17
M  V30 17 1 17 18
M  V30 18 1 18 19
M  V30 19 2 18 20
M  V30 20 1 12 21
M  V30 21 2 21 22
M  V30 22 1 22 5
M  V30 23 1 22 9
M  V30 24 1 20 13
M  V30 25 1 1 23
M  V30 26 1 1 24
M  V30 27 1 1 25
M  V30 28 1 2 26
M  V30 29 1 2 27
M  V30 30 1 3 28
M  V30 31 1 3 29
M  V30 32 1 4 30
M  V30 33 1 4 31
M  V30 34 1 7 32
M  V30 35 1 7 33
M  V30 36 1 7 34
M  V30 37 1 10 35
M  V30 38 1 11 36
M  V30 39 1 14 37
M  V30 40 1 16 38
M  V30 41 1 16 39
M  V30 42 1 19 40
M  V30 43 1 19 41
M  V30 44 1 20 42
M  V30 END BOND
M  V30 END CTAB
M  END
>  <Dataset>  (266) 
ChEMBL_Kinases

>  <Ligand_Instance>  (266) 
nan

>  <PDB_ID>  (266) 
nan

>  <Standardized_SMILES>  (266) 
CCCCn1c(C)nc2ccc(-c3cc(N)nc(N)c3)nc21

>  <Name>  (266) 
nan

>  <Pocket>  (266) 
nan

>  <ATP_Site>  (266) 
nan

>  <Peripheral>  (266) 
nan

>  <Num_H_Atoms_ProtBoundConf>  (266) 
nan

>  <Num_Resolved_Atoms>  (266) 
nan

>  <Num_Not_Resolved_Atoms>  (266) 
nan

$$$$
CHEMBL181114
     RDKit          3D

  0  0  0  0  0  0  0  0  0  0999 V3000
M  V30 BEGIN CTAB
M  V30 COUNTS 56 60 0 0 0
M  V30 BEGIN ATOM
M  V30 1 N 1.545434 -5.785572 3.656328 0
M  V30 2 C 2.080195 -4.616984 2.989390 0 CFG=1
M  V30 3 C 3.484245 -4.914473 2.530174 0
M  V30 4 C 3.959322 -3.831273 1.594063 0
M  V30 5 C 3.064165 -3.718043 0.371043 0 CFG=2
M  V30 6 N 2.694912 -2.309530 0.264808 0
M  V30 7 C 1.879907 -1.761124 -0.775711 0
M  V30 8 C 1.517915 -0.412644 -0.877446 0
M  V30 9 C 0.729503 0.011102 -1.933349 0
M  V30 10 N 0.458824 1.388867 -1.876384 0
M  V30 11 C -0.718512 1.994845 -1.358560 0
M  V30 12 C -1.784338 1.182362 -0.993345 0
M  V30 13 C -2.934432 1.766846 -0.489291 0
M  V30 14 C -2.984946 3.160652 -0.363068 0
M  V30 15 S -4.470305 3.875772 0.278419 0
M  V30 16 O -4.524252 5.340857 -0.136609 0
M  V30 17 O -5.685042 3.218202 -0.261955 0
M  V30 18 C -4.409930 3.897775 2.029331 0
M  V30 19 C -3.415010 3.452542 2.799874 0
M  V30 20 C -3.509627 3.535656 4.163776 0
M  V30 21 C -4.758906 4.136135 4.644211 0
M  V30 22 S -5.723325 4.544301 3.060044 0
M  V30 23 C -1.895810 3.956180 -0.737845 0
M  V30 24 C -0.748383 3.369209 -1.241813 0
M  V30 25 N 0.319116 -0.878038 -2.851290 0
M  V30 26 N -0.436625 -0.640161 -3.916422 0
M  V30 27 C -0.606840 -1.820869 -4.564027 0
M  V30 28 C 0.081968 -2.787614 -3.840984 0
M  V30 29 Cl 0.197813 -4.499063 -4.231195 0
M  V30 30 C 0.673898 -2.192421 -2.748621 0
M  V30 31 N 1.436864 -2.608584 -1.728361 0
M  V30 32 C 1.833452 -4.589210 0.522530 0
M  V30 33 C 1.174487 -4.224852 1.852809 0
M  V30 34 H 1.108148 -6.457276 2.992314 0
M  V30 35 H 0.804724 -5.521359 4.360227 0
M  V30 36 H 2.067117 -3.790581 3.733243 0
M  V30 37 H 4.134241 -4.870531 3.425239 0
M  V30 38 H 3.597999 -5.876487 2.033583 0
M  V30 39 H 4.982406 -4.089225 1.248878 0
M  V30 40 H 4.059574 -2.859400 2.139404 0
M  V30 41 H 3.601173 -4.059105 -0.523781 0
M  V30 42 H 3.011484 -1.574986 0.967788 0
M  V30 43 H 1.905416 0.209262 -0.080553 0
M  V30 44 H 1.241267 1.955695 -2.270030 0
M  V30 45 H -1.759257 0.096206 -1.087123 0
M  V30 46 H -3.829905 1.208261 -0.174501 0
M  V30 47 H -2.510891 3.017911 2.398627 0
M  V30 48 H -2.819983 3.234604 4.931478 0
M  V30 49 H -5.013496 4.284424 5.718587 0
M  V30 50 H -1.956772 5.044006 -0.628125 0
M  V30 51 H 0.099919 3.986473 -1.537265 0
M  V30 52 H -1.164289 -1.978655 -5.460214 0
M  V30 53 H 2.154172 -5.645513 0.620021 0
M  V30 54 H 1.157080 -4.519605 -0.329522 0
M  V30 55 H 1.017615 -3.125100 1.830221 0
M  V30 56 H 0.210023 -4.715734 1.983830 0
M  V30 END ATOM
M  V30 BEGIN BOND
M  V30 1 1 1 2
M  V30 2 1 2 3
M  V30 3 1 3 4
M  V30 4 1 4 5
M  V30 5 1 5 6
M  V30 6 1 6 7
M  V30 7 1 7 8
M  V30 8 2 8 9
M  V30 9 1 9 10
M  V30 10 1 10 11
M  V30 11 2 11 12
M  V30 12 1 12 13
M  V30 13 2 13 14
M  V30 14 1 14 15
M  V30 15 2 15 16
M  V30 16 2 15 17
M  V30 17 1 15 18
M  V30 18 2 18 19
M  V30 19 1 19 20
M  V30 20 2 20 21
M  V30 21 1 21 22
M  V30 22 1 14 23
M  V30 23 2 23 24
M  V30 24 1 9 25
M  V30 25 1 25 26
M  V30 26 2 26 27
M  V30 27 1 27 28
M  V30 28 1 28 29
M  V30 29 2 28 30
M  V30 30 1 30 31
M  V30 31 1 5 32
M  V30 32 1 32 33
M  V30 33 1 33 2
M  V30 34 2 31 7
M  V30 35 1 24 11
M  V30 36 1 30 25
M  V30 37 1 22 18
M  V30 38 1 1 34
M  V30 39 1 1 35
M  V30 40 1 2 36 CFG=1
M  V30 41 1 3 37
M  V30 42 1 3 38
M  V30 43 1 4 39
M  V30 44 1 4 40
M  V30 45 1 5 41 CFG=3
M  V30 46 1 6 42
M  V30 47 1 8 43
M  V30 48 1 10 44
M  V30 49 1 12 45
M  V30 50 1 13 46
M  V30 51 1 19 47
M  V30 52 1 20 48
M  V30 53 1 21 49
M  V30 54 1 23 50
M  V30 55 1 24 51
M  V30 56 1 27 52
M  V30 57 1 32 53
M  V30 58 1 32 54
M  V30 59 1 33 55
M  V30 60 1 33 56
M  V30 END BOND
M  V30 END CTAB
M  END
>  <Dataset>  (267) 
ChEMBL_Kinases

>  <Ligand_Instance>  (267) 
nan

>  <PDB_ID>  (267) 
nan

>  <Standardized_SMILES>  (267) 
N[C@H]1CC[C@H](Nc2cc(Nc3ccc(S(=O)(=O)c4cccs4)cc3)n3ncc(Cl)c3n2)CC1

>  <Name>  (267) 
nan

>  <Pocket>  (267) 
nan

>  <ATP_Site>  (267) 
nan

>  <Peripheral>  (267) 
nan

>  <Num_H_Atoms_ProtBoundConf>  (267) 
nan

>  <Num_Resolved_Atoms>  (267) 
nan

>  <Num_Not_Resolved_Atoms>  (267) 
nan

$$$$
CHEMBL5075232
     RDKit          3D

  0  0  0  0  0  0  0  0  0  0999 V3000
M  V30 BEGIN CTAB
M  V30 COUNTS 39 41 0 0 0
M  V30 BEGIN ATOM
M  V30 1 C -1.101710 -2.520741 0.938899 0
M  V30 2 C -0.406606 -2.186328 -0.317129 0
M  V30 3 N 0.882457 -1.551028 -0.270991 0
M  V30 4 C 2.140602 -2.057650 0.194232 0
M  V30 5 C 2.334466 -2.367947 1.624166 0
M  V30 6 O 1.477621 -3.340961 2.139277 0
M  V30 7 C 0.929777 -0.275086 -0.915223 0
M  V30 8 N 1.635934 -0.532374 -2.069319 0
M  V30 9 C 1.809797 0.483245 -2.965999 0
M  V30 10 N 1.315712 1.740719 -2.770051 0
M  V30 11 C 0.621668 2.047234 -1.663928 0
M  V30 12 N -0.018163 3.031667 -1.056489 0
M  V30 13 C -0.556751 2.664877 0.142696 0
M  V30 14 C -0.233825 1.314859 0.330769 0
M  V30 15 C -0.656883 0.767132 1.597330 0
M  V30 16 C 0.355733 0.447961 2.461508 0
M  V30 17 C 0.115940 -0.081856 3.735696 0
M  V30 18 C -1.220138 -0.276652 4.100974 0
M  V30 19 C -2.239321 0.046207 3.227483 0
M  V30 20 Cl -3.916433 -0.203722 3.698470 0
M  V30 21 C -1.996279 0.572717 1.961290 0
M  V30 22 C 0.472524 1.004702 -0.794643 0
M  V30 23 H -2.234603 -2.381478 0.838204 0
M  V30 24 H -0.801476 -2.058287 1.861025 0
M  V30 25 H -1.033407 -3.644099 1.114114 0
M  V30 26 H -1.136173 -1.600602 -0.940845 0
M  V30 27 H -0.319917 -3.148774 -0.942882 0
M  V30 28 H 2.993390 -1.365365 -0.095132 0
M  V30 29 H 2.403740 -2.977492 -0.438671 0
M  V30 30 H 3.369955 -2.863186 1.754070 0
M  V30 31 H 2.383389 -1.529480 2.322697 0
M  V30 32 H 1.899381 -4.010086 2.702367 0
M  V30 33 H 2.349282 0.420552 -3.925149 0
M  V30 34 H -0.073729 3.990891 -1.506312 0
M  V30 35 H -1.103726 3.378943 0.733762 0
M  V30 36 H 1.383900 0.594371 2.211214 0
M  V30 37 H 0.923953 -0.331079 4.408293 0
M  V30 38 H -1.407358 -0.682986 5.079658 0
M  V30 39 H -2.755761 0.840380 1.240680 0
M  V30 END ATOM
M  V30 BEGIN BOND
M  V30 1 1 1 2
M  V30 2 1 2 3
M  V30 3 1 3 4
M  V30 4 1 4 5
M  V30 5 1 5 6
M  V30 6 1 3 7
M  V30 7 2 7 8
M  V30 8 1 8 9
M  V30 9 2 9 10
M  V30 10 1 10 11
M  V30 11 1 11 12
M  V30 12 1 12 13
M  V30 13 2 13 14
M  V30 14 1 14 15
M  V30 15 2 15 16
M  V30 16 1 16 17
M  V30 17 2 17 18
M  V30 18 1 18 19
M  V30 19 1 19 20
M  V30 20 2 19 21
M  V30 21 1 14 22
M  V30 22 1 22 7
M  V30 23 2 22 11
M  V30 24 1 21 15
M  V30 25 1 1 23
M  V30 26 1 1 24
M  V30 27 1 1 25
M  V30 28 1 2 26
M  V30 29 1 2 27
M  V30 30 1 4 28
M  V30 31 1 4 29
M  V30 32 1 5 30
M  V30 33 1 5 31
M  V30 34 1 6 32
M  V30 35 1 9 33
M  V30 36 1 12 34
M  V30 37 1 13 35
M  V30 38 1 16 36
M  V30 39 1 17 37
M  V30 40 1 18 38
M  V30 41 1 21 39
M  V30 END BOND
M  V30 END CTAB
M  END
>  <Dataset>  (268) 
ChEMBL_Kinases

>  <Ligand_Instance>  (268) 
nan

>  <PDB_ID>  (268) 
nan

>  <Standardized_SMILES>  (268) 
CCN(CCO)c1ncnc2[nH]cc(-c3cccc(Cl)c3)c12

>  <Name>  (268) 
nan

>  <Pocket>  (268) 
nan

>  <ATP_Site>  (268) 
nan

>  <Peripheral>  (268) 
nan

>  <Num_H_Atoms_ProtBoundConf>  (268) 
nan

>  <Num_Resolved_Atoms>  (268) 
nan

>  <Num_Not_Resolved_Atoms>  (268) 
nan

$$$$
CHEMBL4776637
     RDKit          3D

  0  0  0  0  0  0  0  0  0  0999 V3000
M  V30 BEGIN CTAB
M  V30 COUNTS 41 43 0 0 0
M  V30 BEGIN ATOM
M  V30 1 C 0.109266 -4.093740 -1.530669 0
M  V30 2 C 0.848163 -3.793872 -0.238253 0
M  V30 3 C 0.178526 -2.685777 0.507704 0
M  V30 4 N 2.258357 -3.596566 -0.443858 0
M  V30 5 C 3.225754 -4.546955 -0.335882 0
M  V30 6 N 4.450797 -4.025169 -0.594849 0
M  V30 7 N 4.278874 -2.758121 -0.865900 0
M  V30 8 C 2.959848 -2.500283 -0.775056 0
M  V30 9 C 2.369248 -1.187831 -1.008915 0
M  V30 10 C 2.046186 -0.905678 -2.335786 0
M  V30 11 C 1.483249 0.321456 -2.624148 0
M  V30 12 C 1.243169 1.250462 -1.630931 0
M  V30 13 C 1.579473 0.929437 -0.324804 0
M  V30 14 N 1.418844 1.732645 0.839643 0
M  V30 15 C 0.239322 1.677808 1.601323 0
M  V30 16 O -0.644661 0.894838 1.201481 0
M  V30 17 N -0.072826 2.392193 2.756595 0
M  V30 18 C -1.222182 2.397115 3.575147 0
M  V30 19 C -2.368047 1.667953 3.430759 0
M  V30 20 C -3.462013 1.715075 4.265376 0
M  V30 21 C -3.399544 2.572673 5.343299 0
M  V30 22 C -2.247321 3.311549 5.495905 0
M  V30 23 N -1.236414 3.210130 4.648937 0
M  V30 24 N 2.128515 -0.268603 -0.046854 0
M  V30 25 H -0.979611 -3.911896 -1.299584 0
M  V30 26 H 0.466507 -3.479595 -2.363741 0
M  V30 27 H 0.275436 -5.165747 -1.768411 0
M  V30 28 H 0.724455 -4.716077 0.395156 0
M  V30 29 H 0.847373 -2.355424 1.310999 0
M  V30 30 H -0.744594 -3.114797 0.996521 0
M  V30 31 H -0.170733 -1.862627 -0.158260 0
M  V30 32 H 3.112050 -5.592930 -0.083054 0
M  V30 33 H 2.194155 -1.564013 -3.183867 0
M  V30 34 H 1.194744 0.635138 -3.639267 0
M  V30 35 H 0.808883 2.234844 -1.749634 0
M  V30 36 H 2.163798 2.398570 1.184584 0
M  V30 37 H 0.732876 3.007679 2.992612 0
M  V30 38 H -2.441307 0.991479 2.597431 0
M  V30 39 H -4.330404 1.100425 4.074757 0
M  V30 40 H -4.267912 2.603586 5.997303 0
M  V30 41 H -2.197463 3.984596 6.341272 0
M  V30 END ATOM
M  V30 BEGIN BOND
M  V30 1 1 1 2
M  V30 2 1 2 3
M  V30 3 1 2 4
M  V30 4 1 4 5
M  V30 5 2 5 6
M  V30 6 1 6 7
M  V30 7 2 7 8
M  V30 8 1 8 9
M  V30 9 2 9 10
M  V30 10 1 10 11
M  V30 11 2 11 12
M  V30 12 1 12 13
M  V30 13 1 13 14
M  V30 14 1 14 15
M  V30 15 2 15 16
M  V30 16 1 15 17
M  V30 17 1 17 18
M  V30 18 2 18 19
M  V30 19 1 19 20
M  V30 20 2 20 21
M  V30 21 1 21 22
M  V30 22 2 22 23
M  V30 23 2 13 24
M  V30 24 1 8 4
M  V30 25 1 24 9
M  V30 26 1 23 18
M  V30 27 1 1 25
M  V30 28 1 1 26
M  V30 29 1 1 27
M  V30 30 1 2 28
M  V30 31 1 3 29
M  V30 32 1 3 30
M  V30 33 1 3 31
M  V30 34 1 5 32
M  V30 35 1 10 33
M  V30 36 1 11 34
M  V30 37 1 12 35
M  V30 38 1 14 36
M  V30 39 1 17 37
M  V30 40 1 19 38
M  V30 41 1 20 39
M  V30 42 1 21 40
M  V30 43 1 22 41
M  V30 END BOND
M  V30 END CTAB
M  END
>  <Dataset>  (269) 
ChEMBL_Kinases

>  <Ligand_Instance>  (269) 
nan

>  <PDB_ID>  (269) 
nan

>  <Standardized_SMILES>  (269) 
CC(C)n1cnnc1-c1cccc(NC(=O)Nc2ccccn2)n1

>  <Name>  (269) 
nan

>  <Pocket>  (269) 
nan

>  <ATP_Site>  (269) 
nan

>  <Peripheral>  (269) 
nan

>  <Num_H_Atoms_ProtBoundConf>  (269) 
nan

>  <Num_Resolved_Atoms>  (269) 
nan

>  <Num_Not_Resolved_Atoms>  (269) 
nan

$$$$
CHEMBL4776698
     RDKit          3D

  0  0  0  0  0  0  0  0  0  0999 V3000
M  V30 BEGIN CTAB
M  V30 COUNTS 31 32 0 0 0
M  V30 BEGIN ATOM
M  V30 1 C -3.174391 -4.245866 1.402494 0
M  V30 2 C -2.334216 -4.085940 2.617373 0
M  V30 3 C -0.928624 -3.639250 2.377775 0
M  V30 4 C -0.755447 -2.332024 1.706394 0
M  V30 5 N 0.674504 -2.048920 1.550381 0
M  V30 6 C 1.132561 -0.859518 0.937175 0
M  V30 7 N 2.402608 -0.469417 0.727517 0
M  V30 8 C 2.414150 0.736952 0.108986 0
M  V30 9 C 3.481672 1.517350 -0.299252 0
M  V30 10 C 3.237959 2.727208 -0.917659 0
M  V30 11 C 1.908386 3.102588 -1.099964 0
M  V30 12 N 1.622128 4.343046 -1.733773 0 CHG=1 VAL=4
M  V30 13 O 2.543149 5.091177 -2.124264 0
M  V30 14 O 0.294364 4.696879 -1.905154 0 CHG=-1 VAL=1
M  V30 15 C 0.870490 2.311355 -0.686399 0
M  V30 16 C 1.108218 1.100380 -0.067372 0
M  V30 17 N 0.325516 0.121019 0.440657 0
M  V30 18 H -3.072870 -3.429173 0.646553 0
M  V30 19 H -3.061927 -5.252104 0.917831 0
M  V30 20 H -4.241299 -4.220183 1.721959 0
M  V30 21 H -2.859962 -3.424974 3.332085 0
M  V30 22 H -2.281248 -5.074571 3.114749 0
M  V30 23 H -0.359080 -4.410070 1.819861 0
M  V30 24 H -0.438173 -3.591331 3.380819 0
M  V30 25 H -1.177860 -2.363446 0.662529 0
M  V30 26 H -1.195372 -1.475021 2.210789 0
M  V30 27 H 1.385251 -2.730888 1.894522 0
M  V30 28 H 4.520706 1.218309 -0.153847 0
M  V30 29 H 4.001157 3.414045 -1.275606 0
M  V30 30 H -0.176668 2.601944 -0.827369 0
M  V30 31 H -0.711048 0.146136 0.435675 0
M  V30 END ATOM
M  V30 BEGIN BOND
M  V30 1 1 1 2
M  V30 2 1 2 3
M  V30 3 1 3 4
M  V30 4 1 4 5
M  V30 5 1 5 6
M  V30 6 2 6 7
M  V30 7 1 7 8
M  V30 8 2 8 9
M  V30 9 1 9 10
M  V30 10 2 10 11
M  V30 11 1 11 12
M  V30 12 2 12 13
M  V30 13 1 12 14
M  V30 14 1 11 15
M  V30 15 2 15 16
M  V30 16 1 16 17
M  V30 17 1 17 6
M  V30 18 1 16 8
M  V30 19 1 1 18
M  V30 20 1 1 19
M  V30 21 1 1 20
M  V30 22 1 2 21
M  V30 23 1 2 22
M  V30 24 1 3 23
M  V30 25 1 3 24
M  V30 26 1 4 25
M  V30 27 1 4 26
M  V30 28 1 5 27
M  V30 29 1 9 28
M  V30 30 1 10 29
M  V30 31 1 15 30
M  V30 32 1 17 31
M  V30 END BOND
M  V30 END CTAB
M  END
>  <Dataset>  (270) 
ChEMBL_Kinases

>  <Ligand_Instance>  (270) 
nan

>  <PDB_ID>  (270) 
nan

>  <Standardized_SMILES>  (270) 
CCCCNc1nc2ccc([N+](=O)[O-])cc2[nH]1

>  <Name>  (270) 
nan

>  <Pocket>  (270) 
nan

>  <ATP_Site>  (270) 
nan

>  <Peripheral>  (270) 
nan

>  <Num_H_Atoms_ProtBoundConf>  (270) 
nan

>  <Num_Resolved_Atoms>  (270) 
nan

>  <Num_Not_Resolved_Atoms>  (270) 
nan

$$$$
CHEMBL4776712
     RDKit          3D

  0  0  0  0  0  0  0  0  0  0999 V3000
M  V30 BEGIN CTAB
M  V30 COUNTS 41 44 0 0 0
M  V30 BEGIN ATOM
M  V30 1 O 2.221719 -2.737238 3.712066 0
M  V30 2 C 2.160876 -1.781296 2.898716 0
M  V30 3 C 3.248599 -1.357221 2.165857 0
M  V30 4 C 3.249625 -0.318584 1.259916 0
M  V30 5 C 2.037597 0.345256 1.085667 0
M  V30 6 C 1.902963 1.464494 0.153766 0
M  V30 7 C 2.712891 1.414734 -0.981723 0
M  V30 8 C 2.610190 2.467816 -1.891759 0
M  V30 9 C 1.747835 3.529855 -1.698673 0
M  V30 10 C 1.418697 4.684081 -2.379038 0
M  V30 11 N 0.474924 5.352907 -1.670937 0
M  V30 12 N 0.213851 4.640788 -0.571900 0
M  V30 13 C 0.961257 3.523922 -0.541339 0
M  V30 14 C 1.028066 2.505381 0.386260 0
M  V30 15 C 0.923011 -0.064198 1.814761 0
M  V30 16 N 1.030021 -1.090199 2.673580 0
M  V30 17 C -0.200235 -1.436019 3.382394 0
M  V30 18 C -0.929231 -2.453787 2.547542 0
M  V30 19 C -1.807626 -1.933558 1.607644 0
M  V30 20 C -2.547246 -2.759089 0.767398 0
M  V30 21 C -2.410664 -4.147367 0.862960 0
M  V30 22 C -3.183924 -5.063025 -0.017715 0
M  V30 23 F -2.365176 -5.596095 -1.018410 0
M  V30 24 F -3.669787 -6.105001 0.748214 0
M  V30 25 F -4.223208 -4.336387 -0.558605 0
M  V30 26 C -1.527505 -4.623170 1.809848 0
M  V30 27 C -0.783851 -3.822072 2.653697 0
M  V30 28 H 4.210397 -1.865495 2.286719 0
M  V30 29 H 4.126271 -0.019271 0.706606 0
M  V30 30 H 3.403890 0.624233 -1.197123 0
M  V30 31 H 3.214070 2.490049 -2.798593 0
M  V30 32 H 1.874255 4.951039 -3.315220 0
M  V30 33 H -0.503302 5.002916 0.113122 0
M  V30 34 H 0.417317 2.522304 1.262502 0
M  V30 35 H -0.012321 0.476974 1.654997 0
M  V30 36 H -0.822797 -0.550586 3.560415 0
M  V30 37 H 0.123804 -1.861728 4.360371 0
M  V30 38 H -2.014915 -0.889891 1.421204 0
M  V30 39 H -3.244321 -2.401082 0.019608 0
M  V30 40 H -1.420653 -5.697862 1.884703 0
M  V30 41 H -0.092531 -4.182581 3.395582 0
M  V30 END ATOM
M  V30 BEGIN BOND
M  V30 1 2 1 2
M  V30 2 1 2 3
M  V30 3 2 3 4
M  V30 4 1 4 5
M  V30 5 1 5 6
M  V30 6 2 6 7
M  V30 7 1 7 8
M  V30 8 2 8 9
M  V30 9 1 9 10
M  V30 10 2 10 11
M  V30 11 1 11 12
M  V30 12 1 12 13
M  V30 13 2 13 14
M  V30 14 2 5 15
M  V30 15 1 15 16
M  V30 16 1 16 17
M  V30 17 1 17 18
M  V30 18 2 18 19
M  V30 19 1 19 20
M  V30 20 2 20 21
M  V30 21 1 21 22
M  V30 22 1 22 23
M  V30 23 1 22 24
M  V30 24 1 22 25
M  V30 25 1 21 26
M  V30 26 2 26 27
M  V30 27 1 16 2
M  V30 28 1 27 18
M  V30 29 1 14 6
M  V30 30 1 13 9
M  V30 31 1 3 28
M  V30 32 1 4 29
M  V30 33 1 7 30
M  V30 34 1 8 31
M  V30 35 1 10 32
M  V30 36 1 12 33
M  V30 37 1 14 34
M  V30 38 1 15 35
M  V30 39 1 17 36
M  V30 40 1 17 37
M  V30 41 1 19 38
M  V30 42 1 20 39
M  V30 43 1 26 40
M  V30 44 1 27 41
M  V30 END BOND
M  V30 END CTAB
M  END
>  <Dataset>  (271) 
ChEMBL_Kinases

>  <Ligand_Instance>  (271) 
nan

>  <PDB_ID>  (271) 
nan

>  <Standardized_SMILES>  (271) 
O=c1ccc(-c2ccc3cn[nH]c3c2)cn1Cc1ccc(C(F)(F)F)cc1

>  <Name>  (271) 
nan

>  <Pocket>  (271) 
nan

>  <ATP_Site>  (271) 
nan

>  <Peripheral>  (271) 
nan

>  <Num_H_Atoms_ProtBoundConf>  (271) 
nan

>  <Num_Resolved_Atoms>  (271) 
nan

>  <Num_Not_Resolved_Atoms>  (271) 
nan

$$$$
CHEMBL1400950
     RDKit          3D

  0  0  0  0  0  0  0  0  0  0999 V3000
M  V30 BEGIN CTAB
M  V30 COUNTS 36 39 0 0 0
M  V30 BEGIN ATOM
M  V30 1 O 0.789887 -0.605862 4.722672 0
M  V30 2 C 0.733330 -0.915217 3.509392 0
M  V30 3 C 1.070356 -2.268032 3.020880 0
M  V30 4 C 1.464482 -3.238303 3.926895 0
M  V30 5 C 1.791962 -4.522776 3.524734 0
M  V30 6 C 1.729089 -4.862516 2.185997 0
M  V30 7 C 1.332948 -3.887519 1.274789 0
M  V30 8 C 1.002513 -2.598757 1.662955 0
M  V30 9 C 0.587422 -1.577568 0.707108 0
M  V30 10 O 0.523412 -1.865070 -0.515213 0
M  V30 11 C 0.262921 -0.254646 1.226801 0
M  V30 12 C 0.320799 0.098926 2.557651 0
M  V30 13 C -0.019965 1.395738 2.878634 0
M  V30 14 C -0.411208 2.355704 1.970100 0
M  V30 15 C -0.455663 1.959941 0.648295 0
M  V30 16 C -0.120212 0.656092 0.266812 0
M  V30 17 N -0.245771 0.492860 -1.139020 0
M  V30 18 C -0.926665 -0.240891 -2.221677 0
M  V30 19 C -1.620369 0.907987 -2.979359 0
M  V30 20 C -0.510714 1.943657 -2.971428 0
M  V30 21 C 0.559310 1.319236 -2.057604 0
M  V30 22 H 1.517083 -2.977866 4.989438 0
M  V30 23 H 2.102030 -5.295604 4.214577 0
M  V30 24 H 1.974231 -5.856183 1.807324 0
M  V30 25 H 1.269320 -4.105709 0.223405 0
M  V30 26 H 0.031974 1.651655 3.924830 0
M  V30 27 H -0.664439 3.358480 2.302791 0
M  V30 28 H -0.774262 2.766655 -0.031273 0
M  V30 29 H -1.751216 -0.875780 -1.849466 0
M  V30 30 H -0.214512 -0.749843 -2.889942 0
M  V30 31 H -1.915718 0.596977 -3.990775 0
M  V30 32 H -2.486697 1.247235 -2.372735 0
M  V30 33 H -0.132253 2.050411 -3.995756 0
M  V30 34 H -0.930072 2.870418 -2.533521 0
M  V30 35 H 1.046261 2.160496 -1.578635 0
M  V30 36 H 1.284071 0.738800 -2.624691 0
M  V30 END ATOM
M  V30 BEGIN BOND
M  V30 1 2 1 2
M  V30 2 1 2 3
M  V30 3 2 3 4
M  V30 4 1 4 5
M  V30 5 2 5 6
M  V30 6 1 6 7
M  V30 7 2 7 8
M  V30 8 1 8 9
M  V30 9 2 9 10
M  V30 10 1 9 11
M  V30 11 2 11 12
M  V30 12 1 12 13
M  V30 13 2 13 14
M  V30 14 1 14 15
M  V30 15 2 15 16
M  V30 16 1 16 17
M  V30 17 1 17 18
M  V30 18 1 18 19
M  V30 19 1 19 20
M  V30 20 1 20 21
M  V30 21 1 12 2
M  V30 22 1 21 17
M  V30 23 1 8 3
M  V30 24 1 16 11
M  V30 25 1 4 22
M  V30 26 1 5 23
M  V30 27 1 6 24
M  V30 28 1 7 25
M  V30 29 1 13 26
M  V30 30 1 14 27
M  V30 31 1 15 28
M  V30 32 1 18 29
M  V30 33 1 18 30
M  V30 34 1 19 31
M  V30 35 1 19 32
M  V30 36 1 20 33
M  V30 37 1 20 34
M  V30 38 1 21 35
M  V30 39 1 21 36
M  V30 END BOND
M  V30 END CTAB
M  END
>  <Dataset>  (272) 
ChEMBL_Kinases

>  <Ligand_Instance>  (272) 
nan

>  <PDB_ID>  (272) 
nan

>  <Standardized_SMILES>  (272) 
O=C1c2ccccc2C(=O)c2c1cccc2N1CCCC1

>  <Name>  (272) 
nan

>  <Pocket>  (272) 
nan

>  <ATP_Site>  (272) 
nan

>  <Peripheral>  (272) 
nan

>  <Num_H_Atoms_ProtBoundConf>  (272) 
nan

>  <Num_Resolved_Atoms>  (272) 
nan

>  <Num_Not_Resolved_Atoms>  (272) 
nan

$$$$
CHEMBL4777196
     RDKit          3D

  0  0  0  0  0  0  0  0  0  0999 V3000
M  V30 BEGIN CTAB
M  V30 COUNTS 58 61 0 0 0
M  V30 BEGIN ATOM
M  V30 1 C 4.718069 -5.068471 0.044579 0
M  V30 2 C 3.572205 -4.132450 -0.111027 0
M  V30 3 N 3.433926 -2.986306 0.576094 0
M  V30 4 C 2.332828 -2.326623 0.263325 0
M  V30 5 C 1.669783 -1.081417 0.619758 0
M  V30 6 C 2.152270 0.144727 0.676320 0
M  V30 7 C 3.527211 0.496070 0.367899 0
M  V30 8 O 4.408127 -0.310416 0.016089 0
M  V30 9 N 3.606809 1.893533 0.553949 0
M  V30 10 C 2.343898 2.403053 0.961021 0
M  V30 11 C 1.857952 3.667160 1.276038 0
M  V30 12 C 0.533445 3.898017 1.659233 0
M  V30 13 C -0.349704 2.840474 1.736212 0
M  V30 14 C -1.720109 3.115823 2.142317 0
M  V30 15 O -2.030909 4.343813 2.282602 0
M  V30 16 N -2.698564 2.114651 2.385205 0
M  V30 17 C -4.070040 2.258875 2.787860 0 CFG=2
M  V30 18 C -4.230445 1.556265 4.124671 0
M  V30 19 C -4.922507 1.525330 1.825541 0
M  V30 20 C -6.098933 2.028707 1.257624 0
M  V30 21 C -6.855877 1.296483 0.366774 0
M  V30 22 N -6.473245 0.046278 0.010991 0
M  V30 23 C -5.346412 -0.486994 0.529956 0
M  V30 24 C -4.599783 0.255597 1.418958 0
M  V30 25 C 0.132793 1.588081 1.423036 0
M  V30 26 C 1.441102 1.366007 1.044602 0
M  V30 27 C 1.722261 -3.134167 -0.710470 0
M  V30 28 C 0.429741 -2.905999 -1.452218 0
M  V30 29 C 2.485647 -4.259895 -0.950281 0
M  V30 30 N 2.298811 -5.357264 -1.833875 0
M  V30 31 C 2.902984 -5.151191 -3.115140 0
M  V30 32 O 3.564713 -4.225285 -3.648076 0
M  V30 33 C 2.856390 -6.145013 -4.233131 0
M  V30 34 Cl 3.771668 -5.407113 -5.585678 0
M  V30 35 H 5.656791 -4.523356 0.337536 0
M  V30 36 H 4.890055 -5.692101 -0.876991 0
M  V30 37 H 4.526937 -5.776171 0.887160 0
M  V30 38 H 4.093494 -2.631501 1.290175 0
M  V30 39 H 0.601138 -1.156617 0.888499 0
M  V30 40 H 4.480861 2.436107 0.405082 0
M  V30 41 H 2.582704 4.472298 1.203442 0
M  V30 42 H 0.290721 4.943394 1.876008 0
M  V30 43 H -2.359942 1.138725 2.248708 0
M  V30 44 H -4.382873 3.324278 2.854407 0
M  V30 45 H -5.280540 1.300987 4.347429 0
M  V30 46 H -3.786531 2.236448 4.905919 0
M  V30 47 H -3.577531 0.660692 4.115212 0
M  V30 48 H -6.394199 3.027340 1.548519 0
M  V30 49 H -7.750314 1.659771 -0.074763 0
M  V30 50 H -5.101000 -1.483370 0.205989 0
M  V30 51 H -3.727332 -0.277508 1.763690 0
M  V30 52 H -0.531354 0.738529 1.472237 0
M  V30 53 H -0.314602 -2.378428 -0.800976 0
M  V30 54 H -0.027305 -3.874596 -1.725851 0
M  V30 55 H 0.593760 -2.353791 -2.398118 0
M  V30 56 H 1.821901 -6.264491 -1.744003 0
M  V30 57 H 3.257942 -7.134299 -3.948271 0
M  V30 58 H 1.815722 -6.290530 -4.604534 0
M  V30 END ATOM
M  V30 BEGIN BOND
M  V30 1 1 1 2
M  V30 2 1 2 3
M  V30 3 1 3 4
M  V30 4 1 4 5
M  V30 5 2 5 6
M  V30 6 1 6 7
M  V30 7 2 7 8
M  V30 8 1 7 9
M  V30 9 1 9 10
M  V30 10 2 10 11
M  V30 11 1 11 12
M  V30 12 2 12 13
M  V30 13 1 13 14
M  V30 14 2 14 15
M  V30 15 1 14 16
M  V30 16 1 16 17
M  V30 17 1 17 18
M  V30 18 1 17 19
M  V30 19 2 19 20
M  V30 20 1 20 21
M  V30 21 2 21 22
M  V30 22 1 22 23
M  V30 23 2 23 24
M  V30 24 1 13 25
M  V30 25 2 25 26
M  V30 26 2 4 27
M  V30 27 1 27 28
M  V30 28 1 27 29
M  V30 29 1 29 30
M  V30 30 1 30 31
M  V30 31 2 31 32
M  V30 32 1 31 33
M  V30 33 1 33 34
M  V30 34 2 29 2
M  V30 35 1 26 6
M  V30 36 1 26 10
M  V30 37 1 24 19
M  V30 38 1 1 35
M  V30 39 1 1 36
M  V30 40 1 1 37
M  V30 41 1 3 38
M  V30 42 1 5 39
M  V30 43 1 9 40
M  V30 44 1 11 41
M  V30 45 1 12 42
M  V30 46 1 16 43
M  V30 47 1 17 44 CFG=1
M  V30 48 1 18 45
M  V30 49 1 18 46
M  V30 50 1 18 47
M  V30 51 1 20 48
M  V30 52 1 21 49
M  V30 53 1 23 50
M  V30 54 1 24 51
M  V30 55 1 25 52
M  V30 56 1 28 53
M  V30 57 1 28 54
M  V30 58 1 28 55
M  V30 59 1 30 56
M  V30 60 1 33 57
M  V30 61 1 33 58
M  V30 END BOND
M  V30 END CTAB
M  END
>  <Dataset>  (273) 
ChEMBL_Kinases

>  <Ligand_Instance>  (273) 
nan

>  <PDB_ID>  (273) 
nan

>  <Standardized_SMILES>  (273) 
Cc1[nH]c(/C=C2\C(=O)Nc3ccc(C(=O)N[C@H](C)c4ccncc4)cc32)c(C)c1NC(=O)CCl

>  <Name>  (273) 
nan

>  <Pocket>  (273) 
nan

>  <ATP_Site>  (273) 
nan

>  <Peripheral>  (273) 
nan

>  <Num_H_Atoms_ProtBoundConf>  (273) 
nan

>  <Num_Resolved_Atoms>  (273) 
nan

>  <Num_Not_Resolved_Atoms>  (273) 
nan

$$$$
CHEMBL4777294
     RDKit          3D

  0  0  0  0  0  0  0  0  0  0999 V3000
M  V30 BEGIN CTAB
M  V30 COUNTS 63 67 0 0 0
M  V30 BEGIN ATOM
M  V30 1 C 3.836807 1.063501 3.524407 0
M  V30 2 C 2.358607 1.386485 3.679524 0
M  V30 3 C 2.067131 1.464851 5.159720 0
M  V30 4 O 1.671137 0.266322 3.182484 0
M  V30 5 C 1.982420 2.621529 2.977621 0
M  V30 6 C 1.551418 2.689395 1.669820 0
M  V30 7 C 1.191075 3.817513 0.976492 0
M  V30 8 N 0.732860 3.851971 -0.343075 0
M  V30 9 C -0.024772 2.959242 -1.136935 0
M  V30 10 C -0.640415 1.806024 -0.714758 0
M  V30 11 C -1.354395 0.948478 -1.522583 0
M  V30 12 O -1.946185 -0.205068 -0.996464 0
M  V30 13 C -1.251692 -1.406659 -0.939387 0
M  V30 14 C 0.024005 -1.761580 -1.327005 0
M  V30 15 N 0.215647 -3.064621 -1.052719 0
M  V30 16 C 1.413271 -3.848514 -1.297717 0
M  V30 17 C 2.054448 -3.770922 -2.674946 0
M  V30 18 C 2.673470 -3.026946 -1.532184 0
M  V30 19 N -0.898441 -3.553421 -0.501177 0
M  V30 20 C -1.815069 -2.552225 -0.421510 0
M  V30 21 C -3.172396 -2.721117 0.133185 0
M  V30 22 C -4.168958 -3.162268 -0.902568 0
M  V30 23 C -4.003080 -4.622131 -1.267694 0
M  V30 24 C -4.065477 -5.516873 -0.065019 0
M  V30 25 F -5.315997 -5.545202 0.508285 0
M  V30 26 F -3.714507 -6.795721 -0.517943 0
M  V30 27 C -3.046697 -5.099682 0.949678 0
M  V30 28 C -3.222163 -3.655708 1.293070 0
M  V30 29 C -1.475337 1.250044 -2.862573 0
M  V30 30 C -0.853244 2.408214 -3.266312 0
M  V30 31 N -0.171150 3.209092 -2.447871 0
M  V30 32 C 1.302482 4.965198 1.745621 0
M  V30 33 C 1.726174 4.959469 3.052952 0
M  V30 34 N 2.057183 3.809339 3.650532 0
M  V30 35 H 4.433853 1.935356 3.241428 0
M  V30 36 H 3.997911 0.297032 2.717751 0
M  V30 37 H 4.268362 0.609059 4.439777 0
M  V30 38 H 1.517192 2.396029 5.375599 0
M  V30 39 H 2.971495 1.418798 5.778532 0
M  V30 40 H 1.413520 0.636180 5.504970 0
M  V30 41 H 2.222188 -0.551367 3.315974 0
M  V30 42 H 1.533844 1.726353 1.211609 0
M  V30 43 H 1.035688 4.745486 -0.813064 0
M  V30 44 H -0.590798 1.530016 0.310870 0
M  V30 45 H 0.716916 -1.063896 -1.774810 0
M  V30 46 H 1.497359 -4.810280 -0.754645 0
M  V30 47 H 1.547424 -3.212420 -3.473199 0
M  V30 48 H 2.632715 -4.640832 -3.035932 0
M  V30 49 H 3.573542 -3.399274 -1.031660 0
M  V30 50 H 2.571909 -1.927273 -1.593614 0
M  V30 51 H -3.566393 -1.732325 0.516430 0
M  V30 52 H -5.183315 -2.937305 -0.579570 0
M  V30 53 H -3.985032 -2.591354 -1.830709 0
M  V30 54 H -4.865728 -4.876860 -1.926422 0
M  V30 55 H -3.045737 -4.793516 -1.778073 0
M  V30 56 H -2.043877 -5.359154 0.595577 0
M  V30 57 H -3.196881 -5.670640 1.904735 0
M  V30 58 H -2.502574 -3.358910 2.101277 0
M  V30 59 H -4.248257 -3.551067 1.749059 0
M  V30 60 H -2.020715 0.623532 -3.553686 0
M  V30 61 H -0.928963 2.673464 -4.312183 0
M  V30 62 H 1.049728 5.947349 1.331710 0
M  V30 63 H 1.820997 5.837243 3.669610 0
M  V30 END ATOM
M  V30 BEGIN BOND
M  V30 1 1 1 2
M  V30 2 1 2 3
M  V30 3 1 2 4
M  V30 4 1 2 5
M  V30 5 2 5 6
M  V30 6 1 6 7
M  V30 7 1 7 8
M  V30 8 1 8 9
M  V30 9 2 9 10
M  V30 10 1 10 11
M  V30 11 1 11 12
M  V30 12 1 12 13
M  V30 13 2 13 14
M  V30 14 1 14 15
M  V30 15 1 15 16
M  V30 16 1 16 17
M  V30 17 1 17 18
M  V30 18 1 15 19
M  V30 19 2 19 20
M  V30 20 1 20 21
M  V30 21 1 21 22
M  V30 22 1 22 23
M  V30 23 1 23 24
M  V30 24 1 24 25
M  V30 25 1 24 26
M  V30 26 1 24 27
M  V30 27 1 27 28
M  V30 28 2 11 29
M  V30 29 1 29 30
M  V30 30 2 30 31
M  V30 31 2 7 32
M  V30 32 1 32 33
M  V30 33 2 33 34
M  V30 34 1 34 5
M  V30 35 1 31 9
M  V30 36 1 20 13
M  V30 37 1 28 21
M  V30 38 1 18 16
M  V30 39 1 1 35
M  V30 40 1 1 36
M  V30 41 1 1 37
M  V30 42 1 3 38
M  V30 43 1 3 39
M  V30 44 1 3 40
M  V30 45 1 4 41
M  V30 46 1 6 42
M  V30 47 1 8 43
M  V30 48 1 10 44
M  V30 49 1 14 45
M  V30 50 1 16 46
M  V30 51 1 17 47
M  V30 52 1 17 48
M  V30 53 1 18 49
M  V30 54 1 18 50
M  V30 55 1 21 51
M  V30 56 1 22 52
M  V30 57 1 22 53
M  V30 58 1 23 54
M  V30 59 1 23 55
M  V30 60 1 27 56
M  V30 61 1 27 57
M  V30 62 1 28 58
M  V30 63 1 28 59
M  V30 64 1 29 60
M  V30 65 1 30 61
M  V30 66 1 32 62
M  V30 67 1 33 63
M  V30 END BOND
M  V30 END CTAB
M  END
>  <Dataset>  (274) 
ChEMBL_Kinases

>  <Ligand_Instance>  (274) 
nan

>  <PDB_ID>  (274) 
nan

>  <Standardized_SMILES>  (274) 
CC(C)(O)c1cc(Nc2cc(Oc3cn(C4CC4)nc3C3CCC(F)(F)CC3)ccn2)ccn1

>  <Name>  (274) 
nan

>  <Pocket>  (274) 
nan

>  <ATP_Site>  (274) 
nan

>  <Peripheral>  (274) 
nan

>  <Num_H_Atoms_ProtBoundConf>  (274) 
nan

>  <Num_Resolved_Atoms>  (274) 
nan

>  <Num_Not_Resolved_Atoms>  (274) 
nan

$$$$
CHEMBL4777358
     RDKit          3D

  0  0  0  0  0  0  0  0  0  0999 V3000
M  V30 BEGIN CTAB
M  V30 COUNTS 55 58 0 0 0
M  V30 BEGIN ATOM
M  V30 1 C 2.156393 -8.657369 4.036596 0
M  V30 2 C 2.083318 -7.721772 3.082417 0
M  V30 3 C 2.824855 -6.499595 3.362050 0
M  V30 4 O 3.505075 -6.222410 4.358886 0
M  V30 5 N 2.876043 -5.384666 2.477381 0
M  V30 6 C 3.658151 -4.235271 2.895141 0
M  V30 7 C 3.149868 -2.982047 2.233568 0
M  V30 8 C 2.740976 -2.935965 0.979050 0
M  V30 9 C 2.245356 -1.739256 0.315416 0
M  V30 10 C 2.160266 -0.527857 0.959953 0
M  V30 11 C 1.688455 0.596567 0.316067 0
M  V30 12 C 1.273423 0.594349 -0.996919 0
M  V30 13 C 0.745377 1.727230 -1.788579 0 CFG=2
M  V30 14 C 1.543540 2.978444 -1.637331 0
M  V30 15 C -0.680303 2.064008 -1.429451 0
M  V30 16 O -1.646872 1.993612 -2.269206 0
M  V30 17 N -1.170518 2.490486 -0.181226 0
M  V30 18 C -2.576797 2.738728 -0.128182 0
M  V30 19 C -3.269942 3.906823 -0.377897 0
M  V30 20 C -4.597000 3.576984 -0.179109 0
M  V30 21 C -5.694780 4.551223 -0.343602 0
M  V30 22 C -6.956234 4.432283 0.457652 0
M  V30 23 C -6.945697 4.003553 -0.993442 0
M  V30 24 N -4.712629 2.286132 0.171133 0
M  V30 25 N -3.480589 1.788516 0.198601 0
M  V30 26 C 1.364954 -0.646391 -1.643655 0
M  V30 27 C 1.839310 -1.781222 -1.000059 0
M  V30 28 C 2.857043 -4.263959 0.343277 0
M  V30 29 C 2.212966 -5.321498 1.212705 0
M  V30 30 H 2.796144 -8.173745 4.778709 0
M  V30 31 H 1.571300 -9.540900 3.745462 0
M  V30 32 H 1.555961 -7.742178 2.138901 0
M  V30 33 H 3.459493 -4.123644 3.980463 0
M  V30 34 H 4.742251 -4.366849 2.785905 0
M  V30 35 H 3.125711 -2.064518 2.842540 0
M  V30 36 H 2.450661 -0.385661 1.985096 0
M  V30 37 H 1.628974 1.542177 0.823837 0
M  V30 38 H 0.676817 1.459088 -2.880021 0
M  V30 39 H 1.225125 3.736587 -2.371944 0
M  V30 40 H 2.641600 2.830970 -1.619823 0
M  V30 41 H 1.279498 3.403274 -0.625767 0
M  V30 42 H -0.477188 2.592437 0.597562 0
M  V30 43 H -2.781374 4.829306 -0.662424 0
M  V30 44 H -5.393355 5.582555 -0.638810 0
M  V30 45 H -7.507781 5.349193 0.736388 0
M  V30 46 H -6.955033 3.588801 1.191895 0
M  V30 47 H -7.522397 4.674939 -1.674355 0
M  V30 48 H -7.049242 2.945597 -1.237701 0
M  V30 49 H -5.598095 1.763822 0.383516 0
M  V30 50 H 1.046998 -0.707917 -2.695667 0
M  V30 51 H 1.860286 -2.673387 -1.607026 0
M  V30 52 H 2.517674 -4.336129 -0.683637 0
M  V30 53 H 3.955727 -4.528902 0.343343 0
M  V30 54 H 2.366502 -6.317336 0.717146 0
M  V30 55 H 1.134818 -5.088174 1.322424 0
M  V30 END ATOM
M  V30 BEGIN BOND
M  V30 1 2 1 2
M  V30 2 1 2 3
M  V30 3 2 3 4
M  V30 4 1 3 5
M  V30 5 1 5 6
M  V30 6 1 6 7
M  V30 7 2 7 8
M  V30 8 1 8 9
M  V30 9 2 9 10
M  V30 10 1 10 11
M  V30 11 2 11 12
M  V30 12 1 12 13
M  V30 13 1 13 14
M  V30 14 1 13 15
M  V30 15 2 15 16
M  V30 16 1 15 17
M  V30 17 1 17 18
M  V30 18 1 18 19
M  V30 19 2 19 20
M  V30 20 1 20 21
M  V30 21 1 21 22
M  V30 22 1 22 23
M  V30 23 1 20 24
M  V30 24 1 24 25
M  V30 25 1 12 26
M  V30 26 2 26 27
M  V30 27 1 8 28
M  V30 28 1 28 29
M  V30 29 1 29 5
M  V30 30 1 27 9
M  V30 31 2 25 18
M  V30 32 1 23 21
M  V30 33 1 1 30
M  V30 34 1 1 31
M  V30 35 1 2 32
M  V30 36 1 6 33
M  V30 37 1 6 34
M  V30 38 1 7 35
M  V30 39 1 10 36
M  V30 40 1 11 37
M  V30 41 1 13 38 CFG=3
M  V30 42 1 14 39
M  V30 43 1 14 40
M  V30 44 1 14 41
M  V30 45 1 17 42
M  V30 46 1 19 43
M  V30 47 1 21 44
M  V30 48 1 22 45
M  V30 49 1 22 46
M  V30 50 1 23 47
M  V30 51 1 23 48
M  V30 52 1 24 49
M  V30 53 1 26 50
M  V30 54 1 27 51
M  V30 55 1 28 52
M  V30 56 1 28 53
M  V30 57 1 29 54
M  V30 58 1 29 55
M  V30 END BOND
M  V30 END CTAB
M  END
>  <Dataset>  (275) 
ChEMBL_Kinases

>  <Ligand_Instance>  (275) 
nan

>  <PDB_ID>  (275) 
nan

>  <Standardized_SMILES>  (275) 
C=CC(=O)N1CC=C(c2ccc([C@H](C)C(=O)Nc3cc(C4CC4)[nH]n3)cc2)CC1

>  <Name>  (275) 
nan

>  <Pocket>  (275) 
nan

>  <ATP_Site>  (275) 
nan

>  <Peripheral>  (275) 
nan

>  <Num_H_Atoms_ProtBoundConf>  (275) 
nan

>  <Num_Resolved_Atoms>  (275) 
nan

>  <Num_Not_Resolved_Atoms>  (275) 
nan

$$$$
CHEMBL5075314
     RDKit          3D

  0  0  0  0  0  0  0  0  0  0999 V3000
M  V30 BEGIN CTAB
M  V30 COUNTS 36 39 0 0 0
M  V30 BEGIN ATOM
M  V30 1 Cl 0.442646 -2.873773 4.343176 0
M  V30 2 C 0.546736 -2.972241 2.619523 0
M  V30 3 C 0.096561 -4.068651 1.925898 0
M  V30 4 C 0.171580 -4.176439 0.555118 0
M  V30 5 C 0.745495 -3.077371 -0.094570 0
M  V30 6 C 1.230870 -1.916796 0.535424 0
M  V30 7 C 1.827364 -0.953370 -0.359781 0
M  V30 8 N 2.861314 -1.399808 -1.135994 0
M  V30 9 N 3.300670 -0.409327 -1.918849 0
M  V30 10 C 2.601449 0.720383 -1.713835 0
M  V30 11 N 2.525997 1.968869 -2.152597 0
M  V30 12 C 1.612169 2.828458 -1.677316 0
M  V30 13 N 0.713052 2.461548 -0.717505 0
M  V30 14 C 0.755554 1.183093 -0.234910 0
M  V30 15 N -0.273916 1.086352 0.735458 0
M  V30 16 C -0.511034 1.001652 2.170826 0
M  V30 17 C -1.605628 0.009719 2.465749 0
M  V30 18 O -1.890772 -0.863935 1.446438 0
M  V30 19 C -2.251781 -0.254271 0.270205 0
M  V30 20 C -1.594873 1.072839 0.084792 0
M  V30 21 C 1.704062 0.348782 -0.749779 0
M  V30 22 C 1.087164 -1.958319 1.902129 0
M  V30 23 H -0.338202 -4.891043 2.465953 0
M  V30 24 H -0.175319 -5.028016 -0.009779 0
M  V30 25 H 0.793791 -3.187209 -1.182855 0
M  V30 26 H 4.088072 -0.464195 -2.617966 0
M  V30 27 H 1.684703 3.808644 -2.140566 0
M  V30 28 H 0.386489 0.909467 2.778062 0
M  V30 29 H -0.965529 2.019855 2.422064 0
M  V30 30 H -1.225085 -0.622247 3.316635 0
M  V30 31 H -2.525785 0.488964 2.891165 0
M  V30 32 H -3.371344 -0.167145 0.163336 0
M  V30 33 H -1.963290 -0.931798 -0.573253 0
M  V30 34 H -2.204842 1.865462 0.594014 0
M  V30 35 H -1.547508 1.386759 -0.982530 0
M  V30 36 H 1.482835 -1.071764 2.371104 0
M  V30 END ATOM
M  V30 BEGIN BOND
M  V30 1 1 1 2
M  V30 2 2 2 3
M  V30 3 1 3 4
M  V30 4 2 4 5
M  V30 5 1 5 6
M  V30 6 1 6 7
M  V30 7 2 7 8
M  V30 8 1 8 9
M  V30 9 1 9 10
M  V30 10 2 10 11
M  V30 11 1 11 12
M  V30 12 2 12 13
M  V30 13 1 13 14
M  V30 14 1 14 15
M  V30 15 1 15 16
M  V30 16 1 16 17
M  V30 17 1 17 18
M  V30 18 1 18 19
M  V30 19 1 19 20
M  V30 20 2 14 21
M  V30 21 2 6 22
M  V30 22 1 22 2
M  V30 23 1 21 7
M  V30 24 1 21 10
M  V30 25 1 20 15
M  V30 26 1 3 23
M  V30 27 1 4 24
M  V30 28 1 5 25
M  V30 29 1 9 26
M  V30 30 1 12 27
M  V30 31 1 16 28
M  V30 32 1 16 29
M  V30 33 1 17 30
M  V30 34 1 17 31
M  V30 35 1 19 32
M  V30 36 1 19 33
M  V30 37 1 20 34
M  V30 38 1 20 35
M  V30 39 1 22 36
M  V30 END BOND
M  V30 END CTAB
M  END
>  <Dataset>  (276) 
ChEMBL_Kinases

>  <Ligand_Instance>  (276) 
nan

>  <PDB_ID>  (276) 
nan

>  <Standardized_SMILES>  (276) 
Clc1cccc(-c2n[nH]c3ncnc(N4CCOCC4)c23)c1

>  <Name>  (276) 
nan

>  <Pocket>  (276) 
nan

>  <ATP_Site>  (276) 
nan

>  <Peripheral>  (276) 
nan

>  <Num_H_Atoms_ProtBoundConf>  (276) 
nan

>  <Num_Resolved_Atoms>  (276) 
nan

>  <Num_Not_Resolved_Atoms>  (276) 
nan

$$$$
CHEMBL5082230
     RDKit          3D

  0  0  0  0  0  0  0  0  0  0999 V3000
M  V30 BEGIN CTAB
M  V30 COUNTS 49 53 0 0 0
M  V30 BEGIN ATOM
M  V30 1 F -1.531399 -5.342687 2.678269 0
M  V30 2 C -0.704372 -4.558315 1.951534 0
M  V30 3 C 0.614751 -4.449896 2.332580 0
M  V30 4 N 1.370490 -3.636880 1.536475 0
M  V30 5 C 0.839630 -3.006993 0.472728 0
M  V30 6 N 1.829486 -2.224185 -0.182833 0
M  V30 7 C 2.053179 -0.847971 0.089087 0
M  V30 8 C 1.303452 -0.165567 1.022289 0
M  V30 9 C 1.559351 1.188536 1.251706 0
M  V30 10 C 2.560801 1.793086 0.528930 0
M  V30 11 N 2.839543 3.167902 0.736218 0
M  V30 12 C 2.110390 4.095774 1.572530 0
M  V30 13 C 2.970540 4.703760 2.668574 0
M  V30 14 N 4.165019 5.306192 2.137285 0
M  V30 15 C 4.851990 4.315164 1.330712 0
M  V30 16 C 3.906285 3.967083 0.174226 0
M  V30 17 C 3.291702 1.083679 -0.395496 0
M  V30 18 N 3.029135 -0.232136 -0.605819 0
M  V30 19 N -0.471850 -3.129632 0.113894 0
M  V30 20 C -1.263040 -3.933980 0.884409 0
M  V30 21 C -2.653842 -4.021952 0.454276 0
M  V30 22 C -3.529121 -3.905100 1.529076 0
M  V30 23 C -4.895401 -3.959924 1.350764 0
M  V30 24 C -5.413582 -4.134579 0.077473 0
M  V30 25 N -6.756303 -4.196619 -0.165438 0
M  V30 26 C -7.214499 -4.369384 -1.436896 0
M  V30 27 C -6.312016 -4.481076 -2.477297 0
M  V30 28 N -4.993373 -4.416909 -2.211672 0
M  V30 29 C -4.510854 -4.247214 -0.968112 0
M  V30 30 C -3.153638 -4.196374 -0.818306 0
M  V30 31 H 0.979888 -4.986876 3.202153 0
M  V30 32 H 2.361255 -2.760972 -0.871073 0
M  V30 33 H 0.535629 -0.687195 1.556303 0
M  V30 34 H 0.946806 1.651122 1.983321 0
M  V30 35 H 1.237355 3.645660 2.078058 0
M  V30 36 H 1.696377 4.950475 0.985687 0
M  V30 37 H 3.273528 3.953703 3.424474 0
M  V30 38 H 2.347087 5.516214 3.109580 0
M  V30 39 H 4.771369 5.560509 2.948496 0
M  V30 40 H 4.949957 3.418361 1.976371 0
M  V30 41 H 5.805263 4.659495 0.919546 0
M  V30 42 H 3.568299 4.877698 -0.349870 0
M  V30 43 H 4.536761 3.388041 -0.536810 0
M  V30 44 H 4.090772 1.479427 -1.003860 0
M  V30 45 H -3.257762 -3.764420 2.586256 0
M  V30 46 H -5.629511 -3.878026 2.120303 0
M  V30 47 H -8.307156 -4.406748 -1.522605 0
M  V30 48 H -6.795800 -4.612394 -3.421562 0
M  V30 49 H -2.409671 -4.275326 -1.570333 0
M  V30 END ATOM
M  V30 BEGIN BOND
M  V30 1 1 1 2
M  V30 2 2 2 3
M  V30 3 1 3 4
M  V30 4 2 4 5
M  V30 5 1 5 6
M  V30 6 1 6 7
M  V30 7 2 7 8
M  V30 8 1 8 9
M  V30 9 2 9 10
M  V30 10 1 10 11
M  V30 11 1 11 12
M  V30 12 1 12 13
M  V30 13 1 13 14
M  V30 14 1 14 15
M  V30 15 1 15 16
M  V30 16 1 10 17
M  V30 17 2 17 18
M  V30 18 1 5 19
M  V30 19 2 19 20
M  V30 20 1 20 21
M  V30 21 2 21 22
M  V30 22 1 22 23
M  V30 23 2 23 24
M  V30 24 1 24 25
M  V30 25 2 25 26
M  V30 26 1 26 27
M  V30 27 2 27 28
M  V30 28 1 28 29
M  V30 29 2 29 30
M  V30 30 1 20 2
M  V30 31 1 30 21
M  V30 32 1 18 7
M  V30 33 1 29 24
M  V30 34 1 16 11
M  V30 35 1 3 31
M  V30 36 1 6 32
M  V30 37 1 8 33
M  V30 38 1 9 34
M  V30 39 1 12 35
M  V30 40 1 12 36
M  V30 41 1 13 37
M  V30 42 1 13 38
M  V30 43 1 14 39
M  V30 44 1 15 40
M  V30 45 1 15 41
M  V30 46 1 16 42
M  V30 47 1 16 43
M  V30 48 1 17 44
M  V30 49 1 22 45
M  V30 50 1 23 46
M  V30 51 1 26 47
M  V30 52 1 27 48
M  V30 53 1 30 49
M  V30 END BOND
M  V30 END CTAB
M  END
>  <Dataset>  (277) 
ChEMBL_Kinases

>  <Ligand_Instance>  (277) 
nan

>  <PDB_ID>  (277) 
nan

>  <Standardized_SMILES>  (277) 
Fc1cnc(Nc2ccc(N3CCNCC3)cn2)nc1-c1ccc2nccnc2c1

>  <Name>  (277) 
nan

>  <Pocket>  (277) 
nan

>  <ATP_Site>  (277) 
nan

>  <Peripheral>  (277) 
nan

>  <Num_H_Atoms_ProtBoundConf>  (277) 
nan

>  <Num_Resolved_Atoms>  (277) 
nan

>  <Num_Not_Resolved_Atoms>  (277) 
nan

$$$$
CHEMBL4764261
     RDKit          3D

  0  0  0  0  0  0  0  0  0  0999 V3000
M  V30 BEGIN CTAB
M  V30 COUNTS 43 48 0 0 0
M  V30 BEGIN ATOM
M  V30 1 F 1.597575 3.134479 6.114517 0
M  V30 2 C 2.607951 2.387411 5.582310 0
M  V30 3 C 3.718417 1.956396 6.278367 0
M  V30 4 C 4.698277 1.197351 5.648770 0
M  V30 5 C 4.535475 0.889979 4.329750 0
M  V30 6 C 3.426136 1.312202 3.606961 0
M  V30 7 C 3.440666 0.879529 2.213621 0
M  V30 8 C 4.546138 0.958612 1.405502 0
M  V30 9 N 4.577371 0.564632 0.119493 0
M  V30 10 C 3.471500 0.041845 -0.486586 0
M  V30 11 C 2.345898 -0.049455 0.301890 0
M  V30 12 N 1.119643 -0.513318 -0.000877 0
M  V30 13 C 0.320077 -0.421134 1.059868 0
M  V30 14 C -1.079916 -0.779095 1.261337 0
M  V30 15 N -1.878582 -0.676394 2.354734 0
M  V30 16 N -3.082838 -1.127040 2.073042 0
M  V30 17 C -3.138306 -1.548897 0.781343 0
M  V30 18 C -4.211303 -2.085887 0.098510 0
M  V30 19 C -3.962304 -2.424729 -1.220518 0
M  V30 20 C -2.697452 -2.202197 -1.724176 0
M  V30 21 C -2.423207 -2.556971 -3.118172 0
M  V30 22 C -1.199610 -2.390614 -3.761360 0
M  V30 23 N -1.398816 -2.847894 -5.027984 0
M  V30 24 N -2.638712 -3.261526 -5.157402 0
M  V30 25 C -3.326297 -3.113887 -4.027348 0
M  V30 26 N -1.680007 -1.675272 -1.020155 0
M  V30 27 C -1.873526 -1.329330 0.268303 0
M  V30 28 N 1.049458 0.113836 2.065880 0
M  V30 29 C 2.293793 0.347468 1.617302 0
M  V30 30 C 2.445163 2.072209 4.237593 0
M  V30 31 H 3.768758 2.248244 7.332580 0
M  V30 32 H 5.543303 0.893216 6.256784 0
M  V30 33 H 5.346521 0.291145 3.905321 0
M  V30 34 H 5.426518 1.378838 1.900873 0
M  V30 35 H 3.470824 -0.282185 -1.518961 0
M  V30 36 H 0.783951 -0.901322 -0.915926 0
M  V30 37 H -3.877478 -1.144922 2.778152 0
M  V30 38 H -5.167827 -2.216586 0.599211 0
M  V30 39 H -4.762144 -2.849240 -1.806748 0
M  V30 40 H -0.305927 -1.989900 -3.341091 0
M  V30 41 H -3.125321 -3.671415 -5.997319 0
M  V30 42 H -4.348790 -3.342356 -3.775024 0
M  V30 43 H 1.619914 2.354792 3.596425 0
M  V30 END ATOM
M  V30 BEGIN BOND
M  V30 1 1 1 2
M  V30 2 2 2 3
M  V30 3 1 3 4
M  V30 4 2 4 5
M  V30 5 1 5 6
M  V30 6 1 6 7
M  V30 7 2 7 8
M  V30 8 1 8 9
M  V30 9 2 9 10
M  V30 10 1 10 11
M  V30 11 1 11 12
M  V30 12 1 12 13
M  V30 13 1 13 14
M  V30 14 2 14 15
M  V30 15 1 15 16
M  V30 16 1 16 17
M  V30 17 2 17 18
M  V30 18 1 18 19
M  V30 19 2 19 20
M  V30 20 1 20 21
M  V30 21 1 21 22
M  V30 22 2 22 23
M  V30 23 1 23 24
M  V30 24 1 24 25
M  V30 25 1 20 26
M  V30 26 2 26 27
M  V30 27 2 13 28
M  V30 28 1 28 29
M  V30 29 2 6 30
M  V30 30 1 30 2
M  V30 31 1 29 7
M  V30 32 2 29 11
M  V30 33 1 27 14
M  V30 34 1 27 17
M  V30 35 2 25 21
M  V30 36 1 3 31
M  V30 37 1 4 32
M  V30 38 1 5 33
M  V30 39 1 8 34
M  V30 40 1 10 35
M  V30 41 1 12 36
M  V30 42 1 16 37
M  V30 43 1 18 38
M  V30 44 1 19 39
M  V30 45 1 22 40
M  V30 46 1 24 41
M  V30 47 1 25 42
M  V30 48 1 30 43
M  V30 END BOND
M  V30 END CTAB
M  END
>  <Dataset>  (278) 
ChEMBL_Kinases

>  <Ligand_Instance>  (278) 
nan

>  <PDB_ID>  (278) 
nan

>  <Standardized_SMILES>  (278) 
Fc1cccc(-c2cncc3[nH]c(-c4n[nH]c5ccc(-c6cn[nH]c6)nc45)nc23)c1

>  <Name>  (278) 
nan

>  <Pocket>  (278) 
nan

>  <ATP_Site>  (278) 
nan

>  <Peripheral>  (278) 
nan

>  <Num_H_Atoms_ProtBoundConf>  (278) 
nan

>  <Num_Resolved_Atoms>  (278) 
nan

>  <Num_Not_Resolved_Atoms>  (278) 
nan

$$$$
CHEMBL4764401
     RDKit          3D

  0  0  0  0  0  0  0  0  0  0999 V3000
M  V30 BEGIN CTAB
M  V30 COUNTS 45 47 0 0 0
M  V30 BEGIN ATOM
M  V30 1 C 0.516151 -4.970461 1.564502 0
M  V30 2 O -0.304001 -4.176598 2.383588 0
M  V30 3 C -0.087427 -2.823086 2.494821 0
M  V30 4 C 0.908538 -2.111530 1.851346 0
M  V30 5 C 1.015457 -0.748544 2.051563 0
M  V30 6 N 2.111769 -0.192203 1.294909 0
M  V30 7 C 1.766602 0.250735 -0.033668 0
M  V30 8 O 0.532100 0.013858 -0.169345 0
M  V30 9 C 2.833823 0.821480 -0.843294 0 CFG=2
M  V30 10 N 4.122965 0.828080 -0.175795 0
M  V30 11 C 2.510001 2.255765 -1.174919 0
M  V30 12 C 1.253174 2.433923 -1.930953 0
M  V30 13 C 0.018680 2.642210 -1.354030 0
M  V30 14 C -1.164068 2.807791 -2.042048 0
M  V30 15 C -1.127904 2.764624 -3.423562 0
M  V30 16 Cl -2.633204 2.975153 -4.293459 0
M  V30 17 C 0.070174 2.559889 -4.080229 0
M  V30 18 Cl 0.080685 2.511076 -5.818107 0
M  V30 19 C 1.225538 2.400190 -3.327398 0
M  V30 20 C 0.157355 -0.055644 2.879221 0
M  V30 21 C -0.842034 -0.756645 3.527795 0
M  V30 22 C -0.958567 -2.134778 3.332135 0
M  V30 23 C -2.045710 -2.780291 4.061515 0
M  V30 24 C -2.010107 -3.969607 4.784601 0
M  V30 25 N -3.229592 -4.172391 5.281352 0
M  V30 26 N -4.077461 -3.214248 4.948430 0
M  V30 27 C -3.352683 -2.354853 4.197174 0
M  V30 28 H 1.577159 -4.724531 1.811374 0
M  V30 29 H 0.332920 -4.739902 0.511314 0
M  V30 30 H 0.246973 -6.027186 1.774074 0
M  V30 31 H 1.544144 -2.717045 1.218950 0
M  V30 32 H 3.072695 -0.146000 1.750365 0
M  V30 33 H 3.008145 0.302910 -1.819591 0
M  V30 34 H 4.884930 0.985138 -0.898456 0
M  V30 35 H 4.294140 -0.173334 0.119406 0
M  V30 36 H 3.309543 2.723726 -1.808295 0
M  V30 37 H 2.436329 2.799392 -0.207954 0
M  V30 38 H -0.056015 2.685846 -0.276207 0
M  V30 39 H -2.108454 2.968200 -1.530427 0
M  V30 40 H 2.138317 2.242378 -3.892095 0
M  V30 41 H 0.334015 0.998308 2.959369 0
M  V30 42 H -1.513269 -0.210793 4.175534 0
M  V30 43 H -1.133667 -4.591202 4.901213 0
M  V30 44 H -5.088215 -3.122597 5.200332 0
M  V30 45 H -3.741114 -1.430204 3.745096 0
M  V30 END ATOM
M  V30 BEGIN BOND
M  V30 1 1 1 2
M  V30 2 1 2 3
M  V30 3 2 3 4
M  V30 4 1 4 5
M  V30 5 1 5 6
M  V30 6 1 6 7
M  V30 7 2 7 8
M  V30 8 1 7 9
M  V30 9 1 9 10
M  V30 10 1 9 11
M  V30 11 1 11 12
M  V30 12 2 12 13
M  V30 13 1 13 14
M  V30 14 2 14 15
M  V30 15 1 15 16
M  V30 16 1 15 17
M  V30 17 1 17 18
M  V30 18 2 17 19
M  V30 19 2 5 20
M  V30 20 1 20 21
M  V30 21 2 21 22
M  V30 22 1 22 23
M  V30 23 1 23 24
M  V30 24 2 24 25
M  V30 25 1 25 26
M  V30 26 1 26 27
M  V30 27 1 22 3
M  V30 28 2 27 23
M  V30 29 1 19 12
M  V30 30 1 1 28
M  V30 31 1 1 29
M  V30 32 1 1 30
M  V30 33 1 4 31
M  V30 34 1 6 32
M  V30 35 1 9 33 CFG=3
M  V30 36 1 10 34
M  V30 37 1 10 35
M  V30 38 1 11 36
M  V30 39 1 11 37
M  V30 40 1 13 38
M  V30 41 1 14 39
M  V30 42 1 19 40
M  V30 43 1 20 41
M  V30 44 1 21 42
M  V30 45 1 24 43
M  V30 46 1 26 44
M  V30 47 1 27 45
M  V30 END BOND
M  V30 END CTAB
M  END
>  <Dataset>  (279) 
ChEMBL_Kinases

>  <Ligand_Instance>  (279) 
nan

>  <PDB_ID>  (279) 
nan

>  <Standardized_SMILES>  (279) 
COc1cc(NC(=O)[C@H](N)Cc2ccc(Cl)c(Cl)c2)ccc1-c1cn[nH]c1

>  <Name>  (279) 
nan

>  <Pocket>  (279) 
nan

>  <ATP_Site>  (279) 
nan

>  <Peripheral>  (279) 
nan

>  <Num_H_Atoms_ProtBoundConf>  (279) 
nan

>  <Num_Resolved_Atoms>  (279) 
nan

>  <Num_Not_Resolved_Atoms>  (279) 
nan

$$$$
CHEMBL5081601
     RDKit          3D

  0  0  0  0  0  0  0  0  0  0999 V3000
M  V30 BEGIN CTAB
M  V30 COUNTS 62 66 0 0 0
M  V30 BEGIN ATOM
M  V30 1 C 3.337349 0.503058 4.657560 0
M  V30 2 O 2.807282 -0.057729 3.509716 0
M  V30 3 C 2.652035 0.584889 2.313032 0
M  V30 4 C 2.097464 -0.022649 1.157643 0
M  V30 5 C 2.137873 0.979075 0.214514 0
M  V30 6 N 2.675786 2.035524 0.833072 0
M  V30 7 N 2.998240 1.852069 2.080838 0
M  V30 8 C 3.593099 2.934952 2.852687 0
M  V30 9 C 1.742568 1.167286 -1.220759 0
M  V30 10 N 0.295634 1.139223 -1.311960 0
M  V30 11 C -0.428835 2.350830 -1.002642 0
M  V30 12 C -1.281834 2.211076 0.236797 0
M  V30 13 C -1.303080 2.837183 -2.133149 0
M  V30 14 C -0.814025 0.333261 -1.524734 0
M  V30 15 O 0.012265 -0.530443 -1.880334 0
M  V30 16 C -2.163339 -0.190692 -1.624644 0
M  V30 17 C -2.302843 -1.238422 -2.686256 0
M  V30 18 C -3.589565 -2.014733 -2.471102 0
M  V30 19 N -3.521409 -2.666196 -1.141531 0
M  V30 20 C -2.240014 -3.003891 -0.794016 0
M  V30 21 C -2.195937 -3.603376 0.453186 0
M  V30 22 C -3.509751 -3.614995 0.846507 0
M  V30 23 C -3.796598 -4.210357 2.171648 0
M  V30 24 F -3.120728 -3.537837 3.169793 0
M  V30 25 F -5.150250 -3.919687 2.409986 0
M  V30 26 F -3.698258 -5.564296 2.226255 0
M  V30 27 N -4.265897 -3.053274 -0.120006 0
M  V30 28 C -0.877853 -4.022165 0.954685 0
M  V30 29 C -0.678992 -5.350013 1.246588 0
M  V30 30 N 0.629543 -5.416008 1.639924 0
M  V30 31 C 1.190822 -4.191292 1.588633 0
M  V30 32 N 2.412930 -3.675929 1.851565 0
M  V30 33 C 2.612006 -2.352771 1.677388 0
M  V30 34 C 1.648726 -1.432718 1.238419 0
M  V30 35 C 0.411564 -1.962508 0.972278 0
M  V30 36 C 0.247876 -3.292637 1.156743 0
M  V30 37 H 3.152681 -0.180772 5.550630 0
M  V30 38 H 2.963613 1.497605 4.945910 0
M  V30 39 H 4.465560 0.570817 4.648146 0
M  V30 40 H 4.445952 2.592063 3.466687 0
M  V30 41 H 2.827373 3.362615 3.524075 0
M  V30 42 H 4.012792 3.718562 2.171735 0
M  V30 43 H 2.166465 2.038023 -1.706601 0
M  V30 44 H 2.194465 0.282368 -1.738184 0
M  V30 45 H 0.278408 3.196465 -0.781441 0
M  V30 46 H -1.255995 1.151394 0.626643 0
M  V30 47 H -0.892015 2.817763 1.077720 0
M  V30 48 H -2.329580 2.533715 0.059463 0
M  V30 49 H -2.310649 3.032475 -1.728416 0
M  V30 50 H -0.969355 3.826060 -2.548192 0
M  V30 51 H -1.418850 2.086416 -2.953420 0
M  V30 52 H -2.444736 -0.569761 -0.612647 0
M  V30 53 H -2.927651 0.600237 -1.828917 0
M  V30 54 H -1.449593 -1.838779 -2.925222 0
M  V30 55 H -2.510525 -0.641375 -3.643923 0
M  V30 56 H -4.456595 -1.346408 -2.553192 0
M  V30 57 H -3.658760 -2.760353 -3.286647 0
M  V30 58 H -1.296445 -2.875085 -1.341554 0
M  V30 59 H -1.315954 -6.217200 1.213348 0
M  V30 60 H 1.220049 -6.223396 1.953857 0
M  V30 61 H 3.629290 -1.995783 1.908336 0
M  V30 62 H -0.484983 -1.483715 0.637187 0
M  V30 END ATOM
M  V30 BEGIN BOND
M  V30 1 1 1 2
M  V30 2 1 2 3
M  V30 3 2 3 4
M  V30 4 1 4 5
M  V30 5 2 5 6
M  V30 6 1 6 7
M  V30 7 1 7 8
M  V30 8 1 5 9
M  V30 9 1 9 10
M  V30 10 1 10 11
M  V30 11 1 11 12
M  V30 12 1 11 13
M  V30 13 1 10 14
M  V30 14 2 14 15
M  V30 15 1 14 16
M  V30 16 1 16 17
M  V30 17 1 17 18
M  V30 18 1 18 19
M  V30 19 1 19 20
M  V30 20 2 20 21
M  V30 21 1 21 22
M  V30 22 1 22 23
M  V30 23 1 23 24
M  V30 24 1 23 25
M  V30 25 1 23 26
M  V30 26 2 22 27
M  V30 27 1 21 28
M  V30 28 2 28 29
M  V30 29 1 29 30
M  V30 30 1 30 31
M  V30 31 2 31 32
M  V30 32 1 32 33
M  V30 33 2 33 34
M  V30 34 1 34 35
M  V30 35 2 35 36
M  V30 36 1 7 3
M  V30 37 1 27 19
M  V30 38 1 36 28
M  V30 39 1 34 4
M  V30 40 1 36 31
M  V30 41 1 1 37
M  V30 42 1 1 38
M  V30 43 1 1 39
M  V30 44 1 8 40
M  V30 45 1 8 41
M  V30 46 1 8 42
M  V30 47 1 9 43
M  V30 48 1 9 44
M  V30 49 1 11 45
M  V30 50 1 12 46
M  V30 51 1 12 47
M  V30 52 1 12 48
M  V30 53 1 13 49
M  V30 54 1 13 50
M  V30 55 1 13 51
M  V30 56 1 16 52
M  V30 57 1 16 53
M  V30 58 1 17 54
M  V30 59 1 17 55
M  V30 60 1 18 56
M  V30 61 1 18 57
M  V30 62 1 20 58
M  V30 63 1 29 59
M  V30 64 1 30 60
M  V30 65 1 33 61
M  V30 66 1 35 62
M  V30 END BOND
M  V30 END CTAB
M  END
>  <Dataset>  (280) 
ChEMBL_Kinases

>  <Ligand_Instance>  (280) 
nan

>  <PDB_ID>  (280) 
nan

>  <Standardized_SMILES>  (280) 
COc1c2c(nn1C)CN(C(C)C)C(=O)CCCn1cc(c(C(F)(F)F)n1)-c1c[nH]c3ncc-2cc13

>  <Name>  (280) 
nan

>  <Pocket>  (280) 
nan

>  <ATP_Site>  (280) 
nan

>  <Peripheral>  (280) 
nan

>  <Num_H_Atoms_ProtBoundConf>  (280) 
nan

>  <Num_Resolved_Atoms>  (280) 
nan

>  <Num_Not_Resolved_Atoms>  (280) 
nan

$$$$
CHEMBL5081489
     RDKit          3D

  0  0  0  0  0  0  0  0  0  0999 V3000
M  V30 BEGIN CTAB
M  V30 COUNTS 59 63 0 0 0
M  V30 BEGIN ATOM
M  V30 1 C 3.843800 -2.843881 3.395532 0
M  V30 2 N 3.932524 -2.702544 1.939452 0
M  V30 3 C 3.691749 -3.976399 1.243337 0
M  V30 4 C 4.231275 -1.328311 1.624300 0
M  V30 5 C 5.483358 -0.727040 1.576541 0
M  V30 6 N 5.490054 0.590537 1.263564 0
M  V30 7 C 4.358646 1.267797 1.015974 0
M  V30 8 C 4.442984 2.632730 0.710435 0
M  V30 9 C 3.315470 3.387882 0.454237 0
M  V30 10 C 2.079195 2.790767 0.498993 0
M  V30 11 C 0.737618 3.332765 0.303749 0
M  V30 12 N -0.334044 2.977579 1.061509 0
M  V30 13 C -1.572332 3.465562 0.911747 0
M  V30 14 N -2.376665 2.763967 1.887617 0
M  V30 15 C -2.847637 1.547640 1.253260 0
M  V30 16 C -3.592364 0.627543 1.955759 0
M  V30 17 C -4.073550 -0.537961 1.411738 0
M  V30 18 C -3.834915 -0.857368 0.111258 0
M  V30 19 C -4.134281 -1.931857 -0.819654 0
M  V30 20 O -5.038254 -1.581079 -1.659232 0
M  V30 21 N -3.437742 -3.169458 -0.701657 0
M  V30 22 C -2.423593 -3.777834 0.136270 0
M  V30 23 C -1.242740 -4.032158 -0.794984 0
M  V30 24 N -1.657196 -5.024857 -1.756957 0
M  V30 25 C -3.059056 -5.297816 -1.754514 0
M  V30 26 C -3.900227 -4.052560 -1.769598 0
M  V30 27 C -3.076026 0.075631 -0.614477 0
M  V30 28 N -2.631068 1.199776 -0.028084 0
M  V30 29 N -1.821007 4.377328 -0.042239 0
M  V30 30 C -0.812968 4.802278 -0.859726 0
M  V30 31 C 0.461839 4.262858 -0.666442 0
M  V30 32 F 1.420806 4.717685 -1.512392 0
M  V30 33 C 1.987547 1.427900 0.804226 0
M  V30 34 C 3.117815 0.676642 1.061050 0
M  V30 35 N 3.107896 -0.642319 1.374647 0
M  V30 36 H 3.380908 -1.963826 3.884031 0
M  V30 37 H 4.880081 -2.908583 3.801377 0
M  V30 38 H 3.250398 -3.727995 3.709858 0
M  V30 39 H 2.649134 -4.337935 1.448874 0
M  V30 40 H 3.880619 -3.881147 0.155313 0
M  V30 41 H 4.356392 -4.750689 1.712385 0
M  V30 42 H 6.306814 -1.375485 1.795214 0
M  V30 43 H 5.386681 3.136114 0.663987 0
M  V30 44 H 3.262096 4.427189 0.208564 0
M  V30 45 H -2.671413 2.930080 2.865923 0
M  V30 46 H -3.843366 0.765412 2.995808 0
M  V30 47 H -4.652017 -1.328462 1.855473 0
M  V30 48 H -2.113759 -3.150748 1.000766 0
M  V30 49 H -2.770694 -4.750729 0.542875 0
M  V30 50 H -1.086871 -3.091589 -1.398486 0
M  V30 51 H -0.319293 -4.281796 -0.245303 0
M  V30 52 H -1.067890 -5.867631 -1.632012 0
M  V30 53 H -3.302255 -6.003962 -0.943556 0
M  V30 54 H -3.271691 -5.883189 -2.702322 0
M  V30 55 H -4.954543 -4.315800 -1.598885 0
M  V30 56 H -3.713524 -3.569090 -2.758275 0
M  V30 57 H -2.723830 0.117094 -1.652426 0
M  V30 58 H -1.116559 5.530289 -1.589975 0
M  V30 59 H 1.086542 0.826117 0.875102 0
M  V30 END ATOM
M  V30 BEGIN BOND
M  V30 1 1 1 2
M  V30 2 1 2 3
M  V30 3 1 2 4
M  V30 4 2 4 5
M  V30 5 1 5 6
M  V30 6 2 6 7
M  V30 7 1 7 8
M  V30 8 2 8 9
M  V30 9 1 9 10
M  V30 10 1 10 11
M  V30 11 2 11 12
M  V30 12 1 12 13
M  V30 13 1 13 14
M  V30 14 1 14 15
M  V30 15 2 15 16
M  V30 16 1 16 17
M  V30 17 2 17 18
M  V30 18 1 18 19
M  V30 19 2 19 20
M  V30 20 1 19 21
M  V30 21 1 21 22
M  V30 22 1 22 23
M  V30 23 1 23 24
M  V30 24 1 24 25
M  V30 25 1 25 26
M  V30 26 1 18 27
M  V30 27 2 27 28
M  V30 28 2 13 29
M  V30 29 1 29 30
M  V30 30 2 30 31
M  V30 31 1 31 32
M  V30 32 2 10 33
M  V30 33 1 33 34
M  V30 34 2 34 35
M  V30 35 1 35 4
M  V30 36 1 34 7
M  V30 37 1 31 11
M  V30 38 1 28 15
M  V30 39 1 26 21
M  V30 40 1 1 36
M  V30 41 1 1 37
M  V30 42 1 1 38
M  V30 43 1 3 39
M  V30 44 1 3 40
M  V30 45 1 3 41
M  V30 46 1 5 42
M  V30 47 1 8 43
M  V30 48 1 9 44
M  V30 49 1 14 45
M  V30 50 1 16 46
M  V30 51 1 17 47
M  V30 52 1 22 48
M  V30 53 1 22 49
M  V30 54 1 23 50
M  V30 55 1 23 51
M  V30 56 1 24 52
M  V30 57 1 25 53
M  V30 58 1 25 54
M  V30 59 1 26 55
M  V30 60 1 26 56
M  V30 61 1 27 57
M  V30 62 1 30 58
M  V30 63 1 33 59
M  V30 END BOND
M  V30 END CTAB
M  END
>  <Dataset>  (281) 
ChEMBL_Kinases

>  <Ligand_Instance>  (281) 
nan

>  <PDB_ID>  (281) 
nan

>  <Standardized_SMILES>  (281) 
CN(C)c1cnc2ccc(-c3nc(Nc4ccc(C(=O)N5CCNCC5)cn4)ncc3F)cc2n1

>  <Name>  (281) 
nan

>  <Pocket>  (281) 
nan

>  <ATP_Site>  (281) 
nan

>  <Peripheral>  (281) 
nan

>  <Num_H_Atoms_ProtBoundConf>  (281) 
nan

>  <Num_Resolved_Atoms>  (281) 
nan

>  <Num_Not_Resolved_Atoms>  (281) 
nan

$$$$
CHEMBL4764756
     RDKit          3D

  0  0  0  0  0  0  0  0  0  0999 V3000
M  V30 BEGIN CTAB
M  V30 COUNTS 40 43 0 0 0
M  V30 BEGIN ATOM
M  V30 1 N 3.649461 -6.278822 0.403005 0
M  V30 2 C 2.872939 -5.230753 0.955496 0
M  V30 3 N 2.397393 -5.135516 2.211896 0
M  V30 4 N 1.723353 -3.999692 2.312589 0
M  V30 5 C 1.764418 -3.359894 1.116305 0
M  V30 6 C 1.218225 -2.156049 0.722255 0
M  V30 7 C 1.370961 -1.660679 -0.564106 0
M  V30 8 C 0.739930 -0.377040 -0.831895 0
M  V30 9 C 0.237115 -0.019915 -2.076401 0
M  V30 10 C -0.352094 1.209402 -2.285322 0
M  V30 11 C -0.452249 2.124167 -1.233348 0
M  V30 12 O -0.998705 3.237945 -1.467080 0
M  V30 13 N 0.035521 1.789370 -0.008205 0
M  V30 14 C -0.064361 2.734480 1.087091 0
M  V30 15 C -1.293037 2.618493 1.877977 0
M  V30 16 C -1.162149 1.731855 2.953198 0
M  V30 17 C -2.266862 1.532534 3.788336 0
M  V30 18 C -3.474318 2.182902 3.581176 0
M  V30 19 C -3.556015 3.056093 2.497480 0
M  V30 20 Cl -5.074192 3.905255 2.196208 0
M  V30 21 C -2.484561 3.276860 1.652063 0
M  V30 22 C 0.602802 0.574423 0.144734 0
M  V30 23 C 2.093914 -2.416694 -1.448431 0
M  V30 24 C 2.632871 -3.611119 -1.048645 0
M  V30 25 C 2.501376 -4.131194 0.216227 0
M  V30 26 H 3.531029 -7.265561 0.098489 0
M  V30 27 H 4.672677 -6.208712 0.167137 0
M  V30 28 H 1.259672 -3.703400 3.196045 0
M  V30 29 H 0.650844 -1.599669 1.476669 0
M  V30 30 H 0.314919 -0.731699 -2.895527 0
M  V30 31 H -0.738500 1.455505 -3.285203 0
M  V30 32 H 0.856784 2.748327 1.705486 0
M  V30 33 H -0.094583 3.752712 0.618221 0
M  V30 34 H -0.280990 1.172862 3.212831 0
M  V30 35 H -2.186532 0.842519 4.636567 0
M  V30 36 H -4.300390 1.995941 4.254726 0
M  V30 37 H -2.513734 3.943394 0.807272 0
M  V30 38 H 0.964330 0.383713 1.139224 0
M  V30 39 H 2.205311 -2.025514 -2.436302 0
M  V30 40 H 3.200904 -4.205275 -1.742410 0
M  V30 END ATOM
M  V30 BEGIN BOND
M  V30 1 1 1 2
M  V30 2 2 2 3
M  V30 3 1 3 4
M  V30 4 1 4 5
M  V30 5 2 5 6
M  V30 6 1 6 7
M  V30 7 1 7 8
M  V30 8 1 8 9
M  V30 9 2 9 10
M  V30 10 1 10 11
M  V30 11 2 11 12
M  V30 12 1 11 13
M  V30 13 1 13 14
M  V30 14 1 14 15
M  V30 15 2 15 16
M  V30 16 1 16 17
M  V30 17 2 17 18
M  V30 18 1 18 19
M  V30 19 1 19 20
M  V30 20 2 19 21
M  V30 21 1 13 22
M  V30 22 2 7 23
M  V30 23 1 23 24
M  V30 24 2 24 25
M  V30 25 1 25 2
M  V30 26 1 25 5
M  V30 27 2 22 8
M  V30 28 1 21 15
M  V30 29 1 1 26
M  V30 30 1 1 27
M  V30 31 1 4 28
M  V30 32 1 6 29
M  V30 33 1 9 30
M  V30 34 1 10 31
M  V30 35 1 14 32
M  V30 36 1 14 33
M  V30 37 1 16 34
M  V30 38 1 17 35
M  V30 39 1 18 36
M  V30 40 1 21 37
M  V30 41 1 22 38
M  V30 42 1 23 39
M  V30 43 1 24 40
M  V30 END BOND
M  V30 END CTAB
M  END
>  <Dataset>  (282) 
ChEMBL_Kinases

>  <Ligand_Instance>  (282) 
nan

>  <PDB_ID>  (282) 
nan

>  <Standardized_SMILES>  (282) 
Nc1n[nH]c2cc(-c3ccc(=O)n(Cc4cccc(Cl)c4)c3)ccc12

>  <Name>  (282) 
nan

>  <Pocket>  (282) 
nan

>  <ATP_Site>  (282) 
nan

>  <Peripheral>  (282) 
nan

>  <Num_H_Atoms_ProtBoundConf>  (282) 
nan

>  <Num_Resolved_Atoms>  (282) 
nan

>  <Num_Not_Resolved_Atoms>  (282) 
nan

$$$$
CHEMBL4764778
     RDKit          3D

  0  0  0  0  0  0  0  0  0  0999 V3000
M  V30 BEGIN CTAB
M  V30 COUNTS 54 59 0 0 0
M  V30 BEGIN ATOM
M  V30 1 C 6.376612 0.573274 2.609767 0
M  V30 2 N 5.478004 -0.490606 2.288606 0
M  V30 3 C 4.377810 -0.601727 3.233181 0
M  V30 4 C 5.041649 -0.541425 0.930320 0
M  V30 5 C 4.324580 0.640355 0.446513 0
M  V30 6 C 5.058158 1.671794 -0.134670 0
M  V30 7 N 4.476644 2.790944 -0.603678 0
M  V30 8 C 3.140830 2.991243 -0.543143 0
M  V30 9 C 2.352092 1.987076 0.031383 0
M  V30 10 C 0.903798 2.178642 0.109411 0
M  V30 11 C 0.461351 3.475955 0.265567 0
M  V30 12 N -0.873928 3.624332 0.334474 0
M  V30 13 C -1.744371 2.602875 0.259955 0
M  V30 14 N -3.081513 2.484212 0.300481 0
M  V30 15 N -3.450347 1.227863 0.180924 0
M  V30 16 C -2.374446 0.402116 0.049890 0
M  V30 17 C -2.426624 -1.037726 -0.101778 0
M  V30 18 N -3.604091 -1.685213 -0.123729 0
M  V30 19 C -3.414363 -2.997483 -0.271395 0
M  V30 20 C -4.300627 -4.077152 -0.351073 0
M  V30 21 C -5.733735 -3.838625 -0.267688 0
M  V30 22 C -6.302154 -3.014171 0.653149 0
M  V30 23 C -7.669381 -2.834993 0.673778 0
M  V30 24 S -8.319495 -3.854227 -0.659774 0
M  V30 25 C -6.615093 -4.463948 -1.155518 0
M  V30 26 C -3.822715 -5.359182 -0.506962 0
M  V30 27 C -2.455000 -5.549450 -0.582040 0
M  V30 28 C -1.545685 -4.502529 -0.506780 0
M  V30 29 C -2.061520 -3.241324 -0.351568 0
M  V30 30 N -1.538233 -2.012082 -0.241346 0
M  V30 31 C -1.332567 1.298045 0.104174 0
M  V30 32 C 0.029212 1.118087 0.030853 0
M  V30 33 C 2.955112 0.840120 0.511230 0
M  V30 34 H 6.168907 1.540502 2.129003 0
M  V30 35 H 7.430099 0.217151 2.452726 0
M  V30 36 H 6.332583 0.789946 3.715266 0
M  V30 37 H 3.739064 -1.452112 2.902379 0
M  V30 38 H 3.766283 0.327174 3.209413 0
M  V30 39 H 4.713954 -0.803214 4.250325 0
M  V30 40 H 5.905918 -0.749129 0.268896 0
M  V30 41 H 4.372013 -1.422828 0.836014 0
M  V30 42 H 6.131335 1.679139 -0.264463 0
M  V30 43 H 2.667243 3.889120 -0.918665 0
M  V30 44 H 1.084336 4.364001 0.335676 0
M  V30 45 H -3.775422 3.259853 0.410963 0
M  V30 46 H -5.752046 -2.463146 1.402918 0
M  V30 47 H -8.307883 -2.248466 1.294977 0
M  V30 48 H -6.269420 -5.190678 -1.989669 0
M  V30 49 H -4.467078 -6.233164 -0.574309 0
M  V30 50 H -1.983773 -6.530130 -0.705471 0
M  V30 51 H -0.479186 -4.611865 -0.561148 0
M  V30 52 H -0.513291 -1.884862 -0.268833 0
M  V30 53 H 0.443059 0.146314 -0.089395 0
M  V30 54 H 2.374301 0.047872 0.959583 0
M  V30 END ATOM
M  V30 BEGIN BOND
M  V30 1 1 1 2
M  V30 2 1 2 3
M  V30 3 1 2 4
M  V30 4 1 4 5
M  V30 5 2 5 6
M  V30 6 1 6 7
M  V30 7 2 7 8
M  V30 8 1 8 9
M  V30 9 1 9 10
M  V30 10 2 10 11
M  V30 11 1 11 12
M  V30 12 2 12 13
M  V30 13 1 13 14
M  V30 14 1 14 15
M  V30 15 2 15 16
M  V30 16 1 16 17
M  V30 17 2 17 18
M  V30 18 1 18 19
M  V30 19 2 19 20
M  V30 20 1 20 21
M  V30 21 1 21 22
M  V30 22 2 22 23
M  V30 23 1 23 24
M  V30 24 1 24 25
M  V30 25 1 20 26
M  V30 26 2 26 27
M  V30 27 1 27 28
M  V30 28 2 28 29
M  V30 29 1 29 30
M  V30 30 1 16 31
M  V30 31 2 31 32
M  V30 32 2 9 33
M  V30 33 1 33 5
M  V30 34 1 32 10
M  V30 35 1 31 13
M  V30 36 1 30 17
M  V30 37 1 29 19
M  V30 38 2 25 21
M  V30 39 1 1 34
M  V30 40 1 1 35
M  V30 41 1 1 36
M  V30 42 1 3 37
M  V30 43 1 3 38
M  V30 44 1 3 39
M  V30 45 1 4 40
M  V30 46 1 4 41
M  V30 47 1 6 42
M  V30 48 1 8 43
M  V30 49 1 11 44
M  V30 50 1 14 45
M  V30 51 1 22 46
M  V30 52 1 23 47
M  V30 53 1 25 48
M  V30 54 1 26 49
M  V30 55 1 27 50
M  V30 56 1 28 51
M  V30 57 1 30 52
M  V30 58 1 32 53
M  V30 59 1 33 54
M  V30 END BOND
M  V30 END CTAB
M  END
>  <Dataset>  (283) 
ChEMBL_Kinases

>  <Ligand_Instance>  (283) 
nan

>  <PDB_ID>  (283) 
nan

>  <Standardized_SMILES>  (283) 
CN(C)Cc1cncc(-c2cnc3[nH]nc(-c4nc5c(-c6ccsc6)cccc5[nH]4)c3c2)c1

>  <Name>  (283) 
nan

>  <Pocket>  (283) 
nan

>  <ATP_Site>  (283) 
nan

>  <Peripheral>  (283) 
nan

>  <Num_H_Atoms_ProtBoundConf>  (283) 
nan

>  <Num_Resolved_Atoms>  (283) 
nan

>  <Num_Not_Resolved_Atoms>  (283) 
nan

$$$$
CHEMBL5079894
     RDKit          3D

  0  0  0  0  0  0  0  0  0  0999 V3000
M  V30 BEGIN CTAB
M  V30 COUNTS 52 56 0 0 0
M  V30 BEGIN ATOM
M  V30 1 C 0.532376 -4.028708 2.362819 0
M  V30 2 N 0.136062 -2.764649 1.796541 0
M  V30 3 C 0.662200 -1.558347 2.492516 0
M  V30 4 C 1.946719 -1.115936 1.939660 0
M  V30 5 N 2.980298 -1.975561 2.178439 0
M  V30 6 N 4.100140 -1.569079 1.672091 0
M  V30 7 C 5.400509 -2.263990 1.751119 0
M  V30 8 C 3.826606 -0.404738 1.073295 0
M  V30 9 C 2.469892 -0.080942 1.219917 0
M  V30 10 C 1.959955 1.131802 0.641680 0
M  V30 11 C 2.702300 2.222088 0.255161 0
M  V30 12 N 2.160942 3.323703 -0.291673 0
M  V30 13 C 0.854930 3.495713 -0.524500 0
M  V30 14 N 0.006039 4.407779 -1.019748 0
M  V30 15 C -1.269463 3.984269 -0.983718 0
M  V30 16 C -1.234201 2.733759 -0.436591 0
M  V30 17 C 0.060221 2.438907 -0.158265 0
M  V30 18 C 0.632233 1.327669 0.396322 0
M  V30 19 C -2.080796 1.645402 -0.040270 0
M  V30 20 C -2.894176 1.820671 1.032919 0
M  V30 21 N -3.549007 0.700927 1.284854 0
M  V30 22 N -3.175726 -0.223639 0.380886 0
M  V30 23 C -2.280165 0.354401 -0.432737 0
M  V30 24 C -3.701253 -1.549564 0.456025 0
M  V30 25 C -3.527907 -2.460553 -0.665951 0
M  V30 26 C -2.276291 -3.020471 -1.144011 0
M  V30 27 C -1.426141 -3.895974 -0.311339 0
M  V30 28 C -0.665415 -3.192332 0.707762 0
M  V30 29 O -0.701565 -1.983771 0.580287 0
M  V30 30 H 1.151487 -3.870629 3.273268 0
M  V30 31 H -0.383324 -4.558287 2.755439 0
M  V30 32 H 1.014154 -4.732919 1.658433 0
M  V30 33 H -0.159235 -0.830406 2.392524 0
M  V30 34 H 0.707383 -1.781879 3.573336 0
M  V30 35 H 5.475040 -3.076413 1.012028 0
M  V30 36 H 5.528385 -2.715800 2.759411 0
M  V30 37 H 6.221595 -1.511169 1.646654 0
M  V30 38 H 4.661752 0.111572 0.573838 0
M  V30 39 H 3.788333 2.169661 0.411740 0
M  V30 40 H 0.267226 5.336267 -1.393141 0
M  V30 41 H -2.261213 4.310602 -1.235962 0
M  V30 42 H -0.153971 0.637706 0.607010 0
M  V30 43 H -3.069715 2.704874 1.667961 0
M  V30 44 H -1.658637 0.161811 -1.291892 0
M  V30 45 H -4.832671 -1.485926 0.635261 0
M  V30 46 H -3.347905 -1.969017 1.441710 0
M  V30 47 H -4.288588 -3.328489 -0.622934 0
M  V30 48 H -3.969280 -1.895384 -1.580442 0
M  V30 49 H -2.539859 -3.631080 -2.080079 0
M  V30 50 H -1.667788 -2.187451 -1.615531 0
M  V30 51 H -0.734798 -4.512667 -0.984505 0
M  V30 52 H -2.033347 -4.740355 0.166071 0
M  V30 END ATOM
M  V30 BEGIN BOND
M  V30 1 1 1 2
M  V30 2 1 2 3
M  V30 3 1 3 4
M  V30 4 2 4 5
M  V30 5 1 5 6
M  V30 6 1 6 7
M  V30 7 1 6 8
M  V30 8 2 8 9
M  V30 9 1 9 10
M  V30 10 2 10 11
M  V30 11 1 11 12
M  V30 12 2 12 13
M  V30 13 1 13 14
M  V30 14 1 14 15
M  V30 15 2 15 16
M  V30 16 1 16 17
M  V30 17 2 17 18
M  V30 18 1 16 19
M  V30 19 1 19 20
M  V30 20 2 20 21
M  V30 21 1 21 22
M  V30 22 1 22 23
M  V30 23 1 22 24
M  V30 24 1 24 25
M  V30 25 1 25 26
M  V30 26 1 26 27
M  V30 27 1 27 28
M  V30 28 2 28 29
M  V30 29 1 28 2
M  V30 30 1 9 4
M  V30 31 1 18 10
M  V30 32 2 23 19
M  V30 33 1 17 13
M  V30 34 1 1 30
M  V30 35 1 1 31
M  V30 36 1 1 32
M  V30 37 1 3 33
M  V30 38 1 3 34
M  V30 39 1 7 35
M  V30 40 1 7 36
M  V30 41 1 7 37
M  V30 42 1 8 38
M  V30 43 1 11 39
M  V30 44 1 14 40
M  V30 45 1 15 41
M  V30 46 1 18 42
M  V30 47 1 20 43
M  V30 48 1 23 44
M  V30 49 1 24 45
M  V30 50 1 24 46
M  V30 51 1 25 47
M  V30 52 1 25 48
M  V30 53 1 26 49
M  V30 54 1 26 50
M  V30 55 1 27 51
M  V30 56 1 27 52
M  V30 END BOND
M  V30 END CTAB
M  END
>  <Dataset>  (284) 
ChEMBL_Kinases

>  <Ligand_Instance>  (284) 
nan

>  <PDB_ID>  (284) 
nan

>  <Standardized_SMILES>  (284) 
CN1Cc2nn(C)cc2-c2cnc3[nH]cc(c3c2)-c2cnn(c2)CCCCC1=O

>  <Name>  (284) 
nan

>  <Pocket>  (284) 
nan

>  <ATP_Site>  (284) 
nan

>  <Peripheral>  (284) 
nan

>  <Num_H_Atoms_ProtBoundConf>  (284) 
nan

>  <Num_Resolved_Atoms>  (284) 
nan

>  <Num_Not_Resolved_Atoms>  (284) 
nan

$$$$
CHEMBL4765208
     RDKit          3D

  0  0  0  0  0  0  0  0  0  0999 V3000
M  V30 BEGIN CTAB
M  V30 COUNTS 40 42 0 0 0
M  V30 BEGIN ATOM
M  V30 1 C -3.395894 -2.033315 0.219240 0
M  V30 2 C -2.011111 -1.630005 0.583754 0
M  V30 3 C -0.832646 -2.205731 0.227120 0
M  V30 4 N 0.240854 -1.564283 0.748319 0
M  V30 5 C 1.643704 -1.887121 0.587317 0 CFG=2
M  V30 6 C 2.373794 -1.574743 1.858115 0
M  V30 7 C 2.280369 -1.298851 -0.626843 0 CFG=1
M  V30 8 F 3.631786 -1.676910 -0.676574 0
M  V30 9 C 1.666387 -1.737745 -1.913942 0
M  V30 10 C 0.931937 -0.532200 -2.474109 0
M  V30 11 N 1.180054 0.567061 -1.578808 0
M  V30 12 C 2.266330 0.196139 -0.697727 0
M  V30 13 C -0.302122 -0.543781 1.460700 0
M  V30 14 N 0.219877 0.434899 2.198168 0
M  V30 15 C -0.479119 1.383116 2.850151 0
M  V30 16 C 0.182128 2.434285 3.647287 0
M  V30 17 N 1.601852 2.457084 3.737124 0
M  V30 18 O -0.511546 3.309776 4.246953 0
M  V30 19 C -1.853526 1.373198 2.771628 0
M  V30 20 C -2.450014 0.388391 2.025838 0
M  V30 21 Cl -4.186245 0.396040 1.941145 0
M  V30 22 C -1.684281 -0.553576 1.381856 0
M  V30 23 H -3.352189 -3.120181 -0.078204 0
M  V30 24 H -4.094478 -2.001146 1.075109 0
M  V30 25 H -3.795293 -1.475904 -0.653097 0
M  V30 26 H -0.817240 -3.081775 -0.407490 0
M  V30 27 H 1.740929 -3.006847 0.464122 0
M  V30 28 H 1.828073 -1.965383 2.741010 0
M  V30 29 H 2.427946 -0.456898 2.009532 0
M  V30 30 H 3.382335 -2.038935 1.903415 0
M  V30 31 H 1.049206 -2.643171 -1.846730 0
M  V30 32 H 2.447335 -1.993076 -2.690102 0
M  V30 33 H 1.300335 -0.219594 -3.473042 0
M  V30 34 H -0.146601 -0.744370 -2.620146 0
M  V30 35 H 0.312847 0.816323 -1.059858 0
M  V30 36 H 2.201651 0.728600 0.245976 0
M  V30 37 H 3.197608 0.590954 -1.200032 0
M  V30 38 H 2.216984 2.628817 4.566561 0
M  V30 39 H 2.218154 2.290107 2.911943 0
M  V30 40 H -2.426691 2.142305 3.300148 0
M  V30 END ATOM
M  V30 BEGIN BOND
M  V30 1 1 1 2
M  V30 2 2 2 3
M  V30 3 1 3 4
M  V30 4 1 4 5
M  V30 5 1 5 6
M  V30 6 1 5 7
M  V30 7 1 7 8 CFG=3
M  V30 8 1 7 9
M  V30 9 1 9 10
M  V30 10 1 10 11
M  V30 11 1 11 12
M  V30 12 1 4 13
M  V30 13 2 13 14
M  V30 14 1 14 15
M  V30 15 1 15 16
M  V30 16 1 16 17
M  V30 17 2 16 18
M  V30 18 2 15 19
M  V30 19 1 19 20
M  V30 20 1 20 21
M  V30 21 2 20 22
M  V30 22 1 22 2
M  V30 23 1 12 7
M  V30 24 1 22 13
M  V30 25 1 1 23
M  V30 26 1 1 24
M  V30 27 1 1 25
M  V30 28 1 3 26
M  V30 29 1 5 27 CFG=3
M  V30 30 1 6 28
M  V30 31 1 6 29
M  V30 32 1 6 30
M  V30 33 1 9 31
M  V30 34 1 9 32
M  V30 35 1 10 33
M  V30 36 1 10 34
M  V30 37 1 11 35
M  V30 38 1 12 36
M  V30 39 1 12 37
M  V30 40 1 17 38
M  V30 41 1 17 39
M  V30 42 1 19 40
M  V30 END BOND
M  V30 END CTAB
M  END
>  <Dataset>  (285) 
ChEMBL_Kinases

>  <Ligand_Instance>  (285) 
nan

>  <PDB_ID>  (285) 
nan

>  <Standardized_SMILES>  (285) 
Cc1cn([C@H](C)[C@@]2(F)CCNC2)c2nc(C(N)=O)cc(Cl)c12

>  <Name>  (285) 
nan

>  <Pocket>  (285) 
nan

>  <ATP_Site>  (285) 
nan

>  <Peripheral>  (285) 
nan

>  <Num_H_Atoms_ProtBoundConf>  (285) 
nan

>  <Num_Resolved_Atoms>  (285) 
nan

>  <Num_Not_Resolved_Atoms>  (285) 
nan

$$$$
CHEMBL1394137
     RDKit          3D

  0  0  0  0  0  0  0  0  0  0999 V3000
M  V30 BEGIN CTAB
M  V30 COUNTS 39 41 0 0 0
M  V30 BEGIN ATOM
M  V30 1 C -1.535015 -3.054045 0.990817 0
M  V30 2 N -0.108938 -3.200499 1.196985 0
M  V30 3 C 0.290932 -4.391983 1.923701 0
M  V30 4 C 0.862549 -2.267404 0.736893 0
M  V30 5 N 2.164985 -2.503660 0.984814 0
M  V30 6 C 3.146572 -1.675477 0.586589 0
M  V30 7 C 2.733399 -0.536286 -0.110854 0
M  V30 8 N 3.724128 0.284930 -0.505086 0
M  V30 9 C 3.384067 1.415041 -1.191943 0
M  V30 10 C 2.040248 1.627308 -1.429373 0
M  V30 11 O 1.688621 2.669531 -2.066038 0
M  V30 12 N 1.024694 0.811702 -1.040473 0
M  V30 13 C -0.336920 1.123285 -1.339151 0
M  V30 14 C -1.010442 1.960607 -0.266729 0
M  V30 15 C -1.032246 1.289321 1.058478 0
M  V30 16 C 0.054282 1.527010 1.909432 0
M  V30 17 C 0.038267 0.905088 3.142792 0
M  V30 18 C -0.986531 0.074325 3.562230 0
M  V30 19 C -2.072599 -0.162866 2.710827 0
M  V30 20 C -2.054274 0.460448 1.477495 0
M  V30 21 C 1.374828 -0.311557 -0.356808 0
M  V30 22 N 0.437905 -1.178309 0.067614 0
M  V30 23 H -1.879302 -3.993995 0.499596 0
M  V30 24 H -2.113496 -2.963286 1.933840 0
M  V30 25 H -1.797121 -2.203526 0.339138 0
M  V30 26 H -0.167428 -5.303971 1.494817 0
M  V30 27 H 1.393010 -4.463269 1.903067 0
M  V30 28 H -0.062322 -4.274450 2.970425 0
M  V30 29 H 4.166666 -1.882289 0.793435 0
M  V30 30 H 4.079724 2.155771 -1.564336 0
M  V30 31 H -0.313153 1.799501 -2.243619 0
M  V30 32 H -0.955567 0.244888 -1.552102 0
M  V30 33 H -2.058669 2.139450 -0.539958 0
M  V30 34 H -0.498736 2.941756 -0.138935 0
M  V30 35 H 0.900317 2.155422 1.678891 0
M  V30 36 H 0.827783 1.008584 3.900580 0
M  V30 37 H -0.999453 -0.414905 4.532027 0
M  V30 38 H -2.917408 -0.792973 2.946334 0
M  V30 39 H -2.846395 0.339979 0.750705 0
M  V30 END ATOM
M  V30 BEGIN BOND
M  V30 1 1 1 2
M  V30 2 1 2 3
M  V30 3 1 2 4
M  V30 4 2 4 5
M  V30 5 1 5 6
M  V30 6 2 6 7
M  V30 7 1 7 8
M  V30 8 2 8 9
M  V30 9 1 9 10
M  V30 10 2 10 11
M  V30 11 1 10 12
M  V30 12 1 12 13
M  V30 13 1 13 14
M  V30 14 1 14 15
M  V30 15 2 15 16
M  V30 16 1 16 17
M  V30 17 2 17 18
M  V30 18 1 18 19
M  V30 19 2 19 20
M  V30 20 1 12 21
M  V30 21 2 21 22
M  V30 22 1 22 4
M  V30 23 1 21 7
M  V30 24 1 20 15
M  V30 25 1 1 23
M  V30 26 1 1 24
M  V30 27 1 1 25
M  V30 28 1 3 26
M  V30 29 1 3 27
M  V30 30 1 3 28
M  V30 31 1 6 29
M  V30 32 1 9 30
M  V30 33 1 13 31
M  V30 34 1 13 32
M  V30 35 1 14 33
M  V30 36 1 14 34
M  V30 37 1 16 35
M  V30 38 1 17 36
M  V30 39 1 18 37
M  V30 40 1 19 38
M  V30 41 1 20 39
M  V30 END BOND
M  V30 END CTAB
M  END
>  <Dataset>  (286) 
ChEMBL_Kinases

>  <Ligand_Instance>  (286) 
nan

>  <PDB_ID>  (286) 
nan

>  <Standardized_SMILES>  (286) 
CN(C)c1ncc2ncc(=O)n(CCc3ccccc3)c2n1

>  <Name>  (286) 
nan

>  <Pocket>  (286) 
nan

>  <ATP_Site>  (286) 
nan

>  <Peripheral>  (286) 
nan

>  <Num_H_Atoms_ProtBoundConf>  (286) 
nan

>  <Num_Resolved_Atoms>  (286) 
nan

>  <Num_Not_Resolved_Atoms>  (286) 
nan

$$$$
CHEMBL5079648
     RDKit          3D

  0  0  0  0  0  0  0  0  0  0999 V3000
M  V30 BEGIN CTAB
M  V30 COUNTS 63 67 0 0 0
M  V30 BEGIN ATOM
M  V30 1 C 4.477296 -2.592387 2.398033 0
M  V30 2 C 3.686817 -1.329571 2.471018 0
M  V30 3 N 4.084999 -0.304575 1.533151 0
M  V30 4 C 5.413457 0.212787 1.866134 0
M  V30 5 C 5.342534 1.010434 3.167426 0
M  V30 6 C 3.508357 0.354865 0.402811 0
M  V30 7 C 3.924700 0.620081 -0.860638 0
M  V30 8 N 3.187525 1.319714 -1.732975 0
M  V30 9 C 1.969043 1.794475 -1.365554 0
M  V30 10 C 1.226669 2.532618 -2.261690 0
M  V30 11 C -0.000563 3.036026 -1.893425 0
M  V30 12 C -0.492109 2.803519 -0.627947 0
M  V30 13 C -1.717044 3.218278 0.086084 0
M  V30 14 N -2.461058 2.328384 0.669224 0
M  V30 15 C -3.535876 2.295407 1.393024 0
M  V30 16 N -4.180478 1.141085 1.884865 0
M  V30 17 C -4.042358 -0.167961 1.358328 0
M  V30 18 C -3.335264 -0.465051 0.217791 0
M  V30 19 C -3.162146 -1.710247 -0.331573 0
M  V30 20 C -3.742836 -2.786714 0.303688 0
M  V30 21 N -3.581164 -4.074741 -0.285610 0
M  V30 22 C -3.878913 -4.360723 -1.672974 0
M  V30 23 C -2.705378 -4.882550 -2.463212 0
M  V30 24 N -1.900872 -5.826995 -1.738815 0
M  V30 25 C -1.731635 -5.541283 -0.348081 0
M  V30 26 C -3.081228 -5.302759 0.327573 0
M  V30 27 C -4.459914 -2.484992 1.463367 0
M  V30 28 N -4.596968 -1.221002 1.960342 0
M  V30 29 N -3.939389 3.565630 1.546980 0
M  V30 30 C -3.335683 4.638795 1.039562 0
M  V30 31 C -2.179813 4.520548 0.274132 0
M  V30 32 F -1.462014 5.507913 -0.299127 0
M  V30 33 C 0.286224 2.046713 0.266801 0
M  V30 34 C 1.522963 1.535520 -0.088620 0
M  V30 35 N 2.290892 0.816508 0.793271 0
M  V30 36 H 5.284015 -2.613787 1.661351 0
M  V30 37 H 3.764033 -3.420847 2.124464 0
M  V30 38 H 4.824361 -2.903164 3.429142 0
M  V30 39 H 3.833154 -0.875003 3.496833 0
M  V30 40 H 2.579502 -1.514490 2.447849 0
M  V30 41 H 6.168991 -0.608618 1.944489 0
M  V30 42 H 5.814552 0.880514 1.086121 0
M  V30 43 H 4.307781 1.407117 3.298476 0
M  V30 44 H 5.984394 1.932349 3.073188 0
M  V30 45 H 5.675746 0.419886 4.031772 0
M  V30 46 H 4.902971 0.190957 -1.027988 0
M  V30 47 H 1.526824 2.762078 -3.269182 0
M  V30 48 H -0.713057 3.625262 -2.449790 0
M  V30 49 H -4.791401 1.330266 2.705269 0
M  V30 50 H -2.852648 0.314927 -0.352092 0
M  V30 51 H -2.584061 -1.878118 -1.251200 0
M  V30 52 H -4.694902 -5.121691 -1.683046 0
M  V30 53 H -4.264353 -3.445474 -2.171914 0
M  V30 54 H -3.155501 -5.477631 -3.320820 0
M  V30 55 H -2.128645 -4.089353 -2.980408 0
M  V30 56 H -0.953557 -5.856713 -2.187996 0
M  V30 57 H -1.254544 -6.393434 0.146522 0
M  V30 58 H -1.093751 -4.642977 -0.172553 0
M  V30 59 H -2.890808 -5.174944 1.428979 0
M  V30 60 H -3.763385 -6.113887 0.116801 0
M  V30 61 H -4.910107 -3.364150 1.947118 0
M  V30 62 H -3.698325 5.671593 1.190483 0
M  V30 63 H 0.028477 1.779017 1.305060 0
M  V30 END ATOM
M  V30 BEGIN BOND
M  V30 1 1 1 2
M  V30 2 1 2 3
M  V30 3 1 3 4
M  V30 4 1 4 5
M  V30 5 1 3 6
M  V30 6 2 6 7
M  V30 7 1 7 8
M  V30 8 2 8 9
M  V30 9 1 9 10
M  V30 10 2 10 11
M  V30 11 1 11 12
M  V30 12 1 12 13
M  V30 13 2 13 14
M  V30 14 1 14 15
M  V30 15 1 15 16
M  V30 16 1 16 17
M  V30 17 2 17 18
M  V30 18 1 18 19
M  V30 19 2 19 20
M  V30 20 1 20 21
M  V30 21 1 21 22
M  V30 22 1 22 23
M  V30 23 1 23 24
M  V30 24 1 24 25
M  V30 25 1 25 26
M  V30 26 1 20 27
M  V30 27 2 27 28
M  V30 28 2 15 29
M  V30 29 1 29 30
M  V30 30 2 30 31
M  V30 31 1 31 32
M  V30 32 2 12 33
M  V30 33 1 33 34
M  V30 34 2 34 35
M  V30 35 1 35 6
M  V30 36 1 34 9
M  V30 37 1 31 13
M  V30 38 1 28 17
M  V30 39 1 26 21
M  V30 40 1 1 36
M  V30 41 1 1 37
M  V30 42 1 1 38
M  V30 43 1 2 39
M  V30 44 1 2 40
M  V30 45 1 4 41
M  V30 46 1 4 42
M  V30 47 1 5 43
M  V30 48 1 5 44
M  V30 49 1 5 45
M  V30 50 1 7 46
M  V30 51 1 10 47
M  V30 52 1 11 48
M  V30 53 1 16 49
M  V30 54 1 18 50
M  V30 55 1 19 51
M  V30 56 1 22 52
M  V30 57 1 22 53
M  V30 58 1 23 54
M  V30 59 1 23 55
M  V30 60 1 24 56
M  V30 61 1 25 57
M  V30 62 1 25 58
M  V30 63 1 26 59
M  V30 64 1 26 60
M  V30 65 1 27 61
M  V30 66 1 30 62
M  V30 67 1 33 63
M  V30 END BOND
M  V30 END CTAB
M  END
>  <Dataset>  (287) 
ChEMBL_Kinases

>  <Ligand_Instance>  (287) 
nan

>  <PDB_ID>  (287) 
nan

>  <Standardized_SMILES>  (287) 
CCN(CC)c1cnc2ccc(-c3nc(Nc4ccc(N5CCNCC5)cn4)ncc3F)cc2n1

>  <Name>  (287) 
nan

>  <Pocket>  (287) 
nan

>  <ATP_Site>  (287) 
nan

>  <Peripheral>  (287) 
nan

>  <Num_H_Atoms_ProtBoundConf>  (287) 
nan

>  <Num_Resolved_Atoms>  (287) 
nan

>  <Num_Not_Resolved_Atoms>  (287) 
nan

$$$$
CHEMBL5079032
     RDKit          3D

  0  0  0  0  0  0  0  0  0  0999 V3000
M  V30 BEGIN CTAB
M  V30 COUNTS 61 64 0 0 0
M  V30 BEGIN ATOM
M  V30 1 C 5.686379 -0.544627 4.310623 0
M  V30 2 C 6.326087 -0.902946 3.005929 0
M  V30 3 O 5.404221 -1.129842 1.955981 0
M  V30 4 C 4.516985 -0.195943 1.500209 0
M  V30 5 C 4.408693 1.080183 2.004292 0
M  V30 6 C 3.495024 1.973285 1.502032 0
M  V30 7 N 3.405043 3.227646 2.014859 0
M  V30 8 C 2.499359 4.073531 1.498630 0
M  V30 9 N 1.677851 3.727002 0.493476 0
M  V30 10 C 1.699504 2.508505 -0.071836 0
M  V30 11 N 0.818625 2.184597 -1.134925 0
M  V30 12 C -0.119672 3.176156 -1.607170 0
M  V30 13 C -1.129800 3.597097 -0.567284 0
M  V30 14 C -1.901457 2.377157 -0.155839 0
M  V30 15 C -1.538756 1.547814 0.886438 0
M  V30 16 C -2.282622 0.435306 1.224338 0
M  V30 17 C -3.432777 0.142313 0.491117 0
M  V30 18 N -4.095578 -1.049323 0.968389 0
M  V30 19 C -3.681743 -2.259018 0.367485 0
M  V30 20 O -2.794291 -2.097551 -0.494422 0
M  V30 21 N -4.127299 -3.571991 0.609507 0
M  V30 22 C -3.814506 -4.843258 0.099946 0
M  V30 23 C -4.518511 -5.869239 0.648339 0
M  V30 24 C -4.323837 -7.165749 0.253450 0
M  V30 25 Cl -5.229169 -8.479824 0.959857 0
M  V30 26 C -3.407911 -7.482197 -0.714204 0
M  V30 27 C -2.674595 -6.479749 -1.295632 0
M  V30 28 C -2.908654 -5.199622 -0.863754 0
M  V30 29 O -2.167566 -4.207314 -1.454541 0
M  V30 30 C -1.226897 -4.464512 -2.438015 0
M  V30 31 C -3.818147 0.954527 -0.555512 0
M  V30 32 C -3.044871 2.056988 -0.859246 0
M  V30 33 C 2.635601 1.657976 0.473180 0
M  V30 34 C 2.745278 0.384002 -0.028461 0
M  V30 35 C 3.652351 -0.535478 0.454324 0
M  V30 36 F 3.745669 -1.792682 -0.055939 0
M  V30 37 H 5.867539 -1.364886 5.047626 0
M  V30 38 H 4.574050 -0.466908 4.242488 0
M  V30 39 H 6.084260 0.379912 4.764761 0
M  V30 40 H 7.044677 -1.738471 3.107133 0
M  V30 41 H 6.936128 -0.004006 2.700973 0
M  V30 42 H 5.041752 1.394468 2.801636 0
M  V30 43 H 2.406970 5.079241 1.889152 0
M  V30 44 H 0.804865 1.256951 -1.606623 0
M  V30 45 H -0.642764 2.786746 -2.498047 0
M  V30 46 H 0.462877 4.057515 -1.983887 0
M  V30 47 H -0.653516 3.997914 0.328581 0
M  V30 48 H -1.857971 4.317299 -0.941065 0
M  V30 49 H -0.657346 1.781350 1.441620 0
M  V30 50 H -1.918415 -0.166003 2.067228 0
M  V30 51 H -4.852444 -1.142127 1.710021 0
M  V30 52 H -4.864182 -3.470238 1.361897 0
M  V30 53 H -5.271311 -5.752402 1.421577 0
M  V30 54 H -3.249350 -8.499571 -1.029859 0
M  V30 55 H -1.947943 -6.690297 -2.057074 0
M  V30 56 H -1.659208 -4.780426 -3.410807 0
M  V30 57 H -0.479876 -5.244630 -2.134786 0
M  V30 58 H -0.662639 -3.522674 -2.629986 0
M  V30 59 H -4.721464 0.638756 -1.056031 0
M  V30 60 H -3.421942 2.639256 -1.696353 0
M  V30 61 H 2.131424 0.019396 -0.830367 0
M  V30 END ATOM
M  V30 BEGIN BOND
M  V30 1 1 1 2
M  V30 2 1 2 3
M  V30 3 1 3 4
M  V30 4 2 4 5
M  V30 5 1 5 6
M  V30 6 2 6 7
M  V30 7 1 7 8
M  V30 8 2 8 9
M  V30 9 1 9 10
M  V30 10 1 10 11
M  V30 11 1 11 12
M  V30 12 1 12 13
M  V30 13 1 13 14
M  V30 14 2 14 15
M  V30 15 1 15 16
M  V30 16 2 16 17
M  V30 17 1 17 18
M  V30 18 1 18 19
M  V30 19 2 19 20
M  V30 20 1 19 21
M  V30 21 1 21 22
M  V30 22 2 22 23
M  V30 23 1 23 24
M  V30 24 1 24 25
M  V30 25 2 24 26
M  V30 26 1 26 27
M  V30 27 2 27 28
M  V30 28 1 28 29
M  V30 29 1 29 30
M  V30 30 1 17 31
M  V30 31 2 31 32
M  V30 32 2 10 33
M  V30 33 1 33 34
M  V30 34 2 34 35
M  V30 35 1 35 36
M  V30 36 1 35 4
M  V30 37 1 33 6
M  V30 38 1 32 14
M  V30 39 1 28 22
M  V30 40 1 1 37
M  V30 41 1 1 38
M  V30 42 1 1 39
M  V30 43 1 2 40
M  V30 44 1 2 41
M  V30 45 1 5 42
M  V30 46 1 8 43
M  V30 47 1 11 44
M  V30 48 1 12 45
M  V30 49 1 12 46
M  V30 50 1 13 47
M  V30 51 1 13 48
M  V30 52 1 15 49
M  V30 53 1 16 50
M  V30 54 1 18 51
M  V30 55 1 21 52
M  V30 56 1 23 53
M  V30 57 1 26 54
M  V30 58 1 27 55
M  V30 59 1 30 56
M  V30 60 1 30 57
M  V30 61 1 30 58
M  V30 62 1 31 59
M  V30 63 1 32 60
M  V30 64 1 34 61
M  V30 END BOND
M  V30 END CTAB
M  END
>  <Dataset>  (288) 
ChEMBL_Kinases

>  <Ligand_Instance>  (288) 
nan

>  <PDB_ID>  (288) 
nan

>  <Standardized_SMILES>  (288) 
CCOc1cc2ncnc(NCCc3ccc(NC(=O)Nc4cc(Cl)ccc4OC)cc3)c2cc1F

>  <Name>  (288) 
nan

>  <Pocket>  (288) 
nan

>  <ATP_Site>  (288) 
nan

>  <Peripheral>  (288) 
nan

>  <Num_H_Atoms_ProtBoundConf>  (288) 
nan

>  <Num_Resolved_Atoms>  (288) 
nan

>  <Num_Not_Resolved_Atoms>  (288) 
nan

$$$$
CHEMBL5078791
     RDKit          3D

  0  0  0  0  0  0  0  0  0  0999 V3000
M  V30 BEGIN CTAB
M  V30 COUNTS 173 181 0 0 0
M  V30 BEGIN ATOM
M  V30 1 C -1.327862 -4.587598 2.015845 0
M  V30 2 C 0.050857 -4.041272 1.997900 0
M  V30 3 N 1.072935 -4.726457 2.420421 0
M  V30 4 C 2.255542 -4.357674 2.419066 0
M  V30 5 S 2.077759 -2.644302 1.674303 0
M  V30 6 C 0.337243 -2.732947 1.485444 0
M  V30 7 C -0.431621 -1.693912 0.932554 0
M  V30 8 C 0.272994 -0.635131 0.370962 0
M  V30 9 C -0.342665 0.462441 -0.193331 0
M  V30 10 C -1.709028 0.589063 -0.240329 0
M  V30 11 C -2.593479 1.648121 -0.788184 0
M  V30 12 N -2.888622 2.589021 0.282120 0
M  V30 13 C -2.060058 3.675699 0.718932 0
M  V30 14 O -1.100369 3.532673 -0.091322 0
M  V30 15 C -2.742322 4.355469 1.834410 0 CFG=2
M  V30 16 C -4.030955 5.013919 1.373925 0
M  V30 17 C -4.335395 5.914650 2.571867 0 CFG=1
M  V30 18 O -4.646984 5.136357 3.672909 0
M  V30 19 C -5.895172 5.375763 4.221437 0
M  V30 20 C -6.154983 4.452847 5.380294 0
M  V30 21 C -5.948665 4.604011 6.728612 0
M  V30 22 C -6.278376 3.560442 7.538964 0
M  V30 23 C -6.798295 2.361840 7.170009 0
M  V30 24 C -7.010879 2.198787 5.813677 0
M  V30 25 C -6.691620 3.234195 4.936571 0
M  V30 26 C -2.987975 6.612061 2.693932 0
M  V30 27 N -2.027572 5.537288 2.326918 0
M  V30 28 C -0.764077 6.102780 2.594672 0
M  V30 29 O -1.176104 7.271213 2.929936 0
M  V30 30 C 0.679956 6.002552 2.665409 0 CFG=1
M  V30 31 N 1.202765 4.669726 2.521069 0
M  V30 32 C 2.276421 3.958732 3.135577 0
M  V30 33 O 3.015564 4.511551 3.989854 0
M  V30 34 C 2.279187 2.597915 2.577172 0
M  V30 35 C 3.563959 1.813739 2.865635 0
M  V30 36 C 4.718463 2.484263 2.219780 0
M  V30 37 C 6.056653 1.907115 2.390976 0
M  V30 38 C 6.289575 0.479644 2.017565 0
M  V30 39 C 5.763669 -0.553614 2.933980 0
M  V30 40 C 5.887801 -1.978998 2.445535 0
M  V30 41 C 7.270151 -2.397212 2.087896 0
M  V30 42 C 7.231912 -3.870681 1.695520 0
M  V30 43 C 6.282633 -4.179669 0.583513 0
M  V30 44 C 6.567153 -3.479852 -0.682519 0
M  V30 45 O 7.574040 -2.832983 -1.058220 0
M  V30 46 N 5.506006 -3.555778 -1.658162 0
M  V30 47 C 5.550987 -3.018533 -2.975315 0
M  V30 48 C 4.879679 -3.923713 -3.965798 0
M  V30 49 N 3.467729 -4.115504 -3.709296 0
M  V30 50 C 2.726590 -3.712335 -4.815316 0
M  V30 51 C 1.269775 -3.810038 -4.889801 0
M  V30 52 C 0.677637 -5.182213 -4.781193 0 CFG=2
M  V30 53 N -0.788999 -5.186484 -4.871700 0
M  V30 54 C -1.749301 -5.930856 -5.565387 0
M  V30 55 O -1.334196 -6.844716 -6.315715 0
M  V30 56 C -3.198535 -5.585240 -5.362861 0
M  V30 57 N -3.914914 -6.659498 -6.079332 0
M  V30 58 C -3.506399 -4.305630 -6.093389 0
M  V30 59 C -4.028897 -3.210384 -5.214100 0
M  V30 60 N -4.975114 -3.672182 -4.242160 0
M  V30 61 C -6.204081 -3.038392 -3.890603 0
M  V30 62 N -7.390790 -3.675303 -3.903955 0
M  V30 63 C -8.524243 -3.049347 -3.557057 0
M  V30 64 N -8.548643 -1.744115 -3.173053 0
M  V30 65 C -7.406765 -1.036445 -3.132419 0
M  V30 66 N -7.097364 0.248475 -2.808424 0
M  V30 67 C -5.760110 0.432619 -2.952473 0
M  V30 68 C -5.251126 -0.769620 -3.372134 0
M  V30 69 C -6.251879 -1.699210 -3.493033 0
M  V30 70 C -4.755141 -4.896547 -3.509346 0
M  V30 71 C -3.490537 -5.583184 -3.908927 0
M  V30 72 C 1.112417 -5.957323 -3.583967 0
M  V30 73 C 0.460713 -5.987804 -2.364900 0
M  V30 74 C 0.894656 -6.718468 -1.276195 0
M  V30 75 C 2.047801 -7.464222 -1.407266 0
M  V30 76 Cl 2.588374 -8.392370 -0.007180 0
M  V30 77 C 2.768213 -7.488676 -2.607070 0
M  V30 78 C 2.272649 -6.737992 -3.639947 0
M  V30 79 C 3.176180 -3.568159 -2.419839 0
M  V30 80 C 4.211422 -4.163346 -1.443414 0
M  V30 81 C 1.319695 6.927195 1.616755 0
M  V30 82 C 0.901863 8.359246 1.873102 0
M  V30 83 C 2.839121 6.900725 1.849553 0
M  V30 84 C 1.015077 6.529354 0.218867 0
M  V30 85 C -2.442802 -0.462794 0.318755 0
M  V30 86 C -1.795421 -1.542584 0.873204 0
M  V30 87 H -1.802800 -4.505499 0.997611 0
M  V30 88 H -1.275669 -5.676658 2.265328 0
M  V30 89 H -1.996676 -4.134727 2.738593 0
M  V30 90 H 3.137174 -4.888567 2.756422 0
M  V30 91 H 1.353034 -0.550033 0.313786 0
M  V30 92 H 0.190620 1.280071 -0.642770 0
M  V30 93 H -2.074226 2.187842 -1.635781 0
M  V30 94 H -3.473281 1.205535 -1.252623 0
M  V30 95 H -3.843227 2.311534 0.685782 0
M  V30 96 H -2.979129 3.632250 2.605447 0
M  V30 97 H -3.971135 5.557832 0.446068 0
M  V30 98 H -4.807911 4.243665 1.340108 0
M  V30 99 H -5.152173 6.609591 2.364521 0
M  V30 100 H -6.678583 5.310355 3.469468 0
M  V30 101 H -5.876592 6.397117 4.708773 0
M  V30 102 H -5.538553 5.566840 6.959417 0
M  V30 103 H -6.087353 3.744517 8.604641 0
M  V30 104 H -7.037704 1.576934 7.844749 0
M  V30 105 H -7.427777 1.251659 5.459485 0
M  V30 106 H -6.904297 2.986007 3.885564 0
M  V30 107 H -2.894726 6.925326 3.737899 0
M  V30 108 H -2.909181 7.478836 2.040799 0
M  V30 109 H 1.066932 6.399811 3.621722 0
M  V30 110 H 0.579542 4.276295 1.789774 0
M  V30 111 H 2.175895 2.553689 1.468833 0
M  V30 112 H 1.421964 1.977960 2.952537 0
M  V30 113 H 3.657527 1.552986 3.902172 0
M  V30 114 H 3.399107 0.849795 2.274434 0
M  V30 115 H 4.701835 3.582644 2.528975 0
M  V30 116 H 4.453254 2.562612 1.103204 0
M  V30 117 H 6.439398 2.103908 3.440036 0
M  V30 118 H 6.777874 2.499926 1.736326 0
M  V30 119 H 5.888216 0.290854 0.967580 0
M  V30 120 H 7.404736 0.270727 1.906558 0
M  V30 121 H 6.419491 -0.568950 3.896990 0
M  V30 122 H 4.758093 -0.393901 3.274653 0
M  V30 123 H 5.170901 -2.130192 1.602816 0
M  V30 124 H 5.522724 -2.622541 3.264810 0
M  V30 125 H 7.923504 -2.320147 2.978154 0
M  V30 126 H 7.700173 -1.817655 1.244491 0
M  V30 127 H 8.244532 -4.199880 1.358595 0
M  V30 128 H 6.976459 -4.445809 2.595118 0
M  V30 129 H 5.249480 -3.997768 0.960777 0
M  V30 130 H 6.414883 -5.300849 0.402195 0
M  V30 131 H 5.131338 -2.006351 -3.005540 0
M  V30 132 H 6.643678 -2.888496 -3.241517 0
M  V30 133 H 5.342168 -4.935940 -3.855666 0
M  V30 134 H 5.020534 -3.609283 -5.006584 0
M  V30 135 H 3.136916 -4.276372 -5.709151 0
M  V30 136 H 3.003341 -2.646318 -5.092102 0
M  V30 137 H 0.909646 -3.430550 -5.903561 0
M  V30 138 H 0.697365 -3.157842 -4.200478 0
M  V30 139 H 0.974988 -5.865449 -5.643304 0
M  V30 140 H -1.057531 -4.427515 -4.241682 0
M  V30 141 H -3.651312 -6.554833 -7.103440 0
M  V30 142 H -4.924973 -6.359783 -6.023980 0
M  V30 143 H -2.615176 -3.926599 -6.625207 0
M  V30 144 H -4.283667 -4.462528 -6.885830 0
M  V30 145 H -4.567916 -2.485821 -5.863590 0
M  V30 146 H -3.217469 -2.694151 -4.682295 0
M  V30 147 H -9.501189 -3.550711 -3.561757 0
M  V30 148 H -7.816697 0.956732 -2.498815 0
M  V30 149 H -5.341518 1.421896 -2.729232 0
M  V30 150 H -4.204787 -0.842685 -3.545890 0
M  V30 151 H -4.674887 -4.684519 -2.413541 0
M  V30 152 H -5.598991 -5.610124 -3.652475 0
M  V30 153 H -3.617271 -6.667664 -3.611352 0
M  V30 154 H -2.615224 -5.250302 -3.306352 0
M  V30 155 H -0.432112 -5.397714 -2.289304 0
M  V30 156 H 0.288635 -6.657058 -0.367317 0
M  V30 157 H 3.654047 -8.074010 -2.677545 0
M  V30 158 H 2.796991 -6.720585 -4.599560 0
M  V30 159 H 3.259974 -2.458305 -2.401899 0
M  V30 160 H 2.221062 -3.813848 -1.975208 0
M  V30 161 H 3.825294 -4.021238 -0.421884 0
M  V30 162 H 4.325098 -5.249939 -1.620998 0
M  V30 163 H 1.719279 9.012977 1.473144 0
M  V30 164 H -0.030168 8.608595 1.328370 0
M  V30 165 H 0.845229 8.590480 2.949018 0
M  V30 166 H 3.231656 5.888378 1.621781 0
M  V30 167 H 3.338809 7.613232 1.158455 0
M  V30 168 H 3.088659 7.191565 2.889000 0
M  V30 169 H 0.041545 5.999024 0.145700 0
M  V30 170 H 1.770855 5.863599 -0.238542 0
M  V30 171 H 0.891881 7.422566 -0.453957 0
M  V30 172 H -3.544811 -0.489157 0.348547 0
M  V30 173 H -2.386355 -2.318935 1.300253 0
M  V30 END ATOM
M  V30 BEGIN BOND
M  V30 1 1 1 2
M  V30 2 1 2 3
M  V30 3 2 3 4
M  V30 4 1 4 5
M  V30 5 1 5 6
M  V30 6 1 6 7
M  V30 7 2 7 8
M  V30 8 1 8 9
M  V30 9 2 9 10
M  V30 10 1 10 11
M  V30 11 1 11 12
M  V30 12 1 12 13
M  V30 13 2 13 14
M  V30 14 1 13 15
M  V30 15 1 15 16
M  V30 16 1 16 17
M  V30 17 1 17 18
M  V30 18 1 18 19
M  V30 19 1 19 20
M  V30 20 2 20 21
M  V30 21 1 21 22
M  V30 22 2 22 23
M  V30 23 1 23 24
M  V30 24 2 24 25
M  V30 25 1 17 26
M  V30 26 1 26 27
M  V30 27 1 27 28
M  V30 28 2 28 29
M  V30 29 1 28 30
M  V30 30 1 30 31
M  V30 31 1 31 32
M  V30 32 2 32 33
M  V30 33 1 32 34
M  V30 34 1 34 35
M  V30 35 1 35 36
M  V30 36 1 36 37
M  V30 37 1 37 38
M  V30 38 1 38 39
M  V30 39 1 39 40
M  V30 40 1 40 41
M  V30 41 1 41 42
M  V30 42 1 42 43
M  V30 43 1 43 44
M  V30 44 2 44 45
M  V30 45 1 44 46
M  V30 46 1 46 47
M  V30 47 1 47 48
M  V30 48 1 48 49
M  V30 49 1 49 50
M  V30 50 1 50 51
M  V30 51 1 51 52
M  V30 52 1 52 53
M  V30 53 1 53 54
M  V30 54 2 54 55
M  V30 55 1 54 56
M  V30 56 1 56 57
M  V30 57 1 56 58
M  V30 58 1 58 59
M  V30 59 1 59 60
M  V30 60 1 60 61
M  V30 61 2 61 62
M  V30 62 1 62 63
M  V30 63 2 63 64
M  V30 64 1 64 65
M  V30 65 1 65 66
M  V30 66 1 66 67
M  V30 67 2 67 68
M  V30 68 1 68 69
M  V30 69 1 60 70
M  V30 70 1 70 71
M  V30 71 1 52 72
M  V30 72 2 72 73
M  V30 73 1 73 74
M  V30 74 2 74 75
M  V30 75 1 75 76
M  V30 76 1 75 77
M  V30 77 2 77 78
M  V30 78 1 49 79
M  V30 79 1 79 80
M  V30 80 1 30 81
M  V30 81 1 81 82
M  V30 82 1 81 83
M  V30 83 1 81 84
M  V30 84 1 10 85
M  V30 85 2 85 86
M  V30 86 2 6 2
M  V30 87 1 86 7
M  V30 88 1 27 15
M  V30 89 1 80 46
M  V30 90 1 25 20
M  V30 91 1 71 56
M  V30 92 1 78 72
M  V30 93 1 69 61
M  V30 94 2 69 65
M  V30 95 1 1 87
M  V30 96 1 1 88
M  V30 97 1 1 89
M  V30 98 1 4 90
M  V30 99 1 8 91
M  V30 100 1 9 92
M  V30 101 1 11 93
M  V30 102 1 11 94
M  V30 103 1 12 95
M  V30 104 1 15 96 CFG=1
M  V30 105 1 16 97
M  V30 106 1 16 98
M  V30 107 1 17 99 CFG=3
M  V30 108 1 19 100
M  V30 109 1 19 101
M  V30 110 1 21 102
M  V30 111 1 22 103
M  V30 112 1 23 104
M  V30 113 1 24 105
M  V30 114 1 25 106
M  V30 115 1 26 107
M  V30 116 1 26 108
M  V30 117 1 30 109 CFG=1
M  V30 118 1 31 110
M  V30 119 1 34 111
M  V30 120 1 34 112
M  V30 121 1 35 113
M  V30 122 1 35 114
M  V30 123 1 36 115
M  V30 124 1 36 116
M  V30 125 1 37 117
M  V30 126 1 37 118
M  V30 127 1 38 119
M  V30 128 1 38 120
M  V30 129 1 39 121
M  V30 130 1 39 122
M  V30 131 1 40 123
M  V30 132 1 40 124
M  V30 133 1 41 125
M  V30 134 1 41 126
M  V30 135 1 42 127
M  V30 136 1 42 128
M  V30 137 1 43 129
M  V30 138 1 43 130
M  V30 139 1 47 131
M  V30 140 1 47 132
M  V30 141 1 48 133
M  V30 142 1 48 134
M  V30 143 1 50 135
M  V30 144 1 50 136
M  V30 145 1 51 137
M  V30 146 1 51 138
M  V30 147 1 52 139 CFG=3
M  V30 148 1 53 140
M  V30 149 1 57 141
M  V30 150 1 57 142
M  V30 151 1 58 143
M  V30 152 1 58 144
M  V30 153 1 59 145
M  V30 154 1 59 146
M  V30 155 1 63 147
M  V30 156 1 66 148
M  V30 157 1 67 149
M  V30 158 1 68 150
M  V30 159 1 70 151
M  V30 160 1 70 152
M  V30 161 1 71 153
M  V30 162 1 71 154
M  V30 163 1 73 155
M  V30 164 1 74 156
M  V30 165 1 77 157
M  V30 166 1 78 158
M  V30 167 1 79 159
M  V30 168 1 79 160
M  V30 169 1 80 161
M  V30 170 1 80 162
M  V30 171 1 82 163
M  V30 172 1 82 164
M  V30 173 1 82 165
M  V30 174 1 83 166
M  V30 175 1 83 167
M  V30 176 1 83 168
M  V30 177 1 84 169
M  V30 178 1 84 170
M  V30 179 1 84 171
M  V30 180 1 85 172
M  V30 181 1 86 173
M  V30 END BOND
M  V30 END CTAB
M  END
>  <Dataset>  (289) 
ChEMBL_Kinases

>  <Ligand_Instance>  (289) 
nan

>  <PDB_ID>  (289) 
nan

>  <Standardized_SMILES>  (289) 
Cc1ncsc1-c1ccc(CNC(=O)[C@@H]2C[C@@H](OCc3ccccc3)CN2C(=O)[C@@H](NC(=O)CCCCCCCCCCC(=O)N2CCN(CC[C@H](NC(=O)C3(N)CCN(c4ncnc5[nH]ccc45)CC3)c3ccc(Cl)cc3)CC2)C(C)(C)C)cc1

>  <Name>  (289) 
nan

>  <Pocket>  (289) 
nan

>  <ATP_Site>  (289) 
nan

>  <Peripheral>  (289) 
nan

>  <Num_H_Atoms_ProtBoundConf>  (289) 
nan

>  <Num_Resolved_Atoms>  (289) 
nan

>  <Num_Not_Resolved_Atoms>  (289) 
nan

$$$$
CHEMBL5078670
     RDKit          3D

  0  0  0  0  0  0  0  0  0  0999 V3000
M  V30 BEGIN CTAB
M  V30 COUNTS 60 64 0 0 0
M  V30 BEGIN ATOM
M  V30 1 C 4.476631 -2.065851 1.867587 0
M  V30 2 C 5.738957 -1.538156 1.244253 0
M  V30 3 C 6.682684 -2.664880 0.994875 0
M  V30 4 N 5.545538 -0.629134 0.160288 0
M  V30 5 C 4.810142 0.550896 0.527808 0
M  V30 6 C 3.413901 0.596016 -0.053183 0
M  V30 7 N 3.552095 0.634013 -1.516290 0
M  V30 8 C 2.588879 1.253313 -2.416744 0
M  V30 9 O 2.729681 1.301757 -3.663340 0
M  V30 10 C 1.457276 1.798897 -1.659170 0
M  V30 11 C 0.730017 0.711095 -1.130771 0
M  V30 12 C -0.408928 0.875508 -0.335834 0
M  V30 13 C -0.862825 2.166595 -0.039350 0
M  V30 14 N -1.999722 2.400179 0.807540 0
M  V30 15 C -2.541629 1.188955 1.312969 0
M  V30 16 N -1.633860 0.636981 2.174534 0
M  V30 17 C -1.915701 -0.524690 2.829101 0
M  V30 18 C -3.142237 -1.116677 2.588777 0
M  V30 19 F -3.309694 -2.274144 3.310408 0
M  V30 20 C -4.074431 -0.550108 1.705019 0
M  V30 21 C -5.235460 -1.383305 1.601499 0
M  V30 22 C -5.915974 -1.829773 2.703986 0
M  V30 23 C -6.992305 -2.660358 2.525315 0
M  V30 24 C -7.381760 -3.037446 1.261297 0
M  V30 25 N -8.441542 -3.852064 1.095747 0
M  V30 26 C -8.840773 -4.232004 -0.150115 0
M  V30 27 C -8.154592 -3.780872 -1.266336 0
M  V30 28 N -7.129186 -2.987553 -1.019574 0
M  V30 29 C -6.659177 -2.558675 0.136868 0
M  V30 30 C -5.546236 -1.704081 0.275467 0
M  V30 31 N -3.763487 0.625482 1.059377 0
M  V30 32 N -0.139288 3.201867 -0.565908 0
M  V30 33 C 0.938041 3.021083 -1.317071 0
M  V30 34 C 4.738704 -0.035445 -2.009024 0
M  V30 35 C 5.102097 -1.205020 -1.075181 0
M  V30 36 H 4.011370 -1.356006 2.584362 0
M  V30 37 H 3.689283 -2.358948 1.156748 0
M  V30 38 H 4.728908 -2.974125 2.453824 0
M  V30 39 H 6.225128 -0.919483 2.064816 0
M  V30 40 H 6.278305 -3.506969 0.406427 0
M  V30 41 H 7.681190 -2.335320 0.621961 0
M  V30 42 H 6.915328 -3.097300 2.013183 0
M  V30 43 H 4.749528 0.637334 1.641915 0
M  V30 44 H 5.361748 1.441505 0.172077 0
M  V30 45 H 2.982335 1.563254 0.308393 0
M  V30 46 H 2.817026 -0.280852 0.192023 0
M  V30 47 H 0.952276 -0.357295 -1.273982 0
M  V30 48 H -0.945456 0.016823 0.045695 0
M  V30 49 H -2.266671 3.418805 0.933295 0
M  V30 50 H -1.165471 -0.950126 3.516894 0
M  V30 51 H -5.623103 -1.538870 3.704377 0
M  V30 52 H -7.580226 -3.052529 3.347252 0
M  V30 53 H -9.691972 -4.883082 -0.305472 0
M  V30 54 H -8.484401 -4.088156 -2.251888 0
M  V30 55 H -5.061583 -1.390921 -0.604439 0
M  V30 56 H 1.568976 3.765595 -1.777244 0
M  V30 57 H 5.622826 0.618426 -2.089617 0
M  V30 58 H 4.548991 -0.463752 -3.023035 0
M  V30 59 H 4.248881 -1.887225 -0.997291 0
M  V30 60 H 5.977621 -1.698150 -1.540228 0
M  V30 END ATOM
M  V30 BEGIN BOND
M  V30 1 1 1 2
M  V30 2 1 2 3
M  V30 3 1 2 4
M  V30 4 1 4 5
M  V30 5 1 5 6
M  V30 6 1 6 7
M  V30 7 1 7 8
M  V30 8 2 8 9
M  V30 9 1 8 10
M  V30 10 2 10 11
M  V30 11 1 11 12
M  V30 12 2 12 13
M  V30 13 1 13 14
M  V30 14 1 14 15
M  V30 15 2 15 16
M  V30 16 1 16 17
M  V30 17 2 17 18
M  V30 18 1 18 19
M  V30 19 1 18 20
M  V30 20 1 20 21
M  V30 21 2 21 22
M  V30 22 1 22 23
M  V30 23 2 23 24
M  V30 24 1 24 25
M  V30 25 2 25 26
M  V30 26 1 26 27
M  V30 27 2 27 28
M  V30 28 1 28 29
M  V30 29 2 29 30
M  V30 30 2 20 31
M  V30 31 1 13 32
M  V30 32 2 32 33
M  V30 33 1 7 34
M  V30 34 1 34 35
M  V30 35 1 35 4
M  V30 36 1 33 10
M  V30 37 1 31 15
M  V30 38 1 30 21
M  V30 39 1 29 24
M  V30 40 1 1 36
M  V30 41 1 1 37
M  V30 42 1 1 38
M  V30 43 1 2 39
M  V30 44 1 3 40
M  V30 45 1 3 41
M  V30 46 1 3 42
M  V30 47 1 5 43
M  V30 48 1 5 44
M  V30 49 1 6 45
M  V30 50 1 6 46
M  V30 51 1 11 47
M  V30 52 1 12 48
M  V30 53 1 14 49
M  V30 54 1 17 50
M  V30 55 1 22 51
M  V30 56 1 23 52
M  V30 57 1 26 53
M  V30 58 1 27 54
M  V30 59 1 30 55
M  V30 60 1 33 56
M  V30 61 1 34 57
M  V30 62 1 34 58
M  V30 63 1 35 59
M  V30 64 1 35 60
M  V30 END BOND
M  V30 END CTAB
M  END
>  <Dataset>  (290) 
ChEMBL_Kinases

>  <Ligand_Instance>  (290) 
nan

>  <PDB_ID>  (290) 
nan

>  <Standardized_SMILES>  (290) 
CC(C)N1CCN(C(=O)c2ccc(Nc3ncc(F)c(-c4ccc5nccnc5c4)n3)nc2)CC1

>  <Name>  (290) 
nan

>  <Pocket>  (290) 
nan

>  <ATP_Site>  (290) 
nan

>  <Peripheral>  (290) 
nan

>  <Num_H_Atoms_ProtBoundConf>  (290) 
nan

>  <Num_Resolved_Atoms>  (290) 
nan

>  <Num_Not_Resolved_Atoms>  (290) 
nan

$$$$
CHEMBL5078447
     RDKit          3D

  0  0  0  0  0  0  0  0  0  0999 V3000
M  V30 BEGIN CTAB
M  V30 COUNTS 34 37 0 0 0
M  V30 BEGIN ATOM
M  V30 1 C -0.956852 -1.324725 3.805163 0
M  V30 2 C -0.074748 -1.978899 4.710019 0
M  V30 3 S 1.281963 -2.420433 3.522323 0
M  V30 4 C 0.583908 -1.724167 1.995674 0
M  V30 5 C 1.302474 -1.892495 0.801743 0
M  V30 6 C 2.343921 -2.831176 0.696629 0
M  V30 7 N 2.874384 -2.805500 -0.539244 0
M  V30 8 C 2.238758 -1.885494 -1.282993 0
M  V30 9 N 2.387052 -1.467138 -2.566871 0
M  V30 10 C 1.608762 -0.498986 -3.070729 0
M  V30 11 N 0.681363 0.036547 -2.251268 0
M  V30 12 C 0.539606 -0.382877 -0.979088 0
M  V30 13 N -0.432879 0.406014 -0.341107 0
M  V30 14 C -0.013241 1.443366 0.614503 0
M  V30 15 C -1.249695 2.058446 1.198312 0
M  V30 16 O -2.316836 2.060395 0.308022 0
M  V30 17 C -2.767152 0.820584 -0.061951 0
M  V30 18 C -1.767858 0.006363 -0.818231 0
M  V30 19 C 1.297567 -1.355219 -0.434735 0
M  V30 20 C -0.598646 -1.228764 2.520228 0
M  V30 21 H -1.842298 -0.974299 4.295139 0
M  V30 22 H -0.118277 -2.187678 5.766627 0
M  V30 23 H 2.801250 -3.547717 1.359406 0
M  V30 24 H 3.654474 -3.369542 -0.951672 0
M  V30 25 H 1.812432 -0.247630 -4.098239 0
M  V30 26 H 0.658000 1.096127 1.384511 0
M  V30 27 H 0.454171 2.229493 -0.038791 0
M  V30 28 H -1.024843 3.136521 1.397563 0
M  V30 29 H -1.456649 1.613758 2.172507 0
M  V30 30 H -3.188158 0.230193 0.779274 0
M  V30 31 H -3.638133 0.991932 -0.743560 0
M  V30 32 H -1.828998 0.274430 -1.902405 0
M  V30 33 H -1.956538 -1.065767 -0.650437 0
M  V30 34 H -1.289890 -0.759150 1.861922 0
M  V30 END ATOM
M  V30 BEGIN BOND
M  V30 1 2 1 2
M  V30 2 1 2 3
M  V30 3 1 3 4
M  V30 4 1 4 5
M  V30 5 2 5 6
M  V30 6 1 6 7
M  V30 7 1 7 8
M  V30 8 2 8 9
M  V30 9 1 9 10
M  V30 10 2 10 11
M  V30 11 1 11 12
M  V30 12 1 12 13
M  V30 13 1 13 14
M  V30 14 1 14 15
M  V30 15 1 15 16
M  V30 16 1 16 17
M  V30 17 1 17 18
M  V30 18 2 12 19
M  V30 19 2 4 20
M  V30 20 1 20 1
M  V30 21 1 19 5
M  V30 22 1 19 8
M  V30 23 1 18 13
M  V30 24 1 1 21
M  V30 25 1 2 22
M  V30 26 1 6 23
M  V30 27 1 7 24
M  V30 28 1 10 25
M  V30 29 1 14 26
M  V30 30 1 14 27
M  V30 31 1 15 28
M  V30 32 1 15 29
M  V30 33 1 17 30
M  V30 34 1 17 31
M  V30 35 1 18 32
M  V30 36 1 18 33
M  V30 37 1 20 34
M  V30 END BOND
M  V30 END CTAB
M  END
>  <Dataset>  (291) 
ChEMBL_Kinases

>  <Ligand_Instance>  (291) 
nan

>  <PDB_ID>  (291) 
nan

>  <Standardized_SMILES>  (291) 
c1csc(-c2c[nH]c3ncnc(N4CCOCC4)c23)c1

>  <Name>  (291) 
nan

>  <Pocket>  (291) 
nan

>  <ATP_Site>  (291) 
nan

>  <Peripheral>  (291) 
nan

>  <Num_H_Atoms_ProtBoundConf>  (291) 
nan

>  <Num_Resolved_Atoms>  (291) 
nan

>  <Num_Not_Resolved_Atoms>  (291) 
nan

$$$$
CHEMBL4776132
     RDKit          3D

  0  0  0  0  0  0  0  0  0  0999 V3000
M  V30 BEGIN CTAB
M  V30 COUNTS 48 53 0 0 0
M  V30 BEGIN ATOM
M  V30 1 C 3.501383 3.452245 1.988106 0
M  V30 2 C 2.613088 2.440587 2.598002 0
M  V30 3 C 2.295616 2.557521 3.930773 0
M  V30 4 C 1.448765 1.662939 4.536175 0
M  V30 5 N 0.966313 0.697442 3.764120 0
M  V30 6 C 1.276601 0.588071 2.475736 0
M  V30 7 C 2.131704 1.457800 1.787566 0
M  V30 8 C 2.322185 1.178857 0.398539 0
M  V30 9 C 3.253036 1.639207 -0.485262 0
M  V30 10 C 3.384791 1.310005 -1.796029 0
M  V30 11 C 2.498993 0.408723 -2.340864 0
M  V30 12 N 2.309426 -0.144210 -3.549449 0
M  V30 13 N 1.263147 -0.959822 -3.452375 0
M  V30 14 C 0.775666 -0.944858 -2.211147 0
M  V30 15 C -0.368657 -1.722284 -1.763794 0
M  V30 16 C -0.971456 -1.803875 -0.527254 0
M  V30 17 C -2.051880 -2.689581 -0.567723 0
M  V30 18 C -2.941117 -3.079541 0.440991 0
M  V30 19 C -2.868754 -2.567995 1.801089 0
M  V30 20 C -2.922192 -3.330590 2.947734 0
M  V30 21 C -2.858653 -2.840851 4.223206 0
M  V30 22 N -2.733211 -1.499976 4.371476 0
M  V30 23 C -2.680072 -0.742307 3.246586 0
M  V30 24 C -2.740294 -1.189311 1.932204 0
M  V30 25 C -3.878192 -3.986525 -0.009351 0
M  V30 26 C -3.944262 -4.459525 -1.288287 0
M  V30 27 N -3.050403 -4.040625 -2.220081 0
M  V30 28 C -2.090700 -3.145465 -1.862062 0
M  V30 29 N -1.097830 -2.556708 -2.511238 0
M  V30 30 C 1.549867 -0.074783 -1.476221 0
M  V30 31 N 1.491055 0.305413 -0.192558 0
M  V30 32 H 3.048771 3.948148 1.084300 0
M  V30 33 H 3.518047 4.335759 2.719609 0
M  V30 34 H 4.547355 3.171013 1.899642 0
M  V30 35 H 2.718742 3.360576 4.502068 0
M  V30 36 H 1.218004 1.778697 5.583307 0
M  V30 37 H 0.780966 -0.265710 2.022859 0
M  V30 38 H 3.996849 2.325531 -0.141013 0
M  V30 39 H 4.153972 1.720320 -2.440410 0
M  V30 40 H 2.922162 0.084408 -4.364033 0
M  V30 41 H -0.602740 -1.228969 0.332240 0
M  V30 42 H -3.023509 -4.406230 2.805626 0
M  V30 43 H -2.908697 -3.515684 5.067970 0
M  V30 44 H -2.578144 0.323991 3.496184 0
M  V30 45 H -2.686862 -0.439702 1.156520 0
M  V30 46 H -4.613199 -4.346994 0.708054 0
M  V30 47 H -4.704347 -5.178387 -1.598292 0
M  V30 48 H -0.927308 -2.753958 -3.528514 0
M  V30 END ATOM
M  V30 BEGIN BOND
M  V30 1 1 1 2
M  V30 2 2 2 3
M  V30 3 1 3 4
M  V30 4 2 4 5
M  V30 5 1 5 6
M  V30 6 2 6 7
M  V30 7 1 7 8
M  V30 8 2 8 9
M  V30 9 1 9 10
M  V30 10 2 10 11
M  V30 11 1 11 12
M  V30 12 1 12 13
M  V30 13 2 13 14
M  V30 14 1 14 15
M  V30 15 2 15 16
M  V30 16 1 16 17
M  V30 17 2 17 18
M  V30 18 1 18 19
M  V30 19 2 19 20
M  V30 20 1 20 21
M  V30 21 2 21 22
M  V30 22 1 22 23
M  V30 23 2 23 24
M  V30 24 1 18 25
M  V30 25 2 25 26
M  V30 26 1 26 27
M  V30 27 2 27 28
M  V30 28 1 28 29
M  V30 29 1 14 30
M  V30 30 2 30 31
M  V30 31 1 7 2
M  V30 32 1 31 8
M  V30 33 1 30 11
M  V30 34 1 29 15
M  V30 35 1 28 17
M  V30 36 1 24 19
M  V30 37 1 1 32
M  V30 38 1 1 33
M  V30 39 1 1 34
M  V30 40 1 3 35
M  V30 41 1 4 36
M  V30 42 1 6 37
M  V30 43 1 9 38
M  V30 44 1 10 39
M  V30 45 1 12 40
M  V30 46 1 16 41
M  V30 47 1 20 42
M  V30 48 1 21 43
M  V30 49 1 23 44
M  V30 50 1 24 45
M  V30 51 1 25 46
M  V30 52 1 26 47
M  V30 53 1 29 48
M  V30 END BOND
M  V30 END CTAB
M  END
>  <Dataset>  (292) 
ChEMBL_Kinases

>  <Ligand_Instance>  (292) 
nan

>  <PDB_ID>  (292) 
nan

>  <Standardized_SMILES>  (292) 
Cc1ccncc1-c1ccc2[nH]nc(-c3cc4c(-c5ccncc5)ccnc4[nH]3)c2n1

>  <Name>  (292) 
nan

>  <Pocket>  (292) 
nan

>  <ATP_Site>  (292) 
nan

>  <Peripheral>  (292) 
nan

>  <Num_H_Atoms_ProtBoundConf>  (292) 
nan

>  <Num_Resolved_Atoms>  (292) 
nan

>  <Num_Not_Resolved_Atoms>  (292) 
nan

$$$$
CHEMBL4776227
     RDKit          3D

  0  0  0  0  0  0  0  0  0  0999 V3000
M  V30 BEGIN CTAB
M  V30 COUNTS 55 58 0 0 0
M  V30 BEGIN ATOM
M  V30 1 C 3.074678 0.668234 3.236182 0
M  V30 2 C 3.238262 -0.698385 2.579711 0
M  V30 3 C 2.206581 -1.675060 3.110696 0
M  V30 4 O 4.522163 -1.226970 2.819289 0
M  V30 5 C 5.140724 -1.375133 1.591321 0
M  V30 6 O 6.326485 -1.841730 1.515334 0
M  V30 7 C 4.307560 -0.953805 0.478825 0
M  V30 8 C 4.462386 -0.903405 -0.887316 0
M  V30 9 C 3.389707 -0.414319 -1.617701 0
M  V30 10 C 2.198634 0.014209 -1.036453 0
M  V30 11 N 1.116035 0.519636 -1.818273 0
M  V30 12 C -0.069168 0.904054 -1.131567 0
M  V30 13 N -0.061137 2.158022 -0.661100 0
M  V30 14 C -1.091336 2.699880 0.013523 0
M  V30 15 C -2.174849 1.870410 0.193646 0
M  V30 16 C -3.294179 2.446286 0.922875 0
M  V30 17 N -3.289153 3.777097 1.427395 0
M  V30 18 O -4.441052 2.152959 1.333622 0
M  V30 19 C -2.239662 0.575649 -0.266664 0
M  V30 20 N -3.357880 -0.275697 -0.077012 0
M  V30 21 C -3.415526 -1.628789 -0.569173 0 CFG=2
M  V30 22 C -4.730591 -2.323966 -0.223780 0
M  V30 23 O -5.790326 -1.628958 -0.778167 0
M  V30 24 C -2.256145 -2.460754 -0.223179 0
M  V30 25 C -1.639863 -3.270735 -1.172694 0
M  V30 26 C -0.544445 -4.099432 -0.972299 0
M  V30 27 C -0.027315 -4.100345 0.328727 0
M  V30 28 C -0.605339 -3.313730 1.302413 0
M  V30 29 C -1.698717 -2.507061 1.038814 0
M  V30 30 N -1.152931 0.131546 -0.929887 0
M  V30 31 C 2.124924 -0.069900 0.340179 0
M  V30 32 C 3.178634 -0.555889 1.126285 0
M  V30 33 H 3.929658 0.845784 3.917196 0
M  V30 34 H 3.087966 1.451022 2.449947 0
M  V30 35 H 2.115425 0.697336 3.794882 0
M  V30 36 H 2.241571 -2.558217 2.429672 0
M  V30 37 H 2.543623 -1.998217 4.106927 0
M  V30 38 H 1.220744 -1.183631 3.084364 0
M  V30 39 H 5.387031 -1.236943 -1.328973 0
M  V30 40 H 3.507025 -0.372596 -2.696809 0
M  V30 41 H 1.270764 0.573532 -2.856754 0
M  V30 42 H -1.047537 3.719130 0.379077 0
M  V30 43 H -3.348205 4.339027 0.540661 0
M  V30 44 H -3.240027 4.146185 2.409650 0
M  V30 45 H -4.203201 0.045650 0.435961 0
M  V30 46 H -3.454243 -1.558009 -1.695718 0
M  V30 47 H -4.819189 -2.496133 0.865947 0
M  V30 48 H -4.691106 -3.319897 -0.713452 0
M  V30 49 H -5.469493 -0.954698 -1.397738 0
M  V30 50 H -2.073943 -3.237565 -2.165384 0
M  V30 51 H -0.180382 -4.669336 -1.816806 0
M  V30 52 H 0.828498 -4.747158 0.486388 0
M  V30 53 H -0.134839 -3.380569 2.281603 0
M  V30 54 H -2.121981 -1.907634 1.825484 0
M  V30 55 H 1.189764 0.268084 0.777549 0
M  V30 END ATOM
M  V30 BEGIN BOND
M  V30 1 1 1 2
M  V30 2 1 2 3
M  V30 3 1 2 4
M  V30 4 1 4 5
M  V30 5 2 5 6
M  V30 6 1 5 7
M  V30 7 2 7 8
M  V30 8 1 8 9
M  V30 9 2 9 10
M  V30 10 1 10 11
M  V30 11 1 11 12
M  V30 12 2 12 13
M  V30 13 1 13 14
M  V30 14 2 14 15
M  V30 15 1 15 16
M  V30 16 1 16 17
M  V30 17 2 16 18
M  V30 18 1 15 19
M  V30 19 1 19 20
M  V30 20 1 20 21
M  V30 21 1 21 22
M  V30 22 1 22 23
M  V30 23 1 21 24
M  V30 24 2 24 25
M  V30 25 1 25 26
M  V30 26 2 26 27
M  V30 27 1 27 28
M  V30 28 2 28 29
M  V30 29 2 19 30
M  V30 30 1 10 31
M  V30 31 2 31 32
M  V30 32 1 32 2
M  V30 33 1 32 7
M  V30 34 1 30 12
M  V30 35 1 29 24
M  V30 36 1 1 33
M  V30 37 1 1 34
M  V30 38 1 1 35
M  V30 39 1 3 36
M  V30 40 1 3 37
M  V30 41 1 3 38
M  V30 42 1 8 39
M  V30 43 1 9 40
M  V30 44 1 11 41
M  V30 45 1 14 42
M  V30 46 1 17 43
M  V30 47 1 17 44
M  V30 48 1 20 45
M  V30 49 1 21 46 CFG=3
M  V30 50 1 22 47
M  V30 51 1 22 48
M  V30 52 1 23 49
M  V30 53 1 25 50
M  V30 54 1 26 51
M  V30 55 1 27 52
M  V30 56 1 28 53
M  V30 57 1 29 54
M  V30 58 1 31 55
M  V30 END BOND
M  V30 END CTAB
M  END
>  <Dataset>  (293) 
ChEMBL_Kinases

>  <Ligand_Instance>  (293) 
nan

>  <PDB_ID>  (293) 
nan

>  <Standardized_SMILES>  (293) 
CC1(C)OC(=O)c2ccc(Nc3ncc(C(N)=O)c(N[C@H](CO)c4ccccc4)n3)cc21

>  <Name>  (293) 
nan

>  <Pocket>  (293) 
nan

>  <ATP_Site>  (293) 
nan

>  <Peripheral>  (293) 
nan

>  <Num_H_Atoms_ProtBoundConf>  (293) 
nan

>  <Num_Resolved_Atoms>  (293) 
nan

>  <Num_Not_Resolved_Atoms>  (293) 
nan

$$$$
CHEMBL5077663
     RDKit          3D

  0  0  0  0  0  0  0  0  0  0999 V3000
M  V30 BEGIN CTAB
M  V30 COUNTS 62 67 0 0 0
M  V30 BEGIN ATOM
M  V30 1 F 1.346417 -5.191094 4.976075 0
M  V30 2 C 2.021831 -4.241996 4.297486 0
M  V30 3 C 3.379734 -4.230085 4.257602 0
M  V30 4 N 4.038860 -3.286665 3.583202 0
M  V30 5 C 3.420838 -2.288230 2.900046 0
M  V30 6 N 4.191972 -1.325087 2.206578 0
M  V30 7 C 3.733791 -0.222948 1.444963 0
M  V30 8 C 2.427121 0.143134 1.224264 0
M  V30 9 C 2.006978 1.220891 0.475022 0
M  V30 10 C 2.961728 1.998835 -0.102461 0
M  V30 11 N 2.639413 3.130505 -0.890855 0
M  V30 12 C 1.283492 3.622687 -1.042497 0
M  V30 13 C 0.881273 3.291801 -2.466694 0
M  V30 14 N 2.002955 2.975525 -3.295803 0
M  V30 15 C 3.155769 3.825547 -3.103206 0
M  V30 16 C 3.575485 3.935531 -1.649801 0
M  V30 17 C 4.271450 1.644336 0.110031 0
M  V30 18 N 4.617053 0.590376 0.844744 0
M  V30 19 N 2.085844 -2.345737 2.971023 0
M  V30 20 C 1.366063 -3.259548 3.626197 0
M  V30 21 C -0.092565 -3.245403 3.647872 0
M  V30 22 C -0.882311 -3.428534 4.742465 0
M  V30 23 C -2.256761 -3.396823 4.641804 0
M  V30 24 C -2.863616 -3.177312 3.422888 0
M  V30 25 N -4.186129 -3.126852 3.204691 0
M  V30 26 C -4.726125 -2.910210 1.992591 0
M  V30 27 C -3.913800 -2.726465 0.895433 0
M  V30 28 N -4.431210 -2.495732 -0.406276 0
M  V30 29 C -3.532907 -2.279405 -1.527774 0
M  V30 30 C -4.200425 -2.290997 -2.857922 0
M  V30 31 O -5.408742 -1.652865 -2.938995 0
M  V30 32 C -6.003993 -1.324510 -1.747366 0
M  V30 33 C -5.832292 -2.451712 -0.762044 0
M  V30 34 N -2.603855 -2.770888 1.078612 0
M  V30 35 C -2.085317 -2.988989 2.299671 0
M  V30 36 C -0.695282 -3.023108 2.412729 0
M  V30 37 H 3.952826 -4.997284 4.780346 0
M  V30 38 H 5.241856 -1.444257 2.264993 0
M  V30 39 H 1.652083 -0.461445 1.673352 0
M  V30 40 H 0.967524 1.408699 0.371407 0
M  V30 41 H 0.575816 3.268026 -0.294918 0
M  V30 42 H 1.333741 4.741340 -0.882776 0
M  V30 43 H 0.185441 2.427822 -2.483348 0
M  V30 44 H 0.345194 4.161200 -2.874044 0
M  V30 45 H 2.295204 1.992770 -3.320081 0
M  V30 46 H 3.040656 4.817336 -3.599262 0
M  V30 47 H 4.010281 3.335420 -3.622721 0
M  V30 48 H 3.400843 5.005889 -1.370505 0
M  V30 49 H 4.624280 3.716833 -1.486651 0
M  V30 50 H 5.122590 2.180062 -0.293222 0
M  V30 51 H -0.389583 -3.599563 5.690711 0
M  V30 52 H -2.905119 -3.539842 5.497741 0
M  V30 53 H -5.804837 -2.882613 1.888034 0
M  V30 54 H -2.826166 -3.152845 -1.499482 0
M  V30 55 H -2.968827 -1.349791 -1.335033 0
M  V30 56 H -4.281531 -3.303925 -3.318792 0
M  V30 57 H -3.510149 -1.738682 -3.561800 0
M  V30 58 H -7.103171 -1.252701 -1.947188 0
M  V30 59 H -5.686345 -0.341571 -1.359184 0
M  V30 60 H -6.154126 -3.381371 -1.283825 0
M  V30 61 H -6.511619 -2.258208 0.080071 0
M  V30 62 H -0.100780 -2.871516 1.505587 0
M  V30 END ATOM
M  V30 BEGIN BOND
M  V30 1 1 1 2
M  V30 2 2 2 3
M  V30 3 1 3 4
M  V30 4 2 4 5
M  V30 5 1 5 6
M  V30 6 1 6 7
M  V30 7 2 7 8
M  V30 8 1 8 9
M  V30 9 2 9 10
M  V30 10 1 10 11
M  V30 11 1 11 12
M  V30 12 1 12 13
M  V30 13 1 13 14
M  V30 14 1 14 15
M  V30 15 1 15 16
M  V30 16 1 10 17
M  V30 17 2 17 18
M  V30 18 1 5 19
M  V30 19 2 19 20
M  V30 20 1 20 21
M  V30 21 2 21 22
M  V30 22 1 22 23
M  V30 23 2 23 24
M  V30 24 1 24 25
M  V30 25 2 25 26
M  V30 26 1 26 27
M  V30 27 1 27 28
M  V30 28 1 28 29
M  V30 29 1 29 30
M  V30 30 1 30 31
M  V30 31 1 31 32
M  V30 32 1 32 33
M  V30 33 2 27 34
M  V30 34 1 34 35
M  V30 35 2 35 36
M  V30 36 1 20 2
M  V30 37 1 36 21
M  V30 38 1 18 7
M  V30 39 1 35 24
M  V30 40 1 16 11
M  V30 41 1 33 28
M  V30 42 1 3 37
M  V30 43 1 6 38
M  V30 44 1 8 39
M  V30 45 1 9 40
M  V30 46 1 12 41
M  V30 47 1 12 42
M  V30 48 1 13 43
M  V30 49 1 13 44
M  V30 50 1 14 45
M  V30 51 1 15 46
M  V30 52 1 15 47
M  V30 53 1 16 48
M  V30 54 1 16 49
M  V30 55 1 17 50
M  V30 56 1 22 51
M  V30 57 1 23 52
M  V30 58 1 26 53
M  V30 59 1 29 54
M  V30 60 1 29 55
M  V30 61 1 30 56
M  V30 62 1 30 57
M  V30 63 1 32 58
M  V30 64 1 32 59
M  V30 65 1 33 60
M  V30 66 1 33 61
M  V30 67 1 36 62
M  V30 END BOND
M  V30 END CTAB
M  END
>  <Dataset>  (294) 
ChEMBL_Kinases

>  <Ligand_Instance>  (294) 
nan

>  <PDB_ID>  (294) 
nan

>  <Standardized_SMILES>  (294) 
Fc1cnc(Nc2ccc(N3CCNCC3)cn2)nc1-c1ccc2ncc(N3CCOCC3)nc2c1

>  <Name>  (294) 
nan

>  <Pocket>  (294) 
nan

>  <ATP_Site>  (294) 
nan

>  <Peripheral>  (294) 
nan

>  <Num_H_Atoms_ProtBoundConf>  (294) 
nan

>  <Num_Resolved_Atoms>  (294) 
nan

>  <Num_Not_Resolved_Atoms>  (294) 
nan

$$$$
CHEMBL5077271
     RDKit          3D

  0  0  0  0  0  0  0  0  0  0999 V3000
M  V30 BEGIN CTAB
M  V30 COUNTS 68 72 0 0 0
M  V30 BEGIN ATOM
M  V30 1 C 2.271368 -2.740771 4.703515 0
M  V30 2 C 3.195186 -3.277318 3.629764 0
M  V30 3 C 2.288825 -4.172873 2.768667 0
M  V30 4 N 3.749589 -2.288184 2.803980 0
M  V30 5 C 4.710167 -2.640419 1.842977 0
M  V30 6 C 5.483925 -1.464893 1.285888 0
M  V30 7 N 4.629974 -0.332643 1.015297 0
M  V30 8 C 4.606429 0.323391 -0.270106 0
M  V30 9 O 5.391165 -0.156740 -1.126532 0
M  V30 10 C 3.631596 1.438093 -0.270861 0
M  V30 11 C 2.309438 0.962843 -0.364047 0
M  V30 12 C 1.369117 1.987036 -0.370844 0
M  V30 13 C 1.609633 3.334461 -0.297286 0
M  V30 14 N 0.617762 4.343760 -0.324881 0
M  V30 15 C -0.785139 4.219195 -0.488183 0
M  V30 16 N -1.648655 5.261416 -0.408415 0
M  V30 17 C -2.943410 5.016658 -0.605143 0
M  V30 18 C -3.538655 3.814212 -0.886847 0
M  V30 19 F -4.827244 3.479080 -1.098088 0
M  V30 20 C -2.619960 2.741495 -0.965614 0
M  V30 21 C -2.911201 1.341146 -1.270519 0
M  V30 22 C -2.055367 0.813989 -2.250933 0
M  V30 23 C -2.089623 -0.474614 -2.732660 0
M  V30 24 C -3.068748 -1.309609 -2.182842 0
M  V30 25 N -3.147205 -2.579764 -2.615161 0
M  V30 26 C -4.079948 -3.427560 -2.108625 0
M  V30 27 C -4.923048 -2.918561 -1.145680 0
M  V30 28 N -5.884594 -3.828870 -0.633191 0
M  V30 29 C -5.914377 -5.186131 -1.137770 0
M  V30 30 C -6.843938 -3.447507 0.388337 0
M  V30 31 N -4.849151 -1.633150 -0.703527 0
M  V30 32 C -3.907869 -0.791527 -1.219937 0
M  V30 33 C -3.853134 0.502166 -0.754874 0
M  V30 34 N -1.370773 3.059338 -0.761187 0
M  V30 35 N 2.891317 3.669344 -0.211159 0
M  V30 36 C 3.904902 2.807515 -0.194992 0
M  V30 37 C 3.851626 0.020583 2.186230 0
M  V30 38 C 2.967012 -1.133005 2.510083 0
M  V30 39 H 1.292767 -2.524695 4.213408 0
M  V30 40 H 2.663924 -1.897782 5.273560 0
M  V30 41 H 2.088568 -3.573233 5.414516 0
M  V30 42 H 3.983110 -3.944116 4.020890 0
M  V30 43 H 1.248295 -3.764575 2.735208 0
M  V30 44 H 2.682051 -4.229820 1.741984 0
M  V30 45 H 2.249979 -5.176621 3.212285 0
M  V30 46 H 4.239287 -3.211724 1.014652 0
M  V30 47 H 5.457225 -3.322053 2.301166 0
M  V30 48 H 6.306673 -1.150556 1.955746 0
M  V30 49 H 5.964854 -1.793807 0.350699 0
M  V30 50 H 2.046222 -0.071721 -0.424811 0
M  V30 51 H 0.357302 1.623972 -0.438525 0
M  V30 52 H 0.935387 5.349772 -0.208669 0
M  V30 53 H -3.676451 5.837481 -0.548061 0
M  V30 54 H -1.260574 1.406508 -2.732730 0
M  V30 55 H -1.420845 -0.855973 -3.488014 0
M  V30 56 H -4.031704 -4.396994 -2.537524 0
M  V30 57 H -6.428906 -5.185518 -2.141125 0
M  V30 58 H -4.894712 -5.637581 -1.187579 0
M  V30 59 H -6.502311 -5.867919 -0.479839 0
M  V30 60 H -7.857511 -3.620418 0.002300 0
M  V30 61 H -6.652045 -4.057317 1.317895 0
M  V30 62 H -6.766138 -2.353785 0.621197 0
M  V30 63 H -4.483753 0.929915 -0.016277 0
M  V30 64 H 4.952355 3.035562 -0.127397 0
M  V30 65 H 3.290633 0.969718 2.035782 0
M  V30 66 H 4.595158 0.255623 2.974281 0
M  V30 67 H 2.248940 -0.933640 3.328119 0
M  V30 68 H 2.338004 -1.351150 1.616794 0
M  V30 END ATOM
M  V30 BEGIN BOND
M  V30 1 1 1 2
M  V30 2 1 2 3
M  V30 3 1 2 4
M  V30 4 1 4 5
M  V30 5 1 5 6
M  V30 6 1 6 7
M  V30 7 1 7 8
M  V30 8 2 8 9
M  V30 9 1 8 10
M  V30 10 2 10 11
M  V30 11 1 11 12
M  V30 12 2 12 13
M  V30 13 1 13 14
M  V30 14 1 14 15
M  V30 15 2 15 16
M  V30 16 1 16 17
M  V30 17 2 17 18
M  V30 18 1 18 19
M  V30 19 1 18 20
M  V30 20 1 20 21
M  V30 21 2 21 22
M  V30 22 1 22 23
M  V30 23 2 23 24
M  V30 24 1 24 25
M  V30 25 2 25 26
M  V30 26 1 26 27
M  V30 27 1 27 28
M  V30 28 1 28 29
M  V30 29 1 28 30
M  V30 30 2 27 31
M  V30 31 1 31 32
M  V30 32 2 32 33
M  V30 33 2 20 34
M  V30 34 1 13 35
M  V30 35 2 35 36
M  V30 36 1 7 37
M  V30 37 1 37 38
M  V30 38 1 38 4
M  V30 39 1 36 10
M  V30 40 1 34 15
M  V30 41 1 33 21
M  V30 42 1 32 24
M  V30 43 1 1 39
M  V30 44 1 1 40
M  V30 45 1 1 41
M  V30 46 1 2 42
M  V30 47 1 3 43
M  V30 48 1 3 44
M  V30 49 1 3 45
M  V30 50 1 5 46
M  V30 51 1 5 47
M  V30 52 1 6 48
M  V30 53 1 6 49
M  V30 54 1 11 50
M  V30 55 1 12 51
M  V30 56 1 14 52
M  V30 57 1 17 53
M  V30 58 1 22 54
M  V30 59 1 23 55
M  V30 60 1 26 56
M  V30 61 1 29 57
M  V30 62 1 29 58
M  V30 63 1 29 59
M  V30 64 1 30 60
M  V30 65 1 30 61
M  V30 66 1 30 62
M  V30 67 1 33 63
M  V30 68 1 36 64
M  V30 69 1 37 65
M  V30 70 1 37 66
M  V30 71 1 38 67
M  V30 72 1 38 68
M  V30 END BOND
M  V30 END CTAB
M  END
>  <Dataset>  (295) 
ChEMBL_Kinases

>  <Ligand_Instance>  (295) 
nan

>  <PDB_ID>  (295) 
nan

>  <Standardized_SMILES>  (295) 
CC(C)N1CCN(C(=O)c2ccc(Nc3ncc(F)c(-c4ccc5ncc(N(C)C)nc5c4)n3)nc2)CC1

>  <Name>  (295) 
nan

>  <Pocket>  (295) 
nan

>  <ATP_Site>  (295) 
nan

>  <Peripheral>  (295) 
nan

>  <Num_H_Atoms_ProtBoundConf>  (295) 
nan

>  <Num_Resolved_Atoms>  (295) 
nan

>  <Num_Not_Resolved_Atoms>  (295) 
nan

$$$$
CHEMBL5077090
     RDKit          3D

  0  0  0  0  0  0  0  0  0  0999 V3000
M  V30 BEGIN CTAB
M  V30 COUNTS 60 61 0 0 0
M  V30 BEGIN ATOM
M  V30 1 C 1.007005 -7.419076 0.800667 0
M  V30 2 C 1.739254 -6.132074 0.829801 0
M  V30 3 C 2.315682 -5.180334 -0.015321 0
M  V30 4 C 2.861796 -4.165328 0.791147 0
M  V30 5 O 3.411943 -3.261777 -0.054354 0
M  V30 6 C 4.074972 -2.082064 0.094613 0
M  V30 7 C 3.309656 -0.986486 0.748389 0
M  V30 8 C 2.865198 -1.219323 2.147814 0
M  V30 9 O 4.004495 -1.445622 2.927505 0
M  V30 10 C 2.162768 -0.550789 -0.165484 0
M  V30 11 C 1.955221 0.852181 0.286931 0
M  V30 12 C 0.830331 1.568414 0.111455 0
M  V30 13 C -0.310445 0.921842 -0.590497 0
M  V30 14 C -1.574933 0.809310 0.254795 0
M  V30 15 C -1.881854 2.249227 0.607051 0
M  V30 16 C -3.020339 2.620196 1.422758 0
M  V30 17 C -2.917740 4.179308 1.560080 0
M  V30 18 C -4.409424 2.398534 0.980281 0
M  V30 19 C -2.670213 0.198175 -0.479557 0
M  V30 20 C -2.671656 -1.125954 -1.086751 0
M  V30 21 C -1.692775 -1.444812 -2.174628 0
M  V30 22 C -2.697256 -2.306689 -0.157312 0
M  V30 23 C 3.215529 1.229256 0.932008 0
M  V30 24 O 3.415722 2.350659 1.499337 0
M  V30 25 O 4.141589 0.197930 0.832865 0
M  V30 26 N 2.587700 -4.557528 2.047355 0
M  V30 27 O 1.948483 -5.679434 2.041746 0
M  V30 28 H 1.497132 -8.200150 1.399190 0
M  V30 29 H 0.875976 -7.792993 -0.246645 0
M  V30 30 H -0.027358 -7.290285 1.195702 0
M  V30 31 H 2.171033 -5.506916 -1.044957 0
M  V30 32 H 4.306022 -1.699349 -0.952709 0
M  V30 33 H 5.092353 -2.168236 0.554652 0
M  V30 34 H 2.042750 -1.903257 2.309672 0
M  V30 35 H 2.492388 -0.210627 2.539227 0
M  V30 36 H 4.720999 -0.857096 2.550894 0
M  V30 37 H 2.453691 -0.650735 -1.208155 0
M  V30 38 H 1.317973 -1.227806 0.126655 0
M  V30 39 H 0.948134 2.554302 0.529908 0
M  V30 40 H -0.049463 -0.109638 -0.882860 0
M  V30 41 H -0.530242 1.479012 -1.510372 0
M  V30 42 H -1.264463 0.342481 1.199610 0
M  V30 43 H -0.963820 2.729970 1.081703 0
M  V30 44 H -1.948550 2.826611 -0.370452 0
M  V30 45 H -2.944269 2.266833 2.484946 0
M  V30 46 H -3.543858 4.511062 2.399033 0
M  V30 47 H -3.369142 4.559021 0.620689 0
M  V30 48 H -1.864363 4.459744 1.654095 0
M  V30 49 H -5.037681 3.290536 1.321240 0
M  V30 50 H -4.606042 2.357610 -0.093227 0
M  V30 51 H -4.905568 1.564444 1.566459 0
M  V30 52 H -2.976365 0.906651 -1.311807 0
M  V30 53 H -3.619762 0.262157 0.166700 0
M  V30 54 H -3.689763 -1.220683 -1.601181 0
M  V30 55 H -2.235665 -2.107020 -2.944549 0
M  V30 56 H -1.338095 -0.561871 -2.742336 0
M  V30 57 H -0.805108 -2.026254 -1.862615 0
M  V30 58 H -1.799431 -2.473750 0.422992 0
M  V30 59 H -2.855490 -3.218376 -0.786892 0
M  V30 60 H -3.587988 -2.248095 0.507569 0
M  V30 END ATOM
M  V30 BEGIN BOND
M  V30 1 1 1 2
M  V30 2 2 2 3
M  V30 3 1 3 4
M  V30 4 1 4 5
M  V30 5 1 5 6
M  V30 6 1 6 7
M  V30 7 1 7 8
M  V30 8 1 8 9
M  V30 9 1 7 10
M  V30 10 1 10 11
M  V30 11 2 11 12
M  V30 12 1 12 13
M  V30 13 1 13 14
M  V30 14 1 14 15
M  V30 15 1 15 16
M  V30 16 1 16 17
M  V30 17 1 16 18
M  V30 18 1 14 19
M  V30 19 1 19 20
M  V30 20 1 20 21
M  V30 21 1 20 22
M  V30 22 1 11 23
M  V30 23 2 23 24
M  V30 24 1 23 25
M  V30 25 2 4 26
M  V30 26 1 26 27
M  V30 27 1 27 2
M  V30 28 1 25 7
M  V30 29 1 1 28
M  V30 30 1 1 29
M  V30 31 1 1 30
M  V30 32 1 3 31
M  V30 33 1 6 32
M  V30 34 1 6 33
M  V30 35 1 8 34
M  V30 36 1 8 35
M  V30 37 1 9 36
M  V30 38 1 10 37
M  V30 39 1 10 38
M  V30 40 1 12 39
M  V30 41 1 13 40
M  V30 42 1 13 41
M  V30 43 1 14 42
M  V30 44 1 15 43
M  V30 45 1 15 44
M  V30 46 1 16 45
M  V30 47 1 17 46
M  V30 48 1 17 47
M  V30 49 1 17 48
M  V30 50 1 18 49
M  V30 51 1 18 50
M  V30 52 1 18 51
M  V30 53 1 19 52
M  V30 54 1 19 53
M  V30 55 1 20 54
M  V30 56 1 21 55
M  V30 57 1 21 56
M  V30 58 1 21 57
M  V30 59 1 22 58
M  V30 60 1 22 59
M  V30 61 1 22 60
M  V30 END BOND
M  V30 END CTAB
M  END
>  <Dataset>  (296) 
ChEMBL_Kinases

>  <Ligand_Instance>  (296) 
nan

>  <PDB_ID>  (296) 
nan

>  <Standardized_SMILES>  (296) 
Cc1cc(OCC2(CO)C/C(=C\CC(CC(C)C)CC(C)C)C(=O)O2)no1

>  <Name>  (296) 
nan

>  <Pocket>  (296) 
nan

>  <ATP_Site>  (296) 
nan

>  <Peripheral>  (296) 
nan

>  <Num_H_Atoms_ProtBoundConf>  (296) 
nan

>  <Num_Resolved_Atoms>  (296) 
nan

>  <Num_Not_Resolved_Atoms>  (296) 
nan

$$$$
CHEMBL5079873
     RDKit          3D

  0  0  0  0  0  0  0  0  0  0999 V3000
M  V30 BEGIN CTAB
M  V30 COUNTS 49 52 0 0 0
M  V30 BEGIN ATOM
M  V30 1 C 0.367008 -4.476719 2.506460 0
M  V30 2 C 0.708325 -3.034395 2.559281 0
M  V30 3 N 0.952742 -2.254040 3.654933 0
M  V30 4 C 1.212695 -1.016301 3.206074 0
M  V30 5 C 1.504633 0.118189 3.909546 0
M  V30 6 C 1.734383 1.310120 3.289500 0
M  V30 7 C 1.678706 1.398799 1.953425 0
M  V30 8 C 1.816161 2.227707 0.815999 0
M  V30 9 C 1.944048 2.998872 -0.241942 0
M  V30 10 C 2.117698 4.190098 -0.836394 0
M  V30 11 N 2.144082 4.140250 -2.251056 0
M  V30 12 N 2.232806 5.200103 0.068590 0
M  V30 13 C 2.157615 4.860727 1.411341 0
M  V30 14 N 2.308194 6.107037 2.085134 0
M  V30 15 C 1.963079 3.461228 1.680809 0
M  V30 16 N 1.384771 0.253056 1.255410 0
M  V30 17 C 1.149865 -0.947964 1.835636 0
M  V30 18 N 0.830627 -2.237676 1.483683 0
M  V30 19 C 0.669739 -2.531618 0.065531 0
M  V30 20 C -0.742477 -2.295772 -0.388290 0 CFG=2
M  V30 21 C -1.166993 -0.848538 -0.175272 0
M  V30 22 O -1.665421 -3.144828 0.258189 0
M  V30 23 C -2.651392 -3.881279 -0.378089 0
M  V30 24 C -3.449819 -4.659553 0.422338 0
M  V30 25 C -4.465542 -5.424600 -0.154056 0
M  V30 26 C -4.568056 -5.316880 -1.526282 0
M  V30 27 C -3.773064 -4.538642 -2.347173 0
M  V30 28 N -2.824494 -3.837885 -1.710871 0
M  V30 29 H 0.725393 -4.987883 3.404119 0
M  V30 30 H 0.680163 -4.922639 1.543484 0
M  V30 31 H -0.756588 -4.580494 2.545504 0
M  V30 32 H 1.587245 0.215479 4.993779 0
M  V30 33 H 1.973140 2.233007 3.755871 0
M  V30 34 H 1.832309 2.053457 -0.852972 0
M  V30 35 H 3.048144 3.860583 -2.713989 0
M  V30 36 H 1.510287 4.304730 -3.062971 0
M  V30 37 H 3.309438 6.276473 2.384857 0
M  V30 38 H 1.374827 6.595449 2.138559 0
M  V30 39 H 1.974298 3.776148 2.785430 0
M  V30 40 H 1.404955 -1.989613 -0.553510 0
M  V30 41 H 0.881426 -3.613863 -0.062295 0
M  V30 42 H -0.818398 -2.457377 -1.475776 0
M  V30 43 H -1.261471 -0.564581 0.875803 0
M  V30 44 H -0.534260 -0.164527 -0.779465 0
M  V30 45 H -2.197254 -0.792252 -0.628111 0
M  V30 46 H -3.307404 -4.694449 1.489650 0
M  V30 47 H -5.131001 -6.059247 0.413480 0
M  V30 48 H -5.351539 -5.904791 -1.982509 0
M  V30 49 H -3.920728 -4.510554 -3.425795 0
M  V30 END ATOM
M  V30 BEGIN BOND
M  V30 1 1 1 2
M  V30 2 2 2 3
M  V30 3 1 3 4
M  V30 4 2 4 5
M  V30 5 1 5 6
M  V30 6 2 6 7
M  V30 7 1 7 8
M  V30 8 2 8 9
M  V30 9 1 9 10
M  V30 10 1 10 11
M  V30 11 2 10 12
M  V30 12 1 12 13
M  V30 13 1 13 14
M  V30 14 2 13 15
M  V30 15 1 7 16
M  V30 16 2 16 17
M  V30 17 1 17 18
M  V30 18 1 18 19
M  V30 19 1 19 20
M  V30 20 1 20 21
M  V30 21 1 20 22
M  V30 22 1 22 23
M  V30 23 2 23 24
M  V30 24 1 24 25
M  V30 25 2 25 26
M  V30 26 1 26 27
M  V30 27 2 27 28
M  V30 28 1 18 2
M  V30 29 1 28 23
M  V30 30 1 17 4
M  V30 31 1 15 8
M  V30 32 1 1 29
M  V30 33 1 1 30
M  V30 34 1 1 31
M  V30 35 1 5 32
M  V30 36 1 6 33
M  V30 37 1 9 34
M  V30 38 1 11 35
M  V30 39 1 11 36
M  V30 40 1 14 37
M  V30 41 1 14 38
M  V30 42 1 15 39
M  V30 43 1 19 40
M  V30 44 1 19 41
M  V30 45 1 20 42 CFG=3
M  V30 46 1 21 43
M  V30 47 1 21 44
M  V30 48 1 21 45
M  V30 49 1 24 46
M  V30 50 1 25 47
M  V30 51 1 26 48
M  V30 52 1 27 49
M  V30 END BOND
M  V30 END CTAB
M  END
>  <Dataset>  (297) 
ChEMBL_Kinases

>  <Ligand_Instance>  (297) 
nan

>  <PDB_ID>  (297) 
nan

>  <Standardized_SMILES>  (297) 
Cc1nc2ccc(-c3cc(N)nc(N)c3)nc2n1C[C@H](C)Oc1ccccn1

>  <Name>  (297) 
nan

>  <Pocket>  (297) 
nan

>  <ATP_Site>  (297) 
nan

>  <Peripheral>  (297) 
nan

>  <Num_H_Atoms_ProtBoundConf>  (297) 
nan

>  <Num_Resolved_Atoms>  (297) 
nan

>  <Num_Not_Resolved_Atoms>  (297) 
nan

$$$$
CHEMBL5089643
     RDKit          3D

  0  0  0  0  0  0  0  0  0  0999 V3000
M  V30 BEGIN CTAB
M  V30 COUNTS 52 56 0 0 0
M  V30 BEGIN ATOM
M  V30 1 C 2.509266 -1.367633 -1.475136 0
M  V30 2 N 2.306929 -1.533939 -0.066489 0
M  V30 3 C 2.989002 -0.545428 0.722374 0
M  V30 4 C 2.371494 0.732675 1.018463 0
M  V30 5 N 3.307632 1.553849 1.592348 0
M  V30 6 N 2.904092 2.729247 1.909883 0
M  V30 7 C 3.732520 3.774053 2.533374 0
M  V30 8 C 1.624200 2.746534 1.546701 0
M  V30 9 C 0.875357 3.977842 1.798960 0
M  V30 10 N 0.262023 4.947125 1.998426 0
M  V30 11 C 1.233382 1.514877 0.977850 0
M  V30 12 C -0.150304 1.387451 0.535916 0
M  V30 13 C -0.826315 2.451796 -0.045966 0
M  V30 14 N -2.121322 2.460149 -0.445663 0
M  V30 15 C -2.897440 1.361294 -0.297684 0
M  V30 16 N -4.170570 0.878986 -0.505010 0
M  V30 17 N -4.247427 -0.411317 -0.073777 0
M  V30 18 C -3.026710 -0.674483 0.379291 0
M  V30 19 C -2.189479 0.311686 0.284589 0
M  V30 20 C -0.878565 0.239261 0.712423 0
M  V30 21 C -2.644779 -1.970984 0.884740 0
M  V30 22 C -1.999461 -2.829408 -0.013970 0
M  V30 23 N -1.778945 -3.963646 0.737966 0
M  V30 24 N -2.239416 -3.816881 1.975523 0
M  V30 25 C -2.788125 -2.584365 2.102475 0
M  V30 26 C -3.463570 -1.779209 3.132781 0
M  V30 27 F -3.625830 -2.344412 4.339770 0
M  V30 28 F -4.772841 -1.974764 2.670627 0
M  V30 29 F -3.382455 -0.462423 3.032716 0
M  V30 30 C -1.165852 -4.857895 -0.197105 0
M  V30 31 C 0.257806 -4.783668 -0.536065 0
M  V30 32 C 0.970943 -3.589603 -0.978681 0
M  V30 33 C 1.443646 -2.662202 0.064376 0
M  V30 34 O 1.385703 -2.410327 1.269561 0
M  V30 35 H 1.500432 -1.247219 -1.969116 0
M  V30 36 H 2.952587 -2.282260 -1.946639 0
M  V30 37 H 3.074345 -0.457003 -1.765826 0
M  V30 38 H 3.214458 -1.001532 1.747117 0
M  V30 39 H 4.021282 -0.518695 0.274848 0
M  V30 40 H 4.782801 3.458829 2.433513 0
M  V30 41 H 3.555393 4.723822 1.987751 0
M  V30 42 H 3.496996 3.844036 3.607010 0
M  V30 43 H -0.329999 3.412985 -0.241894 0
M  V30 44 H -4.851429 1.522129 -0.932561 0
M  V30 45 H -0.600633 -0.703901 1.135427 0
M  V30 46 H -1.797620 -2.513100 -1.030208 0
M  V30 47 H -1.829807 -4.982037 -1.118207 0
M  V30 48 H -1.361750 -5.890954 0.290767 0
M  V30 49 H 0.809655 -5.131418 0.416588 0
M  V30 50 H 0.504217 -5.671464 -1.216203 0
M  V30 51 H 0.488009 -3.018408 -1.802723 0
M  V30 52 H 1.930813 -3.944593 -1.471543 0
M  V30 END ATOM
M  V30 BEGIN BOND
M  V30 1 1 1 2
M  V30 2 1 2 3
M  V30 3 1 3 4
M  V30 4 2 4 5
M  V30 5 1 5 6
M  V30 6 1 6 7
M  V30 7 1 6 8
M  V30 8 1 8 9
M  V30 9 3 9 10
M  V30 10 2 8 11
M  V30 11 1 11 12
M  V30 12 2 12 13
M  V30 13 1 13 14
M  V30 14 2 14 15
M  V30 15 1 15 16
M  V30 16 1 16 17
M  V30 17 2 17 18
M  V30 18 1 18 19
M  V30 19 2 19 20
M  V30 20 1 18 21
M  V30 21 2 21 22
M  V30 22 1 22 23
M  V30 23 1 23 24
M  V30 24 2 24 25
M  V30 25 1 25 26
M  V30 26 1 26 27
M  V30 27 1 26 28
M  V30 28 1 26 29
M  V30 29 1 23 30
M  V30 30 1 30 31
M  V30 31 1 31 32
M  V30 32 1 32 33
M  V30 33 2 33 34
M  V30 34 1 33 2
M  V30 35 1 11 4
M  V30 36 1 20 12
M  V30 37 1 25 21
M  V30 38 1 19 15
M  V30 39 1 1 35
M  V30 40 1 1 36
M  V30 41 1 1 37
M  V30 42 1 3 38
M  V30 43 1 3 39
M  V30 44 1 7 40
M  V30 45 1 7 41
M  V30 46 1 7 42
M  V30 47 1 13 43
M  V30 48 1 16 44
M  V30 49 1 20 45
M  V30 50 1 22 46
M  V30 51 1 30 47
M  V30 52 1 30 48
M  V30 53 1 31 49
M  V30 54 1 31 50
M  V30 55 1 32 51
M  V30 56 1 32 52
M  V30 END BOND
M  V30 END CTAB
M  END
>  <Dataset>  (298) 
ChEMBL_Kinases

>  <Ligand_Instance>  (298) 
nan

>  <PDB_ID>  (298) 
nan

>  <Standardized_SMILES>  (298) 
CN1Cc2nn(C)c(C#N)c2-c2cnc3[nH]nc(c3c2)-c2cn(nc2C(F)(F)F)CCCC1=O

>  <Name>  (298) 
nan

>  <Pocket>  (298) 
nan

>  <ATP_Site>  (298) 
nan

>  <Peripheral>  (298) 
nan

>  <Num_H_Atoms_ProtBoundConf>  (298) 
nan

>  <Num_Resolved_Atoms>  (298) 
nan

>  <Num_Not_Resolved_Atoms>  (298) 
nan

$$$$
CHEMBL4757546
     RDKit          3D

  0  0  0  0  0  0  0  0  0  0999 V3000
M  V30 BEGIN CTAB
M  V30 COUNTS 74 78 0 0 0
M  V30 BEGIN ATOM
M  V30 1 C -0.431922 -2.893460 2.343337 0
M  V30 2 C 0.581415 -2.628652 1.287419 0
M  V30 3 C 1.263969 -1.409384 1.242953 0
M  V30 4 C 2.226584 -1.124340 0.267651 0
M  V30 5 N 2.903007 0.150103 0.271889 0
M  V30 6 C 2.457631 1.026399 1.322192 0
M  V30 7 C 1.520617 1.926711 0.810949 0
M  V30 8 C 0.929081 2.870008 1.623620 0
M  V30 9 N -0.005739 3.820644 1.182683 0
M  V30 10 C -0.319671 4.146199 -0.182981 0
M  V30 11 C -1.763692 3.962578 -0.515305 0
M  V30 12 N -2.660192 4.098399 0.562734 0
M  V30 13 C -3.742944 3.168763 0.603054 0
M  V30 14 C -3.301519 1.745840 0.887696 0
M  V30 15 C -4.515385 0.847261 0.904475 0
M  V30 16 N -4.189919 -0.529783 1.167329 0
M  V30 17 C -3.713505 -0.765893 2.506766 0
M  V30 18 C -3.395435 -1.140910 0.146416 0
M  V30 19 C -2.230450 4.694620 1.743650 0
M  V30 20 C -0.793479 4.601027 2.116154 0
M  V30 21 N 1.291696 2.889089 2.936783 0
M  V30 22 C 2.205810 2.001658 3.407820 0
M  V30 23 N 2.790661 1.080458 2.636682 0
M  V30 24 C 2.480955 -2.120204 -0.672943 0
M  V30 25 O 3.341892 -1.809934 -1.510399 0
M  V30 26 N 1.808833 -3.286806 -0.608450 0
M  V30 27 C 0.882530 -3.570802 0.325396 0
M  V30 28 C 0.379445 -4.918197 0.086614 0
M  V30 29 O -0.492722 -5.474299 0.785566 0
M  V30 30 N 1.099697 -5.390493 -1.072504 0
M  V30 31 C 2.006071 -4.360448 -1.545588 0
M  V30 32 C 3.396087 -4.931055 -1.558418 0
M  V30 33 C 3.314297 -6.268593 -2.245583 0
M  V30 34 C 2.543273 -6.264495 -3.521247 0
M  V30 35 C 2.050815 -4.948040 -3.981614 0
M  V30 36 C 1.655354 -3.963905 -2.956790 0
M  V30 37 H 0.073546 -3.256747 3.287374 0
M  V30 38 H -1.209176 -3.592036 2.035910 0
M  V30 39 H -0.931430 -1.947852 2.672841 0
M  V30 40 H 1.000001 -0.707243 2.007901 0
M  V30 41 H 3.620553 0.282923 -0.471669 0
M  V30 42 H 1.169018 1.989108 -0.209928 0
M  V30 43 H 0.358889 3.704447 -0.933977 0
M  V30 44 H -0.126766 5.258294 -0.267597 0
M  V30 45 H -2.083789 4.673240 -1.328911 0
M  V30 46 H -1.884137 2.961961 -0.979545 0
M  V30 47 H -4.244182 3.225464 -0.397718 0
M  V30 48 H -4.475175 3.506391 1.360742 0
M  V30 49 H -2.636010 1.397265 0.079512 0
M  V30 50 H -2.747759 1.743086 1.822666 0
M  V30 51 H -5.221692 1.186371 1.700634 0
M  V30 52 H -5.076691 0.891893 -0.048724 0
M  V30 53 H -4.590097 -0.626102 3.193372 0
M  V30 54 H -2.895361 -0.102002 2.783204 0
M  V30 55 H -3.464704 -1.834681 2.581858 0
M  V30 56 H -3.922880 -1.101100 -0.808941 0
M  V30 57 H -2.346138 -0.808428 0.115464 0
M  V30 58 H -3.348543 -2.237484 0.416163 0
M  V30 59 H -2.837704 4.297041 2.610921 0
M  V30 60 H -2.528559 5.784666 1.718268 0
M  V30 61 H -0.657981 4.215822 3.161748 0
M  V30 62 H -0.321205 5.618717 2.136678 0
M  V30 63 H 2.530669 1.976558 4.452521 0
M  V30 64 H 0.872035 -6.359028 -1.386203 0
M  V30 65 H 3.789830 -5.143752 -0.533259 0
M  V30 66 H 4.110994 -4.289828 -2.129358 0
M  V30 67 H 4.341164 -6.730755 -2.355697 0
M  V30 68 H 2.799264 -6.966580 -1.544556 0
M  V30 69 H 1.707919 -7.026668 -3.536009 0
M  V30 70 H 3.237208 -6.668230 -4.315182 0
M  V30 71 H 1.134957 -5.133304 -4.620214 0
M  V30 72 H 2.769527 -4.507997 -4.734518 0
M  V30 73 H 2.146583 -2.992869 -3.175156 0
M  V30 74 H 0.550888 -3.725832 -2.967159 0
M  V30 END ATOM
M  V30 BEGIN BOND
M  V30 1 1 1 2
M  V30 2 1 2 3
M  V30 3 2 3 4
M  V30 4 1 4 5
M  V30 5 1 5 6
M  V30 6 2 6 7
M  V30 7 1 7 8
M  V30 8 1 8 9
M  V30 9 1 9 10
M  V30 10 1 10 11
M  V30 11 1 11 12
M  V30 12 1 12 13
M  V30 13 1 13 14
M  V30 14 1 14 15
M  V30 15 1 15 16
M  V30 16 1 16 17
M  V30 17 1 16 18
M  V30 18 1 12 19
M  V30 19 1 19 20
M  V30 20 2 8 21
M  V30 21 1 21 22
M  V30 22 2 22 23
M  V30 23 1 4 24
M  V30 24 2 24 25
M  V30 25 1 24 26
M  V30 26 1 26 27
M  V30 27 1 27 28
M  V30 28 2 28 29
M  V30 29 1 28 30
M  V30 30 1 30 31
M  V30 31 1 31 32
M  V30 32 1 32 33
M  V30 33 1 33 34
M  V30 34 1 34 35
M  V30 35 1 35 36
M  V30 36 2 27 2
M  V30 37 1 36 31
M  V30 38 1 23 6
M  V30 39 1 31 26
M  V30 40 1 20 9
M  V30 41 1 1 37
M  V30 42 1 1 38
M  V30 43 1 1 39
M  V30 44 1 3 40
M  V30 45 1 5 41
M  V30 46 1 7 42
M  V30 47 1 10 43
M  V30 48 1 10 44
M  V30 49 1 11 45
M  V30 50 1 11 46
M  V30 51 1 13 47
M  V30 52 1 13 48
M  V30 53 1 14 49
M  V30 54 1 14 50
M  V30 55 1 15 51
M  V30 56 1 15 52
M  V30 57 1 17 53
M  V30 58 1 17 54
M  V30 59 1 17 55
M  V30 60 1 18 56
M  V30 61 1 18 57
M  V30 62 1 18 58
M  V30 63 1 19 59
M  V30 64 1 19 60
M  V30 65 1 20 61
M  V30 66 1 20 62
M  V30 67 1 22 63
M  V30 68 1 30 64
M  V30 69 1 32 65
M  V30 70 1 32 66
M  V30 71 1 33 67
M  V30 72 1 33 68
M  V30 73 1 34 69
M  V30 74 1 34 70
M  V30 75 1 35 71
M  V30 76 1 35 72
M  V30 77 1 36 73
M  V30 78 1 36 74
M  V30 END BOND
M  V30 END CTAB
M  END
>  <Dataset>  (299) 
ChEMBL_Kinases

>  <Ligand_Instance>  (299) 
nan

>  <PDB_ID>  (299) 
nan

>  <Standardized_SMILES>  (299) 
Cc1cc(Nc2cc(N3CCN(CCCN(C)C)CC3)ncn2)c(=O)n2c1C(=O)NC21CCCCC1

>  <Name>  (299) 
nan

>  <Pocket>  (299) 
nan

>  <ATP_Site>  (299) 
nan

>  <Peripheral>  (299) 
nan

>  <Num_H_Atoms_ProtBoundConf>  (299) 
nan

>  <Num_Resolved_Atoms>  (299) 
nan

>  <Num_Not_Resolved_Atoms>  (299) 
nan

$$$$
CHEMBL1910200
     RDKit          3D

  0  0  0  0  0  0  0  0  0  0999 V3000
M  V30 BEGIN CTAB
M  V30 COUNTS 41 44 0 0 0
M  V30 BEGIN ATOM
M  V30 1 C 3.139181 -6.985782 0.293332 0
M  V30 2 S 3.920301 -5.545971 -0.426576 0
M  V30 3 O 4.524251 -5.953560 -1.736007 0
M  V30 4 O 5.001488 -5.024853 0.447283 0
M  V30 5 C 2.773128 -4.281874 -0.735808 0
M  V30 6 C 2.532840 -3.351129 0.259494 0
M  V30 7 C 1.643558 -2.302311 0.129396 0
M  V30 8 C 0.957817 -2.171624 -1.050284 0
M  V30 9 C 0.024922 -1.056776 -1.163546 0
M  V30 10 C -0.747311 -0.769720 -2.269322 0
M  V30 11 N -1.591085 0.275817 -2.312557 0
M  V30 12 C -1.705189 1.097127 -1.236148 0
M  V30 13 C -0.948469 0.841487 -0.111761 0
M  V30 14 C -1.054279 1.711541 1.059040 0
M  V30 15 C -0.342108 1.541286 2.229239 0
M  V30 16 C -0.725120 2.561083 3.077435 0
M  V30 17 C -0.414015 2.981264 4.375885 0
M  V30 18 C -1.008094 4.091353 4.940702 0
M  V30 19 C -1.935461 4.828909 4.238021 0
M  V30 20 O -2.522204 5.947453 4.831145 0
M  V30 21 C -2.286652 4.468372 2.953392 0
M  V30 22 C -1.661172 3.347297 2.434644 0
M  V30 23 N -1.832818 2.798529 1.213767 0
M  V30 24 N -0.117293 -0.220518 -0.120220 0
M  V30 25 C 1.160111 -3.072336 -2.074652 0
M  V30 26 C 2.056580 -4.115355 -1.920785 0
M  V30 27 H 2.893692 -6.799936 1.368131 0
M  V30 28 H 3.867229 -7.822884 0.250696 0
M  V30 29 H 2.202786 -7.203228 -0.258638 0
M  V30 30 H 3.059153 -3.434712 1.191538 0
M  V30 31 H 1.509191 -1.605466 0.966716 0
M  V30 32 H -0.656964 -1.421057 -3.123254 0
M  V30 33 H -2.364243 1.950120 -1.212055 0
M  V30 34 H 0.398210 0.775752 2.508845 0
M  V30 35 H 0.325438 2.383531 4.920853 0
M  V30 36 H -0.694363 4.324406 5.946582 0
M  V30 37 H -3.241322 5.808175 5.544386 0
M  V30 38 H -3.008151 5.017045 2.366665 0
M  V30 39 H -2.464743 3.124756 0.454217 0
M  V30 40 H 0.637321 -2.987756 -2.997976 0
M  V30 41 H 2.246692 -4.844506 -2.696730 0
M  V30 END ATOM
M  V30 BEGIN BOND
M  V30 1 1 1 2
M  V30 2 2 2 3
M  V30 3 2 2 4
M  V30 4 1 2 5
M  V30 5 2 5 6
M  V30 6 1 6 7
M  V30 7 2 7 8
M  V30 8 1 8 9
M  V30 9 2 9 10
M  V30 10 1 10 11
M  V30 11 2 11 12
M  V30 12 1 12 13
M  V30 13 1 13 14
M  V30 14 2 14 15
M  V30 15 1 15 16
M  V30 16 2 16 17
M  V30 17 1 17 18
M  V30 18 2 18 19
M  V30 19 1 19 20
M  V30 20 1 19 21
M  V30 21 2 21 22
M  V30 22 1 22 23
M  V30 23 2 13 24
M  V30 24 1 8 25
M  V30 25 2 25 26
M  V30 26 1 26 5
M  V30 27 1 24 9
M  V30 28 1 23 14
M  V30 29 1 22 16
M  V30 30 1 1 27
M  V30 31 1 1 28
M  V30 32 1 1 29
M  V30 33 1 6 30
M  V30 34 1 7 31
M  V30 35 1 10 32
M  V30 36 1 12 33
M  V30 37 1 15 34
M  V30 38 1 17 35
M  V30 39 1 18 36
M  V30 40 1 20 37
M  V30 41 1 21 38
M  V30 42 1 23 39
M  V30 43 1 25 40
M  V30 44 1 26 41
M  V30 END BOND
M  V30 END CTAB
M  END
>  <Dataset>  (300) 
ChEMBL_Kinases

>  <Ligand_Instance>  (300) 
nan

>  <PDB_ID>  (300) 
nan

>  <Standardized_SMILES>  (300) 
CS(=O)(=O)c1ccc(-c2cncc(-c3cc4ccc(O)cc4[nH]3)n2)cc1

>  <Name>  (300) 
nan

>  <Pocket>  (300) 
nan

>  <ATP_Site>  (300) 
nan

>  <Peripheral>  (300) 
nan

>  <Num_H_Atoms_ProtBoundConf>  (300) 
nan

>  <Num_Resolved_Atoms>  (300) 
nan

>  <Num_Not_Resolved_Atoms>  (300) 
nan

$$$$
CHEMBL1910199
     RDKit          3D

  0  0  0  0  0  0  0  0  0  0999 V3000
M  V30 BEGIN CTAB
M  V30 COUNTS 36 39 0 0 0
M  V30 BEGIN ATOM
M  V30 1 N 2.709449 -8.043130 1.360650 0
M  V30 2 C 2.621539 -6.891343 1.359564 0
M  V30 3 C 2.518494 -5.457158 1.381552 0
M  V30 4 C 1.425078 -4.769404 0.858040 0
M  V30 5 C 1.383944 -3.370769 0.909882 0
M  V30 6 C 2.441888 -2.693190 1.486387 0
M  V30 7 C 2.338254 -1.233946 1.509466 0
M  V30 8 C 3.302983 -0.404991 2.046197 0
M  V30 9 N 3.167581 0.934602 2.046815 0
M  V30 10 C 2.067681 1.505594 1.513981 0
M  V30 11 C 1.085700 0.702578 0.969777 0
M  V30 12 C -0.127695 1.267842 0.378552 0
M  V30 13 C -0.401147 2.618036 0.309096 0
M  V30 14 C -1.629310 2.689874 -0.315453 0
M  V30 15 C -2.453409 3.733451 -0.682606 0
M  V30 16 C -3.668968 3.568919 -1.313041 0
M  V30 17 C -4.089902 2.270399 -1.596117 0
M  V30 18 O -5.284571 1.931147 -2.224989 0
M  V30 19 C -3.258096 1.223554 -1.225199 0
M  V30 20 C -2.037991 1.383686 -0.592666 0
M  V30 21 N -1.104018 0.514154 -0.160227 0
M  V30 22 N 1.267600 -0.638772 0.992850 0
M  V30 23 C 3.496748 -3.390765 1.989650 0
M  V30 24 C 3.587957 -4.767832 1.964555 0
M  V30 25 H 0.613022 -5.336771 0.413095 0
M  V30 26 H 0.493039 -2.895760 0.478882 0
M  V30 27 H 4.183994 -0.838315 2.474260 0
M  V30 28 H 1.894736 2.590573 1.482135 0
M  V30 29 H 0.145465 3.471291 0.633248 0
M  V30 30 H -2.164184 4.773844 -0.480354 0
M  V30 31 H -4.324541 4.363906 -1.606967 0
M  V30 32 H -6.084358 1.557710 -1.729473 0
M  V30 33 H -3.536151 0.176680 -1.422043 0
M  V30 34 H -1.134267 -0.527001 -0.230019 0
M  V30 35 H 4.315432 -2.872742 2.435438 0
M  V30 36 H 4.451691 -5.272825 2.380069 0
M  V30 END ATOM
M  V30 BEGIN BOND
M  V30 1 3 1 2
M  V30 2 1 2 3
M  V30 3 2 3 4
M  V30 4 1 4 5
M  V30 5 2 5 6
M  V30 6 1 6 7
M  V30 7 2 7 8
M  V30 8 1 8 9
M  V30 9 2 9 10
M  V30 10 1 10 11
M  V30 11 1 11 12
M  V30 12 2 12 13
M  V30 13 1 13 14
M  V30 14 2 14 15
M  V30 15 1 15 16
M  V30 16 2 16 17
M  V30 17 1 17 18
M  V30 18 1 17 19
M  V30 19 2 19 20
M  V30 20 1 20 21
M  V30 21 2 11 22
M  V30 22 1 6 23
M  V30 23 2 23 24
M  V30 24 1 24 3
M  V30 25 1 22 7
M  V30 26 1 21 12
M  V30 27 1 20 14
M  V30 28 1 4 25
M  V30 29 1 5 26
M  V30 30 1 8 27
M  V30 31 1 10 28
M  V30 32 1 13 29
M  V30 33 1 15 30
M  V30 34 1 16 31
M  V30 35 1 18 32
M  V30 36 1 19 33
M  V30 37 1 21 34
M  V30 38 1 23 35
M  V30 39 1 24 36
M  V30 END BOND
M  V30 END CTAB
M  END
>  <Dataset>  (301) 
ChEMBL_Kinases

>  <Ligand_Instance>  (301) 
nan

>  <PDB_ID>  (301) 
nan

>  <Standardized_SMILES>  (301) 
N#Cc1ccc(-c2cncc(-c3cc4ccc(O)cc4[nH]3)n2)cc1

>  <Name>  (301) 
nan

>  <Pocket>  (301) 
nan

>  <ATP_Site>  (301) 
nan

>  <Peripheral>  (301) 
nan

>  <Num_H_Atoms_ProtBoundConf>  (301) 
nan

>  <Num_Resolved_Atoms>  (301) 
nan

>  <Num_Not_Resolved_Atoms>  (301) 
nan

$$$$
CHEMBL1910198
     RDKit          3D

  0  0  0  0  0  0  0  0  0  0999 V3000
M  V30 BEGIN CTAB
M  V30 COUNTS 36 39 0 0 0
M  V30 BEGIN ATOM
M  V30 1 O 1.291490 -6.419040 3.531066 0
M  V30 2 C 1.630153 -5.294429 2.816584 0
M  V30 3 C 0.637115 -4.375411 2.542602 0
M  V30 4 C 0.942758 -3.224015 1.821129 0
M  V30 5 C 2.194006 -2.936830 1.354424 0
M  V30 6 C 2.392191 -1.698897 0.610569 0
M  V30 7 C 3.591519 -1.290635 0.088526 0
M  V30 8 N 3.704323 -0.133051 -0.589338 0
M  V30 9 C 2.638387 0.684203 -0.788351 0
M  V30 10 C 1.443605 0.261287 -0.259185 0
M  V30 11 C 0.241054 1.072483 -0.421460 0
M  V30 12 C 0.136978 2.284307 -1.076850 0
M  V30 13 C -1.181714 2.687137 -0.981353 0
M  V30 14 C -1.907474 3.794280 -1.426221 0
M  V30 15 C -3.269321 3.899702 -1.153110 0
M  V30 16 C -3.931253 2.920015 -0.441201 0
M  V30 17 O -5.297833 3.065652 -0.189526 0
M  V30 18 C -3.251845 1.796558 0.024143 0
M  V30 19 C -1.894830 1.740205 -0.275357 0
M  V30 20 N -0.986925 0.777630 0.043849 0
M  V30 21 N 1.321566 -0.907442 0.427195 0
M  V30 22 C 3.171506 -3.842426 1.624658 0
M  V30 23 C 2.897678 -5.009217 2.347015 0
M  V30 24 H 1.876482 -6.858613 4.200531 0
M  V30 25 H -0.381212 -4.559894 2.894763 0
M  V30 26 H 0.090840 -2.558601 1.655186 0
M  V30 27 H 4.461911 -1.918541 0.228882 0
M  V30 28 H 2.739844 1.613276 -1.335072 0
M  V30 29 H 0.918162 2.836102 -1.577471 0
M  V30 30 H -1.399092 4.559723 -1.980298 0
M  V30 31 H -3.815510 4.778608 -1.513581 0
M  V30 32 H -5.679663 2.558459 0.601876 0
M  V30 33 H -3.738569 1.028937 0.574160 0
M  V30 34 H -1.219723 -0.086608 0.586171 0
M  V30 35 H 4.181991 -3.650328 1.270131 0
M  V30 36 H 3.665069 -5.721458 2.559897 0
M  V30 END ATOM
M  V30 BEGIN BOND
M  V30 1 1 1 2
M  V30 2 2 2 3
M  V30 3 1 3 4
M  V30 4 2 4 5
M  V30 5 1 5 6
M  V30 6 2 6 7
M  V30 7 1 7 8
M  V30 8 2 8 9
M  V30 9 1 9 10
M  V30 10 1 10 11
M  V30 11 2 11 12
M  V30 12 1 12 13
M  V30 13 2 13 14
M  V30 14 1 14 15
M  V30 15 2 15 16
M  V30 16 1 16 17
M  V30 17 1 16 18
M  V30 18 2 18 19
M  V30 19 1 19 20
M  V30 20 2 10 21
M  V30 21 1 5 22
M  V30 22 2 22 23
M  V30 23 1 23 2
M  V30 24 1 21 6
M  V30 25 1 20 11
M  V30 26 1 19 13
M  V30 27 1 1 24
M  V30 28 1 3 25
M  V30 29 1 4 26
M  V30 30 1 7 27
M  V30 31 1 9 28
M  V30 32 1 12 29
M  V30 33 1 14 30
M  V30 34 1 15 31
M  V30 35 1 17 32
M  V30 36 1 18 33
M  V30 37 1 20 34
M  V30 38 1 22 35
M  V30 39 1 23 36
M  V30 END BOND
M  V30 END CTAB
M  END
>  <Dataset>  (302) 
ChEMBL_Kinases

>  <Ligand_Instance>  (302) 
nan

>  <PDB_ID>  (302) 
nan

>  <Standardized_SMILES>  (302) 
Oc1ccc(-c2cncc(-c3cc4ccc(O)cc4[nH]3)n2)cc1

>  <Name>  (302) 
nan

>  <Pocket>  (302) 
nan

>  <ATP_Site>  (302) 
nan

>  <Peripheral>  (302) 
nan

>  <Num_H_Atoms_ProtBoundConf>  (302) 
nan

>  <Num_Resolved_Atoms>  (302) 
nan

>  <Num_Not_Resolved_Atoms>  (302) 
nan

$$$$
CHEMBL1910197
     RDKit          3D

  0  0  0  0  0  0  0  0  0  0999 V3000
M  V30 BEGIN CTAB
M  V30 COUNTS 42 45 0 0 0
M  V30 BEGIN ATOM
M  V30 1 C 3.729410 -6.614391 0.567997 0
M  V30 2 S 4.309901 -5.470775 -0.660417 0
M  V30 3 O 4.530226 -6.237232 -1.919462 0
M  V30 4 O 5.582897 -4.813738 -0.233923 0
M  V30 5 C 3.126305 -4.205265 -0.938761 0
M  V30 6 C 2.130981 -4.261781 -1.888324 0
M  V30 7 C 1.238251 -3.203657 -2.029624 0
M  V30 8 C 1.350670 -2.075406 -1.203913 0
M  V30 9 C 0.427453 -0.947328 -1.331005 0
M  V30 10 C -0.164952 -0.530088 -2.505228 0
M  V30 11 N -1.007701 0.510756 -2.570093 0
M  V30 12 C -1.311472 1.208137 -1.436556 0
M  V30 13 C -0.743884 0.830416 -0.231549 0
M  V30 14 C -1.082942 1.591513 0.975423 0
M  V30 15 C -0.598384 1.321699 2.240887 0
M  V30 16 C -1.190655 2.287160 3.031178 0
M  V30 17 C -1.029730 2.456093 4.403257 0
M  V30 18 C -1.717985 3.490795 5.001667 0
M  V30 19 C -2.535249 4.330297 4.278904 0
M  V30 20 O -3.251425 5.389509 4.836379 0
M  V30 21 C -2.696398 4.160461 2.902503 0
M  V30 22 C -2.002590 3.112391 2.281977 0
M  V30 23 N -1.910593 2.651536 1.015301 0
M  V30 24 C 0.113575 -0.230000 -0.171434 0
M  V30 25 C 2.339398 -1.994942 -0.245287 0
M  V30 26 C 3.199609 -3.082878 -0.152829 0
M  V30 27 H 3.779192 -6.163314 1.594476 0
M  V30 28 H 4.409265 -7.482164 0.575706 0
M  V30 29 H 2.708736 -6.972647 0.345050 0
M  V30 30 H 2.076866 -5.149479 -2.504982 0
M  V30 31 H 0.452577 -3.238823 -2.773605 0
M  V30 32 H 0.120216 -1.126588 -3.359978 0
M  V30 33 H -1.982983 2.037761 -1.489864 0
M  V30 34 H 0.090048 0.518958 2.496934 0
M  V30 35 H -0.403946 1.833177 5.027698 0
M  V30 36 H -1.686700 3.737862 6.060914 0
M  V30 37 H -3.726349 5.244618 5.731153 0
M  V30 38 H -3.318543 4.770874 2.249021 0
M  V30 39 H -2.442421 3.116189 0.245116 0
M  V30 40 H 0.539522 -0.500577 0.780212 0
M  V30 41 H 2.448741 -1.122375 0.413467 0
M  V30 42 H 3.965954 -2.969300 0.623327 0
M  V30 END ATOM
M  V30 BEGIN BOND
M  V30 1 1 1 2
M  V30 2 2 2 3
M  V30 3 2 2 4
M  V30 4 1 2 5
M  V30 5 2 5 6
M  V30 6 1 6 7
M  V30 7 2 7 8
M  V30 8 1 8 9
M  V30 9 2 9 10
M  V30 10 1 10 11
M  V30 11 2 11 12
M  V30 12 1 12 13
M  V30 13 1 13 14
M  V30 14 2 14 15
M  V30 15 1 15 16
M  V30 16 2 16 17
M  V30 17 1 17 18
M  V30 18 2 18 19
M  V30 19 1 19 20
M  V30 20 1 19 21
M  V30 21 2 21 22
M  V30 22 1 22 23
M  V30 23 2 13 24
M  V30 24 1 8 25
M  V30 25 2 25 26
M  V30 26 1 26 5
M  V30 27 1 24 9
M  V30 28 1 23 14
M  V30 29 1 22 16
M  V30 30 1 1 27
M  V30 31 1 1 28
M  V30 32 1 1 29
M  V30 33 1 6 30
M  V30 34 1 7 31
M  V30 35 1 10 32
M  V30 36 1 12 33
M  V30 37 1 15 34
M  V30 38 1 17 35
M  V30 39 1 18 36
M  V30 40 1 20 37
M  V30 41 1 21 38
M  V30 42 1 23 39
M  V30 43 1 24 40
M  V30 44 1 25 41
M  V30 45 1 26 42
M  V30 END BOND
M  V30 END CTAB
M  END
>  <Dataset>  (303) 
ChEMBL_Kinases

>  <Ligand_Instance>  (303) 
nan

>  <PDB_ID>  (303) 
nan

>  <Standardized_SMILES>  (303) 
CS(=O)(=O)c1ccc(-c2cncc(-c3cc4ccc(O)cc4[nH]3)c2)cc1

>  <Name>  (303) 
nan

>  <Pocket>  (303) 
nan

>  <ATP_Site>  (303) 
nan

>  <Peripheral>  (303) 
nan

>  <Num_H_Atoms_ProtBoundConf>  (303) 
nan

>  <Num_Resolved_Atoms>  (303) 
nan

>  <Num_Not_Resolved_Atoms>  (303) 
nan

$$$$
CHEMBL1910196
     RDKit          3D

  0  0  0  0  0  0  0  0  0  0999 V3000
M  V30 BEGIN CTAB
M  V30 COUNTS 37 40 0 0 0
M  V30 BEGIN ATOM
M  V30 1 N 2.687782 -7.090943 4.522338 0
M  V30 2 C 2.692944 -6.071104 3.986654 0
M  V30 3 C 2.692034 -4.777915 3.334056 0
M  V30 4 C 1.530139 -4.006686 3.304281 0
M  V30 5 C 1.532467 -2.778080 2.683430 0
M  V30 6 C 2.680155 -2.262345 2.068001 0
M  V30 7 C 2.578898 -0.950841 1.436429 0
M  V30 8 C 3.619376 -0.031649 1.336667 0
M  V30 9 N 3.478893 1.166554 0.743763 0
M  V30 10 C 2.292919 1.558656 0.197180 0
M  V30 11 C 1.191274 0.703720 0.248523 0
M  V30 12 C -0.123586 1.022345 -0.303725 0
M  V30 13 C -0.487115 2.186846 -0.942742 0
M  V30 14 C -1.833172 2.079572 -1.311442 0
M  V30 15 C -2.671913 2.976267 -1.977047 0
M  V30 16 C -3.978720 2.533816 -2.182624 0
M  V30 17 C -4.443026 1.305181 -1.771214 0
M  V30 18 O -5.755759 0.943846 -2.015231 0
M  V30 19 C -3.533551 0.496224 -1.123209 0
M  V30 20 C -2.218866 0.832591 -0.867366 0
M  V30 21 N -1.209605 0.202882 -0.269899 0
M  V30 22 C 1.403922 -0.508379 0.870043 0
M  V30 23 C 3.815249 -3.032499 2.105560 0
M  V30 24 C 3.814231 -4.274128 2.732565 0
M  V30 25 H 0.602496 -4.365493 3.772553 0
M  V30 26 H 0.587834 -2.215170 2.691866 0
M  V30 27 H 4.584193 -0.329984 1.771746 0
M  V30 28 H 2.148953 2.525461 -0.290612 0
M  V30 29 H 0.196168 2.998923 -1.097918 0
M  V30 30 H -2.312080 3.942693 -2.302016 0
M  V30 31 H -4.668777 3.205035 -2.700182 0
M  V30 32 H -6.126385 0.025225 -1.879105 0
M  V30 33 H -3.863550 -0.489827 -0.779938 0
M  V30 34 H -1.289889 -0.766914 0.143700 0
M  V30 35 H 0.552172 -1.180639 0.914969 0
M  V30 36 H 4.711776 -2.643464 1.631782 0
M  V30 37 H 4.719766 -4.886201 2.761136 0
M  V30 END ATOM
M  V30 BEGIN BOND
M  V30 1 3 1 2
M  V30 2 1 2 3
M  V30 3 2 3 4
M  V30 4 1 4 5
M  V30 5 2 5 6
M  V30 6 1 6 7
M  V30 7 2 7 8
M  V30 8 1 8 9
M  V30 9 2 9 10
M  V30 10 1 10 11
M  V30 11 1 11 12
M  V30 12 2 12 13
M  V30 13 1 13 14
M  V30 14 2 14 15
M  V30 15 1 15 16
M  V30 16 2 16 17
M  V30 17 1 17 18
M  V30 18 1 17 19
M  V30 19 2 19 20
M  V30 20 1 20 21
M  V30 21 2 11 22
M  V30 22 1 6 23
M  V30 23 2 23 24
M  V30 24 1 24 3
M  V30 25 1 22 7
M  V30 26 1 21 12
M  V30 27 1 20 14
M  V30 28 1 4 25
M  V30 29 1 5 26
M  V30 30 1 8 27
M  V30 31 1 10 28
M  V30 32 1 13 29
M  V30 33 1 15 30
M  V30 34 1 16 31
M  V30 35 1 18 32
M  V30 36 1 19 33
M  V30 37 1 21 34
M  V30 38 1 22 35
M  V30 39 1 23 36
M  V30 40 1 24 37
M  V30 END BOND
M  V30 END CTAB
M  END
>  <Dataset>  (304) 
ChEMBL_Kinases

>  <Ligand_Instance>  (304) 
nan

>  <PDB_ID>  (304) 
nan

>  <Standardized_SMILES>  (304) 
N#Cc1ccc(-c2cncc(-c3cc4ccc(O)cc4[nH]3)c2)cc1

>  <Name>  (304) 
nan

>  <Pocket>  (304) 
nan

>  <ATP_Site>  (304) 
nan

>  <Peripheral>  (304) 
nan

>  <Num_H_Atoms_ProtBoundConf>  (304) 
nan

>  <Num_Resolved_Atoms>  (304) 
nan

>  <Num_Not_Resolved_Atoms>  (304) 
nan

$$$$
CHEMBL1910195
     RDKit          3D

  0  0  0  0  0  0  0  0  0  0999 V3000
M  V30 BEGIN CTAB
M  V30 COUNTS 37 40 0 0 0
M  V30 BEGIN ATOM
M  V30 1 O 1.339974 -6.852981 3.361884 0
M  V30 2 C 1.552501 -5.627859 2.700733 0
M  V30 3 C 0.515140 -5.147607 1.929249 0
M  V30 4 C 0.707385 -3.948782 1.275577 0
M  V30 5 C 1.906619 -3.260683 1.398275 0
M  V30 6 C 2.269809 -1.989980 0.782325 0
M  V30 7 C 3.551141 -1.607823 0.394274 0
M  V30 8 N 3.743465 -0.400346 -0.161163 0
M  V30 9 C 2.740088 0.472428 -0.363823 0
M  V30 10 C 1.438192 0.131353 0.010089 0
M  V30 11 C 0.270977 1.017124 -0.168193 0
M  V30 12 C 0.419133 2.264109 -0.735213 0
M  V30 13 C -0.848109 2.806921 -0.746388 0
M  V30 14 C -1.382476 4.021015 -1.178717 0
M  V30 15 C -2.733510 4.232183 -1.031317 0
M  V30 16 C -3.627790 3.328820 -0.481093 0
M  V30 17 O -4.979083 3.560004 -0.342160 0
M  V30 18 C -3.083361 2.112601 -0.049756 0
M  V30 19 C -1.728143 1.901627 -0.197991 0
M  V30 20 N -1.022259 0.791083 0.158780 0
M  V30 21 C 1.199090 -1.117021 0.591226 0
M  V30 22 C 2.926277 -3.766171 2.177009 0
M  V30 23 C 2.755764 -4.980145 2.850067 0
M  V30 24 H 0.810677 -6.788606 4.245926 0
M  V30 25 H -0.442770 -5.624666 1.786171 0
M  V30 26 H -0.009091 -3.428652 0.626214 0
M  V30 27 H 4.316031 -2.335891 0.575890 0
M  V30 28 H 2.857883 1.450281 -0.806708 0
M  V30 29 H 1.278986 2.797116 -1.118520 0
M  V30 30 H -0.754960 4.762827 -1.611594 0
M  V30 31 H -3.231594 5.152970 -1.342359 0
M  V30 32 H -5.660504 2.948994 -0.779232 0
M  V30 33 H -3.733037 1.360066 0.391734 0
M  V30 34 H -1.380388 -0.083422 0.601453 0
M  V30 35 H 0.182013 -1.371138 0.877956 0
M  V30 36 H 3.895154 -3.314887 2.341048 0
M  V30 37 H 3.538421 -5.421285 3.481315 0
M  V30 END ATOM
M  V30 BEGIN BOND
M  V30 1 1 1 2
M  V30 2 2 2 3
M  V30 3 1 3 4
M  V30 4 2 4 5
M  V30 5 1 5 6
M  V30 6 2 6 7
M  V30 7 1 7 8
M  V30 8 2 8 9
M  V30 9 1 9 10
M  V30 10 1 10 11
M  V30 11 2 11 12
M  V30 12 1 12 13
M  V30 13 2 13 14
M  V30 14 1 14 15
M  V30 15 2 15 16
M  V30 16 1 16 17
M  V30 17 1 16 18
M  V30 18 2 18 19
M  V30 19 1 19 20
M  V30 20 2 10 21
M  V30 21 1 5 22
M  V30 22 2 22 23
M  V30 23 1 23 2
M  V30 24 1 21 6
M  V30 25 1 20 11
M  V30 26 1 19 13
M  V30 27 1 1 24
M  V30 28 1 3 25
M  V30 29 1 4 26
M  V30 30 1 7 27
M  V30 31 1 9 28
M  V30 32 1 12 29
M  V30 33 1 14 30
M  V30 34 1 15 31
M  V30 35 1 17 32
M  V30 36 1 18 33
M  V30 37 1 20 34
M  V30 38 1 21 35
M  V30 39 1 22 36
M  V30 40 1 23 37
M  V30 END BOND
M  V30 END CTAB
M  END
>  <Dataset>  (305) 
ChEMBL_Kinases

>  <Ligand_Instance>  (305) 
nan

>  <PDB_ID>  (305) 
nan

>  <Standardized_SMILES>  (305) 
Oc1ccc(-c2cncc(-c3cc4ccc(O)cc4[nH]3)c2)cc1

>  <Name>  (305) 
nan

>  <Pocket>  (305) 
nan

>  <ATP_Site>  (305) 
nan

>  <Peripheral>  (305) 
nan

>  <Num_H_Atoms_ProtBoundConf>  (305) 
nan

>  <Num_Resolved_Atoms>  (305) 
nan

>  <Num_Not_Resolved_Atoms>  (305) 
nan

$$$$
CHEMBL1910192
     RDKit          3D

  0  0  0  0  0  0  0  0  0  0999 V3000
M  V30 BEGIN CTAB
M  V30 COUNTS 36 39 0 0 0
M  V30 BEGIN ATOM
M  V30 1 O 1.695964 -6.959215 2.384258 0
M  V30 2 C 1.806113 -5.691711 1.826361 0
M  V30 3 C 0.833198 -4.717234 1.868765 0
M  V30 4 C 1.006888 -3.480800 1.295023 0
M  V30 5 C 2.186282 -3.176073 0.647092 0
M  V30 6 C 2.294470 -1.842182 0.063405 0
M  V30 7 C 3.405211 -1.384533 -0.615285 0
M  V30 8 N 3.435516 -0.139770 -1.128468 0
M  V30 9 C 2.375402 0.705355 -0.995304 0
M  V30 10 C 1.257830 0.263626 -0.319962 0
M  V30 11 C 0.078700 1.111043 -0.134720 0
M  V30 12 C -0.030236 2.403964 -0.605187 0
M  V30 13 C -1.291201 2.786320 -0.196806 0
M  V30 14 C -2.039096 3.937446 -0.325650 0
M  V30 15 C -3.312645 4.084189 0.182910 0
M  V30 16 O -4.065358 5.232592 0.057306 0
M  V30 17 C -3.866257 3.021356 0.856236 0
M  V30 18 C -3.170281 1.819497 1.028582 0
M  V30 19 C -1.895013 1.751559 0.487620 0
M  V30 20 N -1.022721 0.701540 0.520442 0
M  V30 21 N 1.262828 -0.986956 0.179825 0
M  V30 22 C 3.157040 -4.117362 0.592326 0
M  V30 23 C 2.981767 -5.375988 1.175684 0
M  V30 24 H 1.492718 -7.126781 3.365580 0
M  V30 25 H -0.074316 -5.014218 2.392425 0
M  V30 26 H 0.172699 -2.782101 1.386306 0
M  V30 27 H 4.255468 -2.044023 -0.729449 0
M  V30 28 H 2.394867 1.704826 -1.405184 0
M  V30 29 H 0.663411 2.992975 -1.150704 0
M  V30 30 H -1.641749 4.788498 -0.844330 0
M  V30 31 H -4.381928 5.681051 0.905418 0
M  V30 32 H -4.852353 3.022978 1.294969 0
M  V30 33 H -3.579604 0.962364 1.555048 0
M  V30 34 H -1.180953 -0.229648 0.964743 0
M  V30 35 H 4.087456 -3.901909 0.091192 0
M  V30 36 H 3.773549 -6.127546 1.124515 0
M  V30 END ATOM
M  V30 BEGIN BOND
M  V30 1 1 1 2
M  V30 2 2 2 3
M  V30 3 1 3 4
M  V30 4 2 4 5
M  V30 5 1 5 6
M  V30 6 2 6 7
M  V30 7 1 7 8
M  V30 8 2 8 9
M  V30 9 1 9 10
M  V30 10 1 10 11
M  V30 11 2 11 12
M  V30 12 1 12 13
M  V30 13 2 13 14
M  V30 14 1 14 15
M  V30 15 1 15 16
M  V30 16 2 15 17
M  V30 17 1 17 18
M  V30 18 2 18 19
M  V30 19 1 19 20
M  V30 20 2 10 21
M  V30 21 1 5 22
M  V30 22 2 22 23
M  V30 23 1 23 2
M  V30 24 1 21 6
M  V30 25 1 20 11
M  V30 26 1 19 13
M  V30 27 1 1 24
M  V30 28 1 3 25
M  V30 29 1 4 26
M  V30 30 1 7 27
M  V30 31 1 9 28
M  V30 32 1 12 29
M  V30 33 1 14 30
M  V30 34 1 16 31
M  V30 35 1 17 32
M  V30 36 1 18 33
M  V30 37 1 20 34
M  V30 38 1 22 35
M  V30 39 1 23 36
M  V30 END BOND
M  V30 END CTAB
M  END
>  <Dataset>  (306) 
ChEMBL_Kinases

>  <Ligand_Instance>  (306) 
nan

>  <PDB_ID>  (306) 
nan

>  <Standardized_SMILES>  (306) 
Oc1ccc(-c2cncc(-c3cc4cc(O)ccc4[nH]3)n2)cc1

>  <Name>  (306) 
nan

>  <Pocket>  (306) 
nan

>  <ATP_Site>  (306) 
nan

>  <Peripheral>  (306) 
nan

>  <Num_H_Atoms_ProtBoundConf>  (306) 
nan

>  <Num_Resolved_Atoms>  (306) 
nan

>  <Num_Not_Resolved_Atoms>  (306) 
nan

$$$$
CHEMBL186290
     RDKit          3D

  0  0  0  0  0  0  0  0  0  0999 V3000
M  V30 BEGIN CTAB
M  V30 COUNTS 66 72 0 0 0
M  V30 BEGIN ATOM
M  V30 1 C 4.463331 -1.806330 0.382065 0
M  V30 2 C 2.989777 -2.007227 0.566418 0
M  V30 3 C 2.548400 -2.161848 1.878240 0
M  V30 4 C 1.180882 -2.341371 1.945360 0
M  V30 5 C 0.326533 -2.368084 0.833893 0
M  V30 6 C 0.786860 -2.212751 -0.458259 0
M  V30 7 C 2.152343 -2.032552 -0.526055 0
M  V30 8 C -0.293858 -2.276455 -1.349290 0
M  V30 9 C -0.071381 -2.159600 -2.772191 0
M  V30 10 C -0.604004 -1.393452 -3.744139 0
M  V30 11 C -1.618699 -0.366632 -3.794849 0
M  V30 12 C -1.318539 0.920344 -4.269789 0
M  V30 13 N -2.419151 1.709777 -4.248097 0
M  V30 14 C -3.423848 0.965045 -3.771982 0
M  V30 15 C -4.757035 1.226032 -3.543275 0
M  V30 16 C -5.633397 0.270861 -3.049580 0
M  V30 17 C -5.058166 -0.966898 -2.805839 0
M  V30 18 C -3.727738 -1.214943 -3.037442 0
M  V30 19 N -2.925301 -0.252834 -3.514274 0
M  V30 20 C 0.035182 -1.763007 -5.024140 0
M  V30 21 O -0.162140 -1.294554 -6.197724 0
M  V30 22 N 0.998937 -2.801424 -4.822856 0
M  V30 23 C 0.921645 -3.035761 -3.431467 0
M  V30 24 O 1.682364 -3.935983 -2.932326 0
M  V30 25 C -1.346801 -2.471502 -0.491404 0
M  V30 26 N -1.006333 -2.529563 0.801557 0
M  V30 27 C -1.966424 -2.738601 1.858357 0
M  V30 28 C -1.813240 -1.876494 3.060250 0
M  V30 29 N -0.448586 -1.557512 3.418410 0
M  V30 30 C -0.255831 -0.224133 3.834638 0
M  V30 31 O -1.355274 0.385976 3.804422 0
M  V30 32 N 0.614014 0.785667 4.284278 0
M  V30 33 C 0.066744 2.094952 4.556911 0
M  V30 34 C 0.719602 3.162721 3.703104 0
M  V30 35 C 2.217653 3.001936 3.678858 0
M  V30 36 C 2.634115 2.045269 4.745053 0
M  V30 37 C 2.042030 0.672930 4.509235 0
M  V30 38 C 0.698793 -2.488103 3.371575 0
M  V30 39 H 4.924141 -1.321107 1.268793 0
M  V30 40 H 4.699413 -1.268925 -0.551138 0
M  V30 41 H 4.960135 -2.808735 0.301364 0
M  V30 42 H 3.146625 -2.151050 2.760477 0
M  V30 43 H 2.625889 -1.887993 -1.482930 0
M  V30 44 H -0.379519 1.328328 -4.625760 0
M  V30 45 H -5.168126 2.225927 -3.753257 0
M  V30 46 H -6.675331 0.494687 -2.877247 0
M  V30 47 H -5.747793 -1.718479 -2.418284 0
M  V30 48 H -3.356136 -2.206511 -2.844062 0
M  V30 49 H 1.594389 -3.251826 -5.547570 0
M  V30 50 H -2.354841 -2.572437 -0.824734 0
M  V30 51 H -1.896333 -3.805736 2.221917 0
M  V30 52 H -3.015951 -2.642585 1.483397 0
M  V30 53 H -2.353210 -2.346579 3.913726 0
M  V30 54 H -2.363725 -0.915698 2.853217 0
M  V30 55 H 0.264294 2.318195 5.646165 0
M  V30 56 H -1.011916 2.139041 4.431607 0
M  V30 57 H 0.259126 3.200866 2.700931 0
M  V30 58 H 0.498314 4.137302 4.192105 0
M  V30 59 H 2.569016 2.700196 2.668699 0
M  V30 60 H 2.733394 3.979438 3.903539 0
M  V30 61 H 2.298864 2.425731 5.722152 0
M  V30 62 H 3.737931 1.941465 4.675676 0
M  V30 63 H 2.593598 0.243394 3.656577 0
M  V30 64 H 2.262903 0.008333 5.380410 0
M  V30 65 H 1.475163 -2.255118 4.088088 0
M  V30 66 H 0.363006 -3.528316 3.525733 0
M  V30 END ATOM
M  V30 BEGIN BOND
M  V30 1 1 1 2
M  V30 2 2 2 3
M  V30 3 1 3 4
M  V30 4 2 4 5
M  V30 5 1 5 6
M  V30 6 2 6 7
M  V30 7 1 6 8
M  V30 8 1 8 9
M  V30 9 2 9 10
M  V30 10 1 10 11
M  V30 11 2 11 12
M  V30 12 1 12 13
M  V30 13 2 13 14
M  V30 14 1 14 15
M  V30 15 2 15 16
M  V30 16 1 16 17
M  V30 17 2 17 18
M  V30 18 1 18 19
M  V30 19 1 10 20
M  V30 20 2 20 21
M  V30 21 1 20 22
M  V30 22 1 22 23
M  V30 23 2 23 24
M  V30 24 2 8 25
M  V30 25 1 25 26
M  V30 26 1 26 27
M  V30 27 1 27 28
M  V30 28 1 28 29
M  V30 29 1 29 30
M  V30 30 2 30 31
M  V30 31 1 30 32
M  V30 32 1 32 33
M  V30 33 1 33 34
M  V30 34 1 34 35
M  V30 35 1 35 36
M  V30 36 1 36 37
M  V30 37 1 29 38
M  V30 38 1 7 2
M  V30 39 1 23 9
M  V30 40 1 37 32
M  V30 41 1 38 4
M  V30 42 1 26 5
M  V30 43 1 19 11
M  V30 44 1 19 14
M  V30 45 1 1 39
M  V30 46 1 1 40
M  V30 47 1 1 41
M  V30 48 1 3 42
M  V30 49 1 7 43
M  V30 50 1 12 44
M  V30 51 1 15 45
M  V30 52 1 16 46
M  V30 53 1 17 47
M  V30 54 1 18 48
M  V30 55 1 22 49
M  V30 56 1 25 50
M  V30 57 1 27 51
M  V30 58 1 27 52
M  V30 59 1 28 53
M  V30 60 1 28 54
M  V30 61 1 33 55
M  V30 62 1 33 56
M  V30 63 1 34 57
M  V30 64 1 34 58
M  V30 65 1 35 59
M  V30 66 1 35 60
M  V30 67 1 36 61
M  V30 68 1 36 62
M  V30 69 1 37 63
M  V30 70 1 37 64
M  V30 71 1 38 65
M  V30 72 1 38 66
M  V30 END BOND
M  V30 END CTAB
M  END
>  <Dataset>  (307) 
ChEMBL_Kinases

>  <Ligand_Instance>  (307) 
nan

>  <PDB_ID>  (307) 
nan

>  <Standardized_SMILES>  (307) 
Cc1cc2c3c(c1)c(C1=C(c4cnc5ccccn45)C(=O)NC1=O)cn3CCN(C(=O)N1CCCCC1)C2

>  <Name>  (307) 
nan

>  <Pocket>  (307) 
nan

>  <ATP_Site>  (307) 
nan

>  <Peripheral>  (307) 
nan

>  <Num_H_Atoms_ProtBoundConf>  (307) 
nan

>  <Num_Resolved_Atoms>  (307) 
nan

>  <Num_Not_Resolved_Atoms>  (307) 
nan

$$$$
CHEMBL4757618
     RDKit          3D

  0  0  0  0  0  0  0  0  0  0999 V3000
M  V30 BEGIN CTAB
M  V30 COUNTS 56 59 0 0 0
M  V30 BEGIN ATOM
M  V30 1 C -3.775333 -3.134808 -2.120970 0
M  V30 2 C -3.758875 -1.858500 -1.313481 0
M  V30 3 C -3.656992 -0.636926 -2.186399 0
M  V30 4 C -5.121219 -1.741590 -0.593020 0
M  V30 5 O -2.812578 -1.819420 -0.320102 0
M  V30 6 C -1.480435 -1.928259 -0.277954 0
M  V30 7 O -2.002052 -2.022889 -1.398435 0
M  V30 8 N -0.158080 -2.102727 -0.760520 0
M  V30 9 C 0.729907 -2.226656 -1.816287 0
M  V30 10 C 1.547643 -1.254498 -2.477005 0
M  V30 11 O 1.168466 -0.149969 -3.069638 0
M  V30 12 C 0.705925 0.975990 -2.588827 0
M  V30 13 C -0.607752 1.157656 -1.950164 0
M  V30 14 O -0.692913 2.571769 -1.504133 0
M  V30 15 C 0.401799 2.776048 -0.596330 0
M  V30 16 C 0.449583 1.894693 0.460367 0
M  V30 17 C 1.406871 1.879959 1.443197 0
M  V30 18 C 2.408622 2.811372 1.403955 0
M  V30 19 C 2.365852 3.703535 0.349154 0
M  V30 20 C 1.407605 3.710506 -0.634089 0
M  V30 21 C 1.349821 4.632776 -1.745735 0
M  V30 22 O 2.185000 5.547174 -1.930162 0
M  V30 23 O 0.382066 4.616639 -2.722829 0
M  V30 24 C 1.451759 0.890038 2.483461 0
M  V30 25 C 1.779733 0.810292 3.809291 0
M  V30 26 N 1.559442 -0.491571 4.159491 0
M  V30 27 N 1.129054 -1.161810 3.128039 0
M  V30 28 C 0.758247 -2.427361 2.936846 0
M  V30 29 C 0.315350 -2.871884 1.710858 0
M  V30 30 C 0.243378 -2.015981 0.632240 0
M  V30 31 N 0.634221 -0.728826 0.875600 0
M  V30 32 C 1.045112 -0.356064 2.063664 0
M  V30 33 H -4.844764 -3.354807 -2.361105 0
M  V30 34 H -3.386347 -3.990250 -1.559499 0
M  V30 35 H -3.298006 -2.961724 -3.107256 0
M  V30 36 H -2.970801 -0.748793 -3.026108 0
M  V30 37 H -4.682089 -0.335143 -2.508371 0
M  V30 38 H -3.311211 0.232201 -1.554693 0
M  V30 39 H -5.945360 -2.109648 -1.210277 0
M  V30 40 H -5.071032 -2.314307 0.363087 0
M  V30 41 H -5.219428 -0.667212 -0.318771 0
M  V30 42 H 0.133553 -2.848072 -2.626673 0
M  V30 43 H 1.435589 -3.118639 -1.495707 0
M  V30 44 H 2.125823 -1.848117 -3.332552 0
M  V30 45 H 2.525243 -1.050270 -1.839082 0
M  V30 46 H 1.536712 1.435215 -1.931336 0
M  V30 47 H 0.749917 1.756476 -3.456717 0
M  V30 48 H -1.421651 1.112678 -2.711783 0
M  V30 49 H -0.884508 0.571203 -1.111074 0
M  V30 50 H -0.335144 1.172187 0.595546 0
M  V30 51 H 3.148317 2.792910 2.178621 0
M  V30 52 H 3.140679 4.463968 0.275740 0
M  V30 53 H 0.512445 4.929246 -3.688412 0
M  V30 54 H 2.120054 1.707670 4.283716 0
M  V30 55 H 0.762418 -3.197334 3.673882 0
M  V30 56 H -0.060954 -3.758872 1.225346 0
M  V30 END ATOM
M  V30 BEGIN BOND
M  V30 1 1 1 2
M  V30 2 1 2 3
M  V30 3 1 2 4
M  V30 4 1 2 5
M  V30 5 1 5 6
M  V30 6 2 6 7
M  V30 7 1 6 8
M  V30 8 1 8 9
M  V30 9 1 9 10
M  V30 10 1 10 11
M  V30 11 1 11 12
M  V30 12 1 12 13
M  V30 13 1 13 14
M  V30 14 1 14 15
M  V30 15 1 15 16
M  V30 16 2 16 17
M  V30 17 1 17 18
M  V30 18 2 18 19
M  V30 19 1 19 20
M  V30 20 1 20 21
M  V30 21 2 21 22
M  V30 22 1 21 23
M  V30 23 1 17 24
M  V30 24 1 24 25
M  V30 25 2 25 26
M  V30 26 1 26 27
M  V30 27 1 27 28
M  V30 28 2 28 29
M  V30 29 1 29 30
M  V30 30 2 30 31
M  V30 31 1 31 32
M  V30 32 1 30 8
M  V30 33 2 20 15
M  V30 34 2 32 24
M  V30 35 1 32 27
M  V30 36 1 1 33
M  V30 37 1 1 34
M  V30 38 1 1 35
M  V30 39 1 3 36
M  V30 40 1 3 37
M  V30 41 1 3 38
M  V30 42 1 4 39
M  V30 43 1 4 40
M  V30 44 1 4 41
M  V30 45 1 9 42
M  V30 46 1 9 43
M  V30 47 1 10 44
M  V30 48 1 10 45
M  V30 49 1 12 46
M  V30 50 1 12 47
M  V30 51 1 13 48
M  V30 52 1 13 49
M  V30 53 1 16 50
M  V30 54 1 18 51
M  V30 55 1 19 52
M  V30 56 1 23 53
M  V30 57 1 25 54
M  V30 58 1 28 55
M  V30 59 1 29 56
M  V30 END BOND
M  V30 END CTAB
M  END
>  <Dataset>  (308) 
ChEMBL_Kinases

>  <Ligand_Instance>  (308) 
nan

>  <PDB_ID>  (308) 
nan

>  <Standardized_SMILES>  (308) 
CC(C)(C)OC(=O)N1CCOCCOc2cc(ccc2C(=O)O)-c2cnn3ccc1nc23

>  <Name>  (308) 
nan

>  <Pocket>  (308) 
nan

>  <ATP_Site>  (308) 
nan

>  <Peripheral>  (308) 
nan

>  <Num_H_Atoms_ProtBoundConf>  (308) 
nan

>  <Num_Resolved_Atoms>  (308) 
nan

>  <Num_Not_Resolved_Atoms>  (308) 
nan

$$$$
CHEMBL4757799
     RDKit          3D

  0  0  0  0  0  0  0  0  0  0999 V3000
M  V30 BEGIN CTAB
M  V30 COUNTS 56 59 0 0 0
M  V30 BEGIN ATOM
M  V30 1 C 1.856124 -0.596032 4.742712 0
M  V30 2 O 3.162108 -1.105679 4.665846 0
M  V30 3 C 4.063526 -0.532721 3.802967 0
M  V30 4 C 5.385113 -0.967827 3.654993 0
M  V30 5 N 6.253377 -0.392344 2.804144 0
M  V30 6 C 5.921974 0.665228 2.010795 0
M  V30 7 C 4.645472 1.141401 2.104565 0
M  V30 8 C 4.123380 2.248447 1.340718 0
M  V30 9 C 3.669045 3.162171 0.702124 0
M  V30 10 C 3.120352 4.260487 -0.036784 0
M  V30 11 C 3.816412 5.424123 -0.278655 0
M  V30 12 N 2.924464 6.150470 -0.972932 0
M  V30 13 N 1.796831 5.503652 -1.142141 0
M  V30 14 C 1.851501 4.285987 -0.568920 0
M  V30 15 C 0.755658 3.343500 -0.612953 0
M  V30 16 O -0.339257 3.716671 -1.098630 0
M  V30 17 N 0.734130 2.012184 -0.174306 0
M  V30 18 C -0.245999 0.998301 -0.153916 0
M  V30 19 C -0.002941 -0.274390 0.320352 0
M  V30 20 C -0.986114 -1.223425 0.324089 0
M  V30 21 C -2.275366 -0.996217 -0.135074 0
M  V30 22 O -3.068991 -2.099051 -0.026419 0
M  V30 23 C -4.423130 -2.091820 -0.435433 0
M  V30 24 C -5.040457 -3.465999 -0.195255 0
M  V30 25 N -4.448449 -4.501017 -0.863754 0
M  V30 26 C -4.535730 -4.599651 -2.251503 0
M  V30 27 C -3.607600 -5.721557 -2.687991 0
M  V30 28 C -3.380459 -6.505383 -1.440696 0
M  V30 29 C -3.731319 -5.552739 -0.304794 0
M  V30 30 N -2.493903 0.247064 -0.592487 0
M  V30 31 C -1.531831 1.187775 -0.599911 0
M  V30 32 C 3.745606 0.544525 2.987073 0
M  V30 33 H 1.882065 0.437735 5.136470 0
M  V30 34 H 1.434496 -0.554212 3.705741 0
M  V30 35 H 1.182035 -1.258695 5.341187 0
M  V30 36 H 5.674368 -1.817708 4.282812 0
M  V30 37 H 6.577427 1.148039 1.327127 0
M  V30 38 H 4.825244 5.669589 0.023108 0
M  V30 39 H 3.079709 7.126723 -1.351379 0
M  V30 40 H 1.646669 1.703541 0.218187 0
M  V30 41 H 1.013594 -0.485680 0.691979 0
M  V30 42 H -0.641687 -2.187483 0.731766 0
M  V30 43 H -5.011737 -1.308247 0.089521 0
M  V30 44 H -4.449097 -1.852596 -1.517137 0
M  V30 45 H -6.136736 -3.315489 -0.447121 0
M  V30 46 H -5.072517 -3.668340 0.913669 0
M  V30 47 H -5.554962 -4.893998 -2.561195 0
M  V30 48 H -4.246346 -3.635494 -2.715886 0
M  V30 49 H -4.108917 -6.369240 -3.458773 0
M  V30 50 H -2.687291 -5.249506 -3.101186 0
M  V30 51 H -2.302941 -6.794902 -1.401769 0
M  V30 52 H -3.960375 -7.438051 -1.394486 0
M  V30 53 H -4.284553 -6.117009 0.488908 0
M  V30 54 H -2.760804 -5.216099 0.147871 0
M  V30 55 H -1.910517 2.109125 -1.003014 0
M  V30 56 H 2.722852 0.896001 3.088622 0
M  V30 END ATOM
M  V30 BEGIN BOND
M  V30 1 1 1 2
M  V30 2 1 2 3
M  V30 3 2 3 4
M  V30 4 1 4 5
M  V30 5 2 5 6
M  V30 6 1 6 7
M  V30 7 1 7 8
M  V30 8 3 8 9
M  V30 9 1 9 10
M  V30 10 2 10 11
M  V30 11 1 11 12
M  V30 12 1 12 13
M  V30 13 2 13 14
M  V30 14 1 14 15
M  V30 15 2 15 16
M  V30 16 1 15 17
M  V30 17 1 17 18
M  V30 18 2 18 19
M  V30 19 1 19 20
M  V30 20 2 20 21
M  V30 21 1 21 22
M  V30 22 1 22 23
M  V30 23 1 23 24
M  V30 24 1 24 25
M  V30 25 1 25 26
M  V30 26 1 26 27
M  V30 27 1 27 28
M  V30 28 1 28 29
M  V30 29 1 21 30
M  V30 30 2 30 31
M  V30 31 2 7 32
M  V30 32 1 32 3
M  V30 33 1 14 10
M  V30 34 1 31 18
M  V30 35 1 29 25
M  V30 36 1 1 33
M  V30 37 1 1 34
M  V30 38 1 1 35
M  V30 39 1 4 36
M  V30 40 1 6 37
M  V30 41 1 11 38
M  V30 42 1 12 39
M  V30 43 1 17 40
M  V30 44 1 19 41
M  V30 45 1 20 42
M  V30 46 1 23 43
M  V30 47 1 23 44
M  V30 48 1 24 45
M  V30 49 1 24 46
M  V30 50 1 26 47
M  V30 51 1 26 48
M  V30 52 1 27 49
M  V30 53 1 27 50
M  V30 54 1 28 51
M  V30 55 1 28 52
M  V30 56 1 29 53
M  V30 57 1 29 54
M  V30 58 1 31 55
M  V30 59 1 32 56
M  V30 END BOND
M  V30 END CTAB
M  END
>  <Dataset>  (309) 
ChEMBL_Kinases

>  <Ligand_Instance>  (309) 
nan

>  <PDB_ID>  (309) 
nan

>  <Standardized_SMILES>  (309) 
COc1cncc(C#Cc2c[nH]nc2C(=O)Nc2ccc(OCCN3CCCC3)nc2)c1

>  <Name>  (309) 
nan

>  <Pocket>  (309) 
nan

>  <ATP_Site>  (309) 
nan

>  <Peripheral>  (309) 
nan

>  <Num_H_Atoms_ProtBoundConf>  (309) 
nan

>  <Num_Resolved_Atoms>  (309) 
nan

>  <Num_Not_Resolved_Atoms>  (309) 
nan

$$$$
CHEMBL4757844
     RDKit          3D

  0  0  0  0  0  0  0  0  0  0999 V3000
M  V30 BEGIN CTAB
M  V30 COUNTS 50 52 0 0 0
M  V30 BEGIN ATOM
M  V30 1 C 1.061934 -4.360490 0.540315 0
M  V30 2 O -0.241018 -4.448028 1.022861 0
M  V30 3 C -1.123022 -3.391142 1.201549 0
M  V30 4 C -0.694123 -2.117653 0.877717 0
M  V30 5 C -1.557364 -1.053602 1.048674 0
M  V30 6 C -1.279795 0.350225 0.762157 0
M  V30 7 O -2.105410 1.286710 0.937120 0
M  V30 8 N -0.010472 0.717608 0.253742 0
M  V30 9 C 0.536713 2.003213 -0.114760 0 CFG=1
M  V30 10 C 1.636651 2.378989 0.777313 0
M  V30 11 C 2.586490 1.509004 1.272840 0
M  V30 12 C 3.626050 1.850034 2.112021 0
M  V30 13 C 3.755348 3.163821 2.508250 0
M  V30 14 C 2.833113 4.081464 2.043888 0
M  V30 15 C 1.805824 3.698324 1.204026 0
M  V30 16 F 0.968645 4.676319 0.816594 0
M  V30 17 C 0.832411 2.067602 -1.577265 0
M  V30 18 C 1.752110 1.001319 -2.067275 0
M  V30 19 C 1.259415 3.466139 -1.973147 0
M  V30 20 O -0.404129 1.851071 -2.231190 0
M  V30 21 C -2.818560 -1.330151 1.541182 0
M  V30 22 C -3.247108 -2.601970 1.864672 0
M  V30 23 C -2.391132 -3.674217 1.697416 0
M  V30 24 C -2.734595 -5.062902 2.005764 0
M  V30 25 C -3.370058 -5.680135 3.080858 0
M  V30 26 N -3.408558 -7.002432 2.814218 0
M  V30 27 N -2.833208 -7.216799 1.641184 0
M  V30 28 C -2.393618 -6.061031 1.085648 0
M  V30 29 H 1.269232 -5.296563 -0.055070 0
M  V30 30 H 1.749363 -4.337180 1.434686 0
M  V30 31 H 1.268101 -3.538578 -0.154394 0
M  V30 32 H 0.272658 -1.879354 0.496683 0
M  V30 33 H 0.767733 0.050066 0.060080 0
M  V30 34 H -0.284165 2.755187 0.080061 0
M  V30 35 H 2.530295 0.471399 0.993505 0
M  V30 36 H 4.341027 1.120935 2.468022 0
M  V30 37 H 4.554000 3.438142 3.155745 0
M  V30 38 H 2.947852 5.117387 2.365712 0
M  V30 39 H 1.227202 0.038419 -2.252091 0
M  V30 40 H 2.122412 1.330958 -3.082289 0
M  V30 41 H 2.593745 0.772717 -1.386506 0
M  V30 42 H 0.427106 4.158732 -1.776560 0
M  V30 43 H 2.170905 3.785865 -1.428929 0
M  V30 44 H 1.513572 3.532105 -3.045852 0
M  V30 45 H -0.443184 2.385146 -3.067524 0
M  V30 46 H -3.580734 -0.572811 1.716217 0
M  V30 47 H -4.238905 -2.818506 2.251857 0
M  V30 48 H -3.681402 -4.987494 3.864492 0
M  V30 49 H -2.771301 -8.188496 1.270139 0
M  V30 50 H -1.896527 -6.080808 0.114906 0
M  V30 END ATOM
M  V30 BEGIN BOND
M  V30 1 1 1 2
M  V30 2 1 2 3
M  V30 3 2 3 4
M  V30 4 1 4 5
M  V30 5 1 5 6
M  V30 6 2 6 7
M  V30 7 1 6 8
M  V30 8 1 8 9
M  V30 9 1 9 10
M  V30 10 2 10 11
M  V30 11 1 11 12
M  V30 12 2 12 13
M  V30 13 1 13 14
M  V30 14 2 14 15
M  V30 15 1 15 16
M  V30 16 1 9 17
M  V30 17 1 17 18
M  V30 18 1 17 19
M  V30 19 1 17 20
M  V30 20 2 5 21
M  V30 21 1 21 22
M  V30 22 2 22 23
M  V30 23 1 23 24
M  V30 24 1 24 25
M  V30 25 2 25 26
M  V30 26 1 26 27
M  V30 27 1 27 28
M  V30 28 1 23 3
M  V30 29 2 28 24
M  V30 30 1 15 10
M  V30 31 1 1 29
M  V30 32 1 1 30
M  V30 33 1 1 31
M  V30 34 1 4 32
M  V30 35 1 8 33
M  V30 36 1 9 34 CFG=3
M  V30 37 1 11 35
M  V30 38 1 12 36
M  V30 39 1 13 37
M  V30 40 1 14 38
M  V30 41 1 18 39
M  V30 42 1 18 40
M  V30 43 1 18 41
M  V30 44 1 19 42
M  V30 45 1 19 43
M  V30 46 1 19 44
M  V30 47 1 20 45
M  V30 48 1 21 46
M  V30 49 1 22 47
M  V30 50 1 25 48
M  V30 51 1 27 49
M  V30 52 1 28 50
M  V30 END BOND
M  V30 END CTAB
M  END
>  <Dataset>  (310) 
ChEMBL_Kinases

>  <Ligand_Instance>  (310) 
nan

>  <PDB_ID>  (310) 
nan

>  <Standardized_SMILES>  (310) 
COc1cc(C(=O)N[C@@H](c2ccccc2F)C(C)(C)O)ccc1-c1cn[nH]c1

>  <Name>  (310) 
nan

>  <Pocket>  (310) 
nan

>  <ATP_Site>  (310) 
nan

>  <Peripheral>  (310) 
nan

>  <Num_H_Atoms_ProtBoundConf>  (310) 
nan

>  <Num_Resolved_Atoms>  (310) 
nan

>  <Num_Not_Resolved_Atoms>  (310) 
nan

$$$$
CHEMBL4757904
     RDKit          3D

  0  0  0  0  0  0  0  0  0  0999 V3000
M  V30 BEGIN CTAB
M  V30 COUNTS 67 72 0 0 0
M  V30 BEGIN ATOM
M  V30 1 O -0.170195 0.894087 -0.480018 0
M  V30 2 C 0.717379 0.005695 -0.413055 0
M  V30 3 C 2.089492 0.241027 0.230226 0
M  V30 4 C 2.195869 -0.589387 1.472814 0
M  V30 5 N 3.334433 -0.605822 2.223829 0
M  V30 6 C 3.980823 0.241464 3.039206 0
M  V30 7 C 4.639255 1.517907 2.634903 0
M  V30 8 C 5.322785 1.913306 3.990769 0
M  V30 9 C 4.464724 1.286105 5.062343 0
M  V30 10 C 3.268994 0.755398 4.300971 0
M  V30 11 C 1.993494 1.685446 0.606750 0
M  V30 12 C 2.789438 2.477184 -0.197911 0
M  V30 13 C 2.777773 3.841738 0.053286 0
M  V30 14 C 1.981067 4.340098 1.082951 0
M  V30 15 Cl 1.921120 6.068579 1.453908 0
M  V30 16 C 1.197873 3.485695 1.861257 0
M  V30 17 C 1.189264 2.109393 1.632179 0
M  V30 18 N 0.116535 -1.096448 -1.031129 0
M  V30 19 C -1.205739 -0.723535 -1.445643 0
M  V30 20 C -1.845226 -1.683263 -2.418864 0
M  V30 21 N -1.872881 -3.004434 -1.827595 0
M  V30 22 C -2.797656 -4.074760 -1.974683 0
M  V30 23 N -2.172862 -5.126217 -2.523731 0
M  V30 24 C -2.748929 -6.303323 -2.813498 0
M  V30 25 N -4.053763 -6.387897 -2.512689 0
M  V30 26 C -4.687587 -5.345734 -1.964518 0
M  V30 27 S -6.348967 -5.195199 -1.483764 0
M  V30 28 C -6.256589 -3.511445 -0.881083 0
M  V30 29 C -4.900733 -3.156271 -1.095957 0
M  V30 30 C -4.133733 -4.139735 -1.658116 0
M  V30 31 C -4.827261 -1.756392 -0.592909 0
M  V30 32 C -5.964328 -1.601359 0.364630 0
M  V30 33 C -7.058768 -2.433344 -0.272862 0
M  V30 34 C -0.740646 -3.294985 -0.931148 0
M  V30 35 C 0.464142 -2.466935 -1.350267 0
M  V30 36 H 2.862592 0.037223 -0.508654 0
M  V30 37 H 2.029547 -1.664390 1.077114 0
M  V30 38 H 1.231273 -0.483670 2.083259 0
M  V30 39 H 3.919558 -1.520805 2.068857 0
M  V30 40 H 4.869781 -0.341889 3.546841 0
M  V30 41 H 3.952398 2.344081 2.389600 0
M  V30 42 H 5.456382 1.351136 1.925723 0
M  V30 43 H 5.247094 3.011873 4.084763 0
M  V30 44 H 6.367374 1.553487 3.988599 0
M  V30 45 H 4.136761 2.051754 5.793709 0
M  V30 46 H 5.008658 0.443770 5.561596 0
M  V30 47 H 2.640593 1.638789 4.095116 0
M  V30 48 H 2.761602 -0.082171 4.796535 0
M  V30 49 H 3.411278 2.143874 -0.992399 0
M  V30 50 H 3.340038 4.584841 -0.483467 0
M  V30 51 H 0.569316 3.842113 2.666691 0
M  V30 52 H 0.591641 1.431174 2.220572 0
M  V30 53 H -1.863806 -0.529930 -0.580200 0
M  V30 54 H -1.153463 0.263962 -2.005878 0
M  V30 55 H -1.274975 -1.729567 -3.379766 0
M  V30 56 H -2.855797 -1.306575 -2.683333 0
M  V30 57 H -2.278269 -7.165589 -3.252760 0
M  V30 58 H -4.855068 -1.043930 -1.417377 0
M  V30 59 H -3.898593 -1.580347 -0.011236 0
M  V30 60 H -6.305271 -0.558614 0.458361 0
M  V30 61 H -5.699675 -2.029679 1.330253 0
M  V30 62 H -7.704255 -2.797992 0.552462 0
M  V30 63 H -7.658355 -1.880979 -1.004925 0
M  V30 64 H -0.985533 -3.184376 0.119452 0
M  V30 65 H -0.454137 -4.343882 -1.136436 0
M  V30 66 H 0.577596 -2.478167 -2.468463 0
M  V30 67 H 1.365881 -2.842376 -0.870415 0
M  V30 END ATOM
M  V30 BEGIN BOND
M  V30 1 2 1 2
M  V30 2 1 2 3
M  V30 3 1 3 4
M  V30 4 1 4 5
M  V30 5 1 5 6
M  V30 6 1 6 7
M  V30 7 1 7 8
M  V30 8 1 8 9
M  V30 9 1 9 10
M  V30 10 1 3 11
M  V30 11 2 11 12
M  V30 12 1 12 13
M  V30 13 2 13 14
M  V30 14 1 14 15
M  V30 15 1 14 16
M  V30 16 2 16 17
M  V30 17 1 2 18
M  V30 18 1 18 19
M  V30 19 1 19 20
M  V30 20 1 20 21
M  V30 21 1 21 22
M  V30 22 2 22 23
M  V30 23 1 23 24
M  V30 24 2 24 25
M  V30 25 1 25 26
M  V30 26 1 26 27
M  V30 27 1 27 28
M  V30 28 2 28 29
M  V30 29 1 29 30
M  V30 30 1 29 31
M  V30 31 1 31 32
M  V30 32 1 32 33
M  V30 33 1 21 34
M  V30 34 1 34 35
M  V30 35 1 10 6
M  V30 36 1 17 11
M  V30 37 1 35 18
M  V30 38 1 30 22
M  V30 39 2 30 26
M  V30 40 1 33 28
M  V30 41 1 3 36
M  V30 42 1 4 37
M  V30 43 1 4 38
M  V30 44 1 5 39
M  V30 45 1 6 40
M  V30 46 1 7 41
M  V30 47 1 7 42
M  V30 48 1 8 43
M  V30 49 1 8 44
M  V30 50 1 9 45
M  V30 51 1 9 46
M  V30 52 1 10 47
M  V30 53 1 10 48
M  V30 54 1 12 49
M  V30 55 1 13 50
M  V30 56 1 16 51
M  V30 57 1 17 52
M  V30 58 1 19 53
M  V30 59 1 19 54
M  V30 60 1 20 55
M  V30 61 1 20 56
M  V30 62 1 24 57
M  V30 63 1 31 58
M  V30 64 1 31 59
M  V30 65 1 32 60
M  V30 66 1 32 61
M  V30 67 1 33 62
M  V30 68 1 33 63
M  V30 69 1 34 64
M  V30 70 1 34 65
M  V30 71 1 35 66
M  V30 72 1 35 67
M  V30 END BOND
M  V30 END CTAB
M  END
>  <Dataset>  (311) 
ChEMBL_Kinases

>  <Ligand_Instance>  (311) 
nan

>  <PDB_ID>  (311) 
nan

>  <Standardized_SMILES>  (311) 
O=C(C(CNC1CCCC1)c1ccc(Cl)cc1)N1CCN(c2ncnc3sc4c(c23)CCC4)CC1

>  <Name>  (311) 
nan

>  <Pocket>  (311) 
nan

>  <ATP_Site>  (311) 
nan

>  <Peripheral>  (311) 
nan

>  <Num_H_Atoms_ProtBoundConf>  (311) 
nan

>  <Num_Resolved_Atoms>  (311) 
nan

>  <Num_Not_Resolved_Atoms>  (311) 
nan

$$$$
CHEMBL5088816
     RDKit          3D

  0  0  0  0  0  0  0  0  0  0999 V3000
M  V30 BEGIN CTAB
M  V30 COUNTS 51 55 0 0 0
M  V30 BEGIN ATOM
M  V30 1 O -0.461340 -4.641068 3.135055 0
M  V30 2 C -0.615288 -4.291059 1.946513 0
M  V30 3 C 0.609906 -3.635003 1.444854 0
M  V30 4 C 0.451440 -2.253938 1.265675 0
M  V30 5 C 1.546583 -1.558245 0.781810 0
M  V30 6 C 2.769804 -2.094267 0.461710 0
M  V30 7 N 3.868271 -1.360375 -0.064226 0
M  V30 8 C 3.893506 0.028889 -0.345097 0
M  V30 9 N 4.930764 0.557770 -1.011903 0
M  V30 10 C 5.082487 1.838813 -1.339573 0
M  V30 11 C 4.096784 2.726230 -0.971199 0
M  V30 12 F 4.028472 4.072773 -1.193015 0
M  V30 13 C 3.019386 2.252166 -0.289680 0
M  V30 14 C 1.851514 2.897082 0.274763 0
M  V30 15 C 1.996942 4.137176 0.916791 0
M  V30 16 C 0.934747 4.788371 1.532204 0
M  V30 17 C -0.305808 4.194863 1.513183 0
M  V30 18 N -1.370856 4.766731 2.113143 0
M  V30 19 C -2.573341 4.182051 2.113724 0
M  V30 20 C -2.760717 2.950026 1.485880 0
M  V30 21 N -1.717236 2.357027 0.878828 0
M  V30 22 C -0.503611 2.960510 0.885844 0
M  V30 23 C 0.586819 2.382636 0.301474 0
M  V30 24 N 2.966874 0.936452 -0.010799 0
M  V30 25 N 2.848018 -3.411358 0.657857 0
M  V30 26 C 1.840045 -4.161485 1.121661 0
M  V30 27 N -1.739496 -4.438206 1.094089 0
M  V30 28 C -2.916280 -5.097266 1.689889 0
M  V30 29 C -4.204391 -4.676248 1.035587 0
M  V30 30 N -3.988250 -3.332888 0.476997 0
M  V30 31 C -3.100090 -3.426821 -0.675723 0
M  V30 32 C -1.751330 -3.992090 -0.270892 0
M  V30 33 H -0.489693 -1.751722 1.491422 0
M  V30 34 H 1.367520 -0.510204 0.671781 0
M  V30 35 H 4.738923 -1.910388 -0.241409 0
M  V30 36 H 5.898791 2.275929 -1.862334 0
M  V30 37 H 2.966501 4.640240 0.951952 0
M  V30 38 H 1.107782 5.741388 2.011593 0
M  V30 39 H -3.490558 4.540078 2.557048 0
M  V30 40 H -3.651205 2.334014 1.385884 0
M  V30 41 H 0.394991 1.443792 -0.179689 0
M  V30 42 H 1.887414 -5.226424 1.289815 0
M  V30 43 H -2.765767 -6.210777 1.597499 0
M  V30 44 H -2.996786 -4.858251 2.767079 0
M  V30 45 H -4.977103 -4.546013 1.806427 0
M  V30 46 H -4.518213 -5.379354 0.232631 0
M  V30 47 H -3.490468 -2.799234 1.230207 0
M  V30 48 H -3.598262 -4.071732 -1.424557 0
M  V30 49 H -2.959176 -2.432062 -1.082831 0
M  V30 50 H -1.532790 -4.826989 -0.996336 0
M  V30 51 H -0.958523 -3.238247 -0.436946 0
M  V30 END ATOM
M  V30 BEGIN BOND
M  V30 1 2 1 2
M  V30 2 1 2 3
M  V30 3 2 3 4
M  V30 4 1 4 5
M  V30 5 2 5 6
M  V30 6 1 6 7
M  V30 7 1 7 8
M  V30 8 2 8 9
M  V30 9 1 9 10
M  V30 10 2 10 11
M  V30 11 1 11 12
M  V30 12 1 11 13
M  V30 13 1 13 14
M  V30 14 2 14 15
M  V30 15 1 15 16
M  V30 16 2 16 17
M  V30 17 1 17 18
M  V30 18 2 18 19
M  V30 19 1 19 20
M  V30 20 2 20 21
M  V30 21 1 21 22
M  V30 22 2 22 23
M  V30 23 2 13 24
M  V30 24 1 6 25
M  V30 25 2 25 26
M  V30 26 1 2 27
M  V30 27 1 27 28
M  V30 28 1 28 29
M  V30 29 1 29 30
M  V30 30 1 30 31
M  V30 31 1 31 32
M  V30 32 1 26 3
M  V30 33 1 32 27
M  V30 34 1 24 8
M  V30 35 1 23 14
M  V30 36 1 22 17
M  V30 37 1 4 33
M  V30 38 1 5 34
M  V30 39 1 7 35
M  V30 40 1 10 36
M  V30 41 1 15 37
M  V30 42 1 16 38
M  V30 43 1 19 39
M  V30 44 1 20 40
M  V30 45 1 23 41
M  V30 46 1 26 42
M  V30 47 1 28 43
M  V30 48 1 28 44
M  V30 49 1 29 45
M  V30 50 1 29 46
M  V30 51 1 30 47
M  V30 52 1 31 48
M  V30 53 1 31 49
M  V30 54 1 32 50
M  V30 55 1 32 51
M  V30 END BOND
M  V30 END CTAB
M  END
>  <Dataset>  (312) 
ChEMBL_Kinases

>  <Ligand_Instance>  (312) 
nan

>  <PDB_ID>  (312) 
nan

>  <Standardized_SMILES>  (312) 
O=C(c1ccc(Nc2ncc(F)c(-c3ccc4nccnc4c3)n2)nc1)N1CCNCC1

>  <Name>  (312) 
nan

>  <Pocket>  (312) 
nan

>  <ATP_Site>  (312) 
nan

>  <Peripheral>  (312) 
nan

>  <Num_H_Atoms_ProtBoundConf>  (312) 
nan

>  <Num_Resolved_Atoms>  (312) 
nan

>  <Num_Not_Resolved_Atoms>  (312) 
nan

$$$$
CHEMBL190333
     RDKit          3D

  0  0  0  0  0  0  0  0  0  0999 V3000
M  V30 BEGIN CTAB
M  V30 COUNTS 56 59 0 0 0
M  V30 BEGIN ATOM
M  V30 1 O 2.393409 -4.876240 3.787285 0
M  V30 2 C 3.707603 -4.446863 3.517240 0
M  V30 3 C 3.739286 -4.081314 2.027176 0
M  V30 4 C 2.774472 -3.012304 1.751407 0
M  V30 5 C 1.969913 -2.140709 1.535191 0
M  V30 6 C 0.981994 -1.107625 1.274314 0
M  V30 7 N 1.419461 0.155439 0.992180 0
M  V30 8 C 0.312900 0.919798 0.838284 0
M  V30 9 C 0.392017 2.334170 0.527919 0
M  V30 10 C -0.114456 2.866301 -0.635815 0
M  V30 11 C 0.039739 4.231746 -0.785858 0
M  V30 12 C 0.650707 5.059208 0.132470 0
M  V30 13 F 0.759579 6.382869 -0.090308 0
M  V30 14 C 1.149582 4.491820 1.293216 0
M  V30 15 C 1.006723 3.144210 1.459539 0
M  V30 16 C -0.745126 0.059633 1.039061 0
M  V30 17 C -2.102190 0.577817 0.946462 0
M  V30 18 C -3.047200 0.281328 0.006981 0
M  V30 19 C -4.318695 0.802419 -0.030681 0
M  V30 20 N -4.632358 1.672374 0.948181 0
M  V30 21 C -3.775229 2.026603 1.913832 0
M  V30 22 C -2.506146 1.488748 1.927762 0
M  V30 23 N -0.380249 -1.204800 1.310709 0
M  V30 24 C -1.135217 -2.352619 1.641388 0
M  V30 25 C -1.788379 -3.143266 0.583932 0
M  V30 26 C -1.076651 -3.751800 -0.523083 0
M  V30 27 C -0.347407 -2.969263 -1.493880 0
M  V30 28 C -1.236587 -2.430573 -2.429616 0
M  V30 29 C -0.816195 -1.643336 -3.509546 0
M  V30 30 C 0.519767 -1.362342 -3.696476 0
M  V30 31 C 1.427555 -1.876517 -2.794836 0
M  V30 32 C 0.965498 -2.643922 -1.752110 0
M  V30 33 H 1.847048 -4.128131 4.184274 0
M  V30 34 H 4.392441 -5.284358 3.698946 0
M  V30 35 H 3.875975 -3.552255 4.140245 0
M  V30 36 H 3.409239 -4.977385 1.467827 0
M  V30 37 H 4.780854 -3.769057 1.798794 0
M  V30 38 H -0.597029 2.238855 -1.370174 0
M  V30 39 H -0.343377 4.707451 -1.690987 0
M  V30 40 H 1.643703 5.086461 2.061050 0
M  V30 41 H 1.405027 2.717117 2.378234 0
M  V30 42 H -2.750069 -0.418554 -0.759311 0
M  V30 43 H -4.990646 0.492161 -0.831670 0
M  V30 44 H -4.217899 2.725406 2.589197 0
M  V30 45 H -1.892982 1.842744 2.752536 0
M  V30 46 H -0.467094 -3.009211 2.305738 0
M  V30 47 H -1.900783 -2.010141 2.421696 0
M  V30 48 H -2.288480 -4.023503 1.144260 0
M  V30 49 H -2.714152 -2.568639 0.282238 0
M  V30 50 H -1.734769 -4.490846 -1.081866 0
M  V30 51 H -0.301352 -4.463344 -0.067167 0
M  V30 52 H -2.313672 -2.528469 -2.465085 0
M  V30 53 H -1.458912 -1.204946 -4.257380 0
M  V30 54 H 0.938691 -0.774741 -4.482718 0
M  V30 55 H 2.508299 -1.756058 -2.789997 0
M  V30 56 H 1.605323 -3.107412 -1.018153 0
M  V30 END ATOM
M  V30 BEGIN BOND
M  V30 1 1 1 2
M  V30 2 1 2 3
M  V30 3 1 3 4
M  V30 4 3 4 5
M  V30 5 1 5 6
M  V30 6 2 6 7
M  V30 7 1 7 8
M  V30 8 1 8 9
M  V30 9 2 9 10
M  V30 10 1 10 11
M  V30 11 2 11 12
M  V30 12 1 12 13
M  V30 13 1 12 14
M  V30 14 2 14 15
M  V30 15 2 8 16
M  V30 16 1 16 17
M  V30 17 2 17 18
M  V30 18 1 18 19
M  V30 19 2 19 20
M  V30 20 1 20 21
M  V30 21 2 21 22
M  V30 22 1 16 23
M  V30 23 1 23 24
M  V30 24 1 24 25
M  V30 25 1 25 26
M  V30 26 1 26 27
M  V30 27 2 27 28
M  V30 28 1 28 29
M  V30 29 2 29 30
M  V30 30 1 30 31
M  V30 31 2 31 32
M  V30 32 1 23 6
M  V30 33 1 32 27
M  V30 34 1 15 9
M  V30 35 1 22 17
M  V30 36 1 1 33
M  V30 37 1 2 34
M  V30 38 1 2 35
M  V30 39 1 3 36
M  V30 40 1 3 37
M  V30 41 1 10 38
M  V30 42 1 11 39
M  V30 43 1 14 40
M  V30 44 1 15 41
M  V30 45 1 18 42
M  V30 46 1 19 43
M  V30 47 1 21 44
M  V30 48 1 22 45
M  V30 49 1 24 46
M  V30 50 1 24 47
M  V30 51 1 25 48
M  V30 52 1 25 49
M  V30 53 1 26 50
M  V30 54 1 26 51
M  V30 55 1 28 52
M  V30 56 1 29 53
M  V30 57 1 30 54
M  V30 58 1 31 55
M  V30 59 1 32 56
M  V30 END BOND
M  V30 END CTAB
M  END
>  <Dataset>  (313) 
ChEMBL_Kinases

>  <Ligand_Instance>  (313) 
nan

>  <PDB_ID>  (313) 
nan

>  <Standardized_SMILES>  (313) 
OCCC#Cc1nc(-c2ccc(F)cc2)c(-c2ccncc2)n1CCCc1ccccc1

>  <Name>  (313) 
RWJ-67657

>  <Pocket>  (313) 
nan

>  <ATP_Site>  (313) 
nan

>  <Peripheral>  (313) 
nan

>  <Num_H_Atoms_ProtBoundConf>  (313) 
nan

>  <Num_Resolved_Atoms>  (313) 
nan

>  <Num_Not_Resolved_Atoms>  (313) 
nan

$$$$
CHEMBL5088682
     RDKit          3D

  0  0  0  0  0  0  0  0  0  0999 V3000
M  V30 BEGIN CTAB
M  V30 COUNTS 65 69 0 0 0
M  V30 BEGIN ATOM
M  V30 1 N 0.569673 -2.715572 4.036363 0
M  V30 2 S 2.244121 -2.614171 3.730231 0
M  V30 3 O 2.929165 -2.135653 4.996941 0
M  V30 4 O 2.736642 -4.039908 3.531423 0
M  V30 5 C 2.663519 -1.614223 2.376227 0
M  V30 6 C 2.891845 -2.009033 1.076439 0
M  V30 7 C 3.219374 -1.126281 0.070704 0
M  V30 8 C 3.338659 0.214979 0.307403 0
M  V30 9 C 3.705033 1.287356 -0.645782 0
M  V30 10 N 2.591967 1.809575 -1.400557 0
M  V30 11 C 1.357904 2.328955 -0.937745 0
M  V30 12 N 0.999296 2.389026 0.355619 0
M  V30 13 C -0.157357 2.852621 0.832664 0
M  V30 14 N -0.385361 2.824995 2.253453 0
M  V30 15 C -1.088904 1.650997 2.717243 0
M  V30 16 C -1.362472 1.442632 4.063453 0
M  V30 17 C -2.039391 0.324221 4.490374 0
M  V30 18 C -2.469615 -0.633896 3.571643 0
M  V30 19 C -2.222292 -0.471526 2.228522 0
M  V30 20 N -2.667120 -1.449321 1.302619 0
M  V30 21 C -2.007351 -2.603735 0.814270 0
M  V30 22 O -0.890607 -3.198028 0.958013 0
M  V30 23 N -2.502610 -3.548421 -0.111891 0
M  V30 24 C -1.679335 -4.682831 -0.499796 0
M  V30 25 C -2.764483 -5.749424 -0.704645 0
M  V30 26 C -3.834866 -4.926373 -1.395639 0
M  V30 27 C -3.789528 -3.562660 -0.779927 0
M  V30 28 C -1.541198 0.666858 1.861793 0
M  V30 29 N -1.070026 3.311314 -0.051556 0
M  V30 30 C -0.823009 3.301821 -1.379380 0
M  V30 31 C 0.383496 2.813296 -1.818799 0
M  V30 32 C 0.650666 2.811495 -3.280286 0
M  V30 33 C 0.309926 1.589789 -4.103842 0
M  V30 34 C -0.495835 2.876848 -4.206194 0
M  V30 35 C 3.107025 0.610688 1.622270 0
M  V30 36 C 2.775854 -0.251865 2.657411 0
M  V30 37 H 0.261172 -3.683070 4.265308 0
M  V30 38 H -0.044399 -2.236612 3.375015 0
M  V30 39 H 2.796272 -3.064671 0.897696 0
M  V30 40 H 3.395475 -1.443026 -0.939014 0
M  V30 41 H 4.480050 0.857929 -1.313866 0
M  V30 42 H 4.212994 2.114420 -0.100130 0
M  V30 43 H 2.707998 1.806245 -2.441909 0
M  V30 44 H -0.121587 3.514181 2.980096 0
M  V30 45 H -1.024669 2.189259 4.757896 0
M  V30 46 H -2.263621 0.141200 5.535474 0
M  V30 47 H -3.004944 -1.525120 3.884408 0
M  V30 48 H -3.611511 -1.391300 0.863403 0
M  V30 49 H -0.962935 -4.985543 0.263399 0
M  V30 50 H -1.213905 -4.500913 -1.498651 0
M  V30 51 H -2.421756 -6.595931 -1.297183 0
M  V30 52 H -3.121749 -6.022218 0.310706 0
M  V30 53 H -4.828880 -5.387272 -1.255137 0
M  V30 54 H -3.538021 -4.912792 -2.483476 0
M  V30 55 H -4.645053 -3.354375 -0.110197 0
M  V30 56 H -3.743534 -2.834084 -1.642176 0
M  V30 57 H -1.348048 0.791316 0.805774 0
M  V30 58 H -1.526728 3.657965 -2.088900 0
M  V30 59 H 1.554497 3.355323 -3.609118 0
M  V30 60 H 0.939320 1.367037 -4.999540 0
M  V30 61 H -0.132977 0.701726 -3.623134 0
M  V30 62 H -1.548965 2.733503 -3.905792 0
M  V30 63 H -0.407973 3.499301 -5.125053 0
M  V30 64 H 3.188244 1.671999 1.898268 0
M  V30 65 H 2.611362 0.153172 3.661586 0
M  V30 END ATOM
M  V30 BEGIN BOND
M  V30 1 1 1 2
M  V30 2 2 2 3
M  V30 3 2 2 4
M  V30 4 1 2 5
M  V30 5 2 5 6
M  V30 6 1 6 7
M  V30 7 2 7 8
M  V30 8 1 8 9
M  V30 9 1 9 10
M  V30 10 1 10 11
M  V30 11 2 11 12
M  V30 12 1 12 13
M  V30 13 1 13 14
M  V30 14 1 14 15
M  V30 15 2 15 16
M  V30 16 1 16 17
M  V30 17 2 17 18
M  V30 18 1 18 19
M  V30 19 1 19 20
M  V30 20 1 20 21
M  V30 21 2 21 22
M  V30 22 1 21 23
M  V30 23 1 23 24
M  V30 24 1 24 25
M  V30 25 1 25 26
M  V30 26 1 26 27
M  V30 27 2 19 28
M  V30 28 2 13 29
M  V30 29 1 29 30
M  V30 30 2 30 31
M  V30 31 1 31 32
M  V30 32 1 32 33
M  V30 33 1 33 34
M  V30 34 1 8 35
M  V30 35 2 35 36
M  V30 36 1 36 5
M  V30 37 1 31 11
M  V30 38 1 34 32
M  V30 39 1 28 15
M  V30 40 1 27 23
M  V30 41 1 1 37
M  V30 42 1 1 38
M  V30 43 1 6 39
M  V30 44 1 7 40
M  V30 45 1 9 41
M  V30 46 1 9 42
M  V30 47 1 10 43
M  V30 48 1 14 44
M  V30 49 1 16 45
M  V30 50 1 17 46
M  V30 51 1 18 47
M  V30 52 1 20 48
M  V30 53 1 24 49
M  V30 54 1 24 50
M  V30 55 1 25 51
M  V30 56 1 25 52
M  V30 57 1 26 53
M  V30 58 1 26 54
M  V30 59 1 27 55
M  V30 60 1 27 56
M  V30 61 1 28 57
M  V30 62 1 30 58
M  V30 63 1 32 59
M  V30 64 1 33 60
M  V30 65 1 33 61
M  V30 66 1 34 62
M  V30 67 1 34 63
M  V30 68 1 35 64
M  V30 69 1 36 65
M  V30 END BOND
M  V30 END CTAB
M  END
>  <Dataset>  (314) 
ChEMBL_Kinases

>  <Ligand_Instance>  (314) 
nan

>  <PDB_ID>  (314) 
nan

>  <Standardized_SMILES>  (314) 
NS(=O)(=O)c1ccc(CNc2nc(Nc3cccc(NC(=O)N4CCCC4)c3)ncc2C2CC2)cc1

>  <Name>  (314) 
nan

>  <Pocket>  (314) 
nan

>  <ATP_Site>  (314) 
nan

>  <Peripheral>  (314) 
nan

>  <Num_H_Atoms_ProtBoundConf>  (314) 
nan

>  <Num_Resolved_Atoms>  (314) 
nan

>  <Num_Not_Resolved_Atoms>  (314) 
nan

$$$$
CHEMBL190281
     RDKit          3D

  0  0  0  0  0  0  0  0  0  0999 V3000
M  V30 BEGIN CTAB
M  V30 COUNTS 55 59 0 0 0
M  V30 BEGIN ATOM
M  V30 1 O 2.160568 -5.777769 -1.832532 0
M  V30 2 C 2.219945 -4.542725 -2.063448 0
M  V30 3 C 3.404681 -4.129354 -2.636008 0
M  V30 4 Br 4.825294 -5.344036 -3.037158 0
M  V30 5 C 3.599943 -2.793503 -2.941247 0
M  V30 6 C 2.599575 -1.885733 -2.666901 0
M  V30 7 C 2.687237 -0.534532 -2.930133 0
M  V30 8 N 1.692084 0.322309 -2.650246 0
M  V30 9 C 0.542453 -0.127764 -2.085998 0
M  V30 10 N -0.618347 0.609891 -1.720123 0
M  V30 11 C -0.609711 1.203271 -0.424176 0
M  V30 12 C 0.479904 1.133773 0.423227 0
M  V30 13 C 0.519978 1.696430 1.682728 0
M  V30 14 C -0.579219 2.374830 2.150184 0
M  V30 15 N -0.559914 2.964985 3.440035 0
M  V30 16 C 0.560415 2.942343 4.334967 0
M  V30 17 C 0.031470 2.586617 5.721779 0
M  V30 18 N -1.170316 1.821911 5.586276 0
M  V30 19 C -2.216807 2.699196 5.105338 0
M  V30 20 C -1.651721 3.683967 4.069452 0
M  V30 21 C -1.677863 2.458756 1.326016 0
M  V30 22 C -1.727811 1.897399 0.060041 0
M  V30 23 N 0.459901 -1.446015 -1.830659 0
M  V30 24 C 1.431213 -2.329011 -2.096207 0
M  V30 25 N 1.246301 -3.630230 -1.801173 0
M  V30 26 C 0.067024 -4.169217 -1.214847 0
M  V30 27 C -0.749187 -5.021896 -2.196377 0
M  V30 28 C -1.935750 -5.361217 -1.317442 0
M  V30 29 C -2.049098 -4.212270 -0.306365 0
M  V30 30 C -0.991698 -3.204969 -0.800260 0
M  V30 31 H 4.532472 -2.427467 -3.397935 0
M  V30 32 H 3.590176 -0.144676 -3.379236 0
M  V30 33 H -1.445598 0.742762 -2.310407 0
M  V30 34 H 1.342071 0.588621 0.025997 0
M  V30 35 H 1.424044 1.560814 2.214661 0
M  V30 36 H 1.343695 2.220921 4.118199 0
M  V30 37 H 1.071816 3.945760 4.370317 0
M  V30 38 H -0.184790 3.499316 6.312175 0
M  V30 39 H 0.761291 1.961368 6.265181 0
M  V30 40 H -1.062839 0.950536 5.052908 0
M  V30 41 H -2.781966 3.212968 5.884995 0
M  V30 42 H -2.929874 2.039295 4.546647 0
M  V30 43 H -2.481843 3.925105 3.392004 0
M  V30 44 H -1.334151 4.624380 4.566401 0
M  V30 45 H -2.583394 2.972422 1.613058 0
M  V30 46 H -2.609789 1.974955 -0.578097 0
M  V30 47 H 0.271339 -4.844236 -0.349497 0
M  V30 48 H -0.195387 -5.913022 -2.541487 0
M  V30 49 H -1.123056 -4.376046 -3.035544 0
M  V30 50 H -1.679956 -6.284494 -0.760349 0
M  V30 51 H -2.874979 -5.462587 -1.896613 0
M  V30 52 H -3.064897 -3.797838 -0.368872 0
M  V30 53 H -1.771136 -4.555969 0.690635 0
M  V30 54 H -1.521972 -2.723327 -1.676457 0
M  V30 55 H -0.736736 -2.515938 -0.000179 0
M  V30 END ATOM
M  V30 BEGIN BOND
M  V30 1 2 1 2
M  V30 2 1 2 3
M  V30 3 1 3 4
M  V30 4 2 3 5
M  V30 5 1 5 6
M  V30 6 2 6 7
M  V30 7 1 7 8
M  V30 8 2 8 9
M  V30 9 1 9 10
M  V30 10 1 10 11
M  V30 11 2 11 12
M  V30 12 1 12 13
M  V30 13 2 13 14
M  V30 14 1 14 15
M  V30 15 1 15 16
M  V30 16 1 16 17
M  V30 17 1 17 18
M  V30 18 1 18 19
M  V30 19 1 19 20
M  V30 20 1 14 21
M  V30 21 2 21 22
M  V30 22 1 9 23
M  V30 23 2 23 24
M  V30 24 1 24 25
M  V30 25 1 25 26
M  V30 26 1 26 27
M  V30 27 1 27 28
M  V30 28 1 28 29
M  V30 29 1 29 30
M  V30 30 1 25 2
M  V30 31 1 30 26
M  V30 32 1 24 6
M  V30 33 1 22 11
M  V30 34 1 20 15
M  V30 35 1 5 31
M  V30 36 1 7 32
M  V30 37 1 10 33
M  V30 38 1 12 34
M  V30 39 1 13 35
M  V30 40 1 16 36
M  V30 41 1 16 37
M  V30 42 1 17 38
M  V30 43 1 17 39
M  V30 44 1 18 40
M  V30 45 1 19 41
M  V30 46 1 19 42
M  V30 47 1 20 43
M  V30 48 1 20 44
M  V30 49 1 21 45
M  V30 50 1 22 46
M  V30 51 1 26 47
M  V30 52 1 27 48
M  V30 53 1 27 49
M  V30 54 1 28 50
M  V30 55 1 28 51
M  V30 56 1 29 52
M  V30 57 1 29 53
M  V30 58 1 30 54
M  V30 59 1 30 55
M  V30 END BOND
M  V30 END CTAB
M  END
>  <Dataset>  (315) 
ChEMBL_Kinases

>  <Ligand_Instance>  (315) 
nan

>  <PDB_ID>  (315) 
nan

>  <Standardized_SMILES>  (315) 
O=c1c(Br)cc2cnc(Nc3ccc(N4CCNCC4)cc3)nc2n1C1CCCC1

>  <Name>  (315) 
nan

>  <Pocket>  (315) 
nan

>  <ATP_Site>  (315) 
nan

>  <Peripheral>  (315) 
nan

>  <Num_H_Atoms_ProtBoundConf>  (315) 
nan

>  <Num_Resolved_Atoms>  (315) 
nan

>  <Num_Not_Resolved_Atoms>  (315) 
nan

$$$$
CHEMBL1366393
     RDKit          3D

  0  0  0  0  0  0  0  0  0  0999 V3000
M  V30 BEGIN CTAB
M  V30 COUNTS 45 48 0 0 0
M  V30 BEGIN ATOM
M  V30 1 C 0.245885 -7.512986 2.924018 0
M  V30 2 O -0.299250 -6.304849 2.480635 0
M  V30 3 C 0.475494 -5.272197 1.991775 0
M  V30 4 C 1.843781 -5.250468 1.857214 0
M  V30 5 C 2.562407 -4.184315 1.361254 0
M  V30 6 C 1.902265 -3.041454 0.961074 0
M  V30 7 C 0.532752 -3.038208 1.085577 0
M  V30 8 C -0.273021 -1.890363 0.701621 0
M  V30 9 N 0.350621 -0.817426 0.218734 0
M  V30 10 C -0.258491 0.306637 -0.170737 0
M  V30 11 N 0.203903 1.528181 -0.697109 0
M  V30 12 C 0.656962 2.725030 -1.212841 0
M  V30 13 C 1.566640 3.428830 -0.233335 0
M  V30 14 C 2.942550 3.193639 -0.276108 0
M  V30 15 C 3.853777 3.780181 0.574185 0
M  V30 16 C 3.340857 4.661024 1.528468 0
M  V30 17 C 1.979180 4.906528 1.585654 0
M  V30 18 C 1.098567 4.299316 0.716316 0
M  V30 19 C -1.653125 0.335507 -0.053692 0
M  V30 20 C -2.483799 1.378717 -0.390097 0
M  V30 21 C -3.848700 1.355084 -0.254878 0
M  V30 22 C -4.462349 0.235149 0.245020 0
M  V30 23 C -3.711926 -0.860888 0.609961 0
M  V30 24 C -2.349336 -0.755154 0.442636 0
M  V30 25 N -1.600094 -1.810564 0.791973 0
M  V30 26 C -0.183264 -4.105644 1.581692 0
M  V30 27 H 1.298232 -7.448542 3.207567 0
M  V30 28 H 0.081959 -8.281560 2.114785 0
M  V30 29 H -0.344772 -7.821049 3.825774 0
M  V30 30 H 2.393267 -6.127675 2.158964 0
M  V30 31 H 3.655911 -4.262008 1.292097 0
M  V30 32 H 2.438173 -2.192698 0.569846 0
M  V30 33 H 1.225298 1.213121 -0.681991 0
M  V30 34 H -0.162151 3.453236 -1.498768 0
M  V30 35 H 1.243491 2.675516 -2.181333 0
M  V30 36 H 3.335367 2.513437 -1.013675 0
M  V30 37 H 4.907176 3.562502 0.495961 0
M  V30 38 H 4.065214 5.132059 2.209802 0
M  V30 39 H 1.633406 5.607979 2.356852 0
M  V30 40 H 0.053449 4.498118 0.773195 0
M  V30 41 H -2.043903 2.277208 -0.785713 0
M  V30 42 H -4.430728 2.218545 -0.543037 0
M  V30 43 H -5.530873 0.166686 0.370350 0
M  V30 44 H -4.139727 -1.770095 1.009230 0
M  V30 45 H -1.282241 -4.077092 1.671232 0
M  V30 END ATOM
M  V30 BEGIN BOND
M  V30 1 1 1 2
M  V30 2 1 2 3
M  V30 3 2 3 4
M  V30 4 1 4 5
M  V30 5 2 5 6
M  V30 6 1 6 7
M  V30 7 1 7 8
M  V30 8 2 8 9
M  V30 9 1 9 10
M  V30 10 1 10 11
M  V30 11 1 11 12
M  V30 12 1 12 13
M  V30 13 2 13 14
M  V30 14 1 14 15
M  V30 15 2 15 16
M  V30 16 1 16 17
M  V30 17 2 17 18
M  V30 18 2 10 19
M  V30 19 1 19 20
M  V30 20 2 20 21
M  V30 21 1 21 22
M  V30 22 2 22 23
M  V30 23 1 23 24
M  V30 24 2 24 25
M  V30 25 2 7 26
M  V30 26 1 26 3
M  V30 27 1 25 8
M  V30 28 1 18 13
M  V30 29 1 24 19
M  V30 30 1 1 27
M  V30 31 1 1 28
M  V30 32 1 1 29
M  V30 33 1 4 30
M  V30 34 1 5 31
M  V30 35 1 6 32
M  V30 36 1 11 33
M  V30 37 1 12 34
M  V30 38 1 12 35
M  V30 39 1 14 36
M  V30 40 1 15 37
M  V30 41 1 16 38
M  V30 42 1 17 39
M  V30 43 1 18 40
M  V30 44 1 20 41
M  V30 45 1 21 42
M  V30 46 1 22 43
M  V30 47 1 23 44
M  V30 48 1 26 45
M  V30 END BOND
M  V30 END CTAB
M  END
>  <Dataset>  (316) 
ChEMBL_Kinases

>  <Ligand_Instance>  (316) 
nan

>  <PDB_ID>  (316) 
nan

>  <Standardized_SMILES>  (316) 
COc1cccc(-c2nc(NCc3ccccc3)c3ccccc3n2)c1

>  <Name>  (316) 
nan

>  <Pocket>  (316) 
nan

>  <ATP_Site>  (316) 
nan

>  <Peripheral>  (316) 
nan

>  <Num_H_Atoms_ProtBoundConf>  (316) 
nan

>  <Num_Resolved_Atoms>  (316) 
nan

>  <Num_Not_Resolved_Atoms>  (316) 
nan

$$$$
CHEMBL1910191
     RDKit          3D

  0  0  0  0  0  0  0  0  0  0999 V3000
M  V30 BEGIN CTAB
M  V30 COUNTS 42 45 0 0 0
M  V30 BEGIN ATOM
M  V30 1 C 4.095731 -6.300667 1.461064 0
M  V30 2 S 3.337913 -6.204827 -0.159682 0
M  V30 3 O 4.344975 -6.612443 -1.199537 0
M  V30 4 O 2.150805 -7.090118 -0.219097 0
M  V30 5 C 2.837095 -4.558702 -0.434634 0
M  V30 6 C 1.557328 -4.193660 -0.026750 0
M  V30 7 C 1.075522 -2.905604 -0.204883 0
M  V30 8 C 1.909845 -1.984426 -0.805002 0
M  V30 9 C 1.484521 -0.606627 -1.030033 0
M  V30 10 C 1.899549 0.187690 -2.076454 0
M  V30 11 N 1.453569 1.450038 -2.202059 0
M  V30 12 C 0.591849 1.997993 -1.327502 0
M  V30 13 C 0.131742 1.254055 -0.248316 0
M  V30 14 C -0.803063 1.847407 0.701133 0
M  V30 15 C -1.328758 1.213436 1.806550 0
M  V30 16 C -2.150652 2.155771 2.393579 0
M  V30 17 C -2.957697 2.151110 3.518682 0
M  V30 18 C -3.711999 3.251017 3.918408 0
M  V30 19 O -4.507853 3.201358 5.054440 0
M  V30 20 C -3.621557 4.377465 3.127816 0
M  V30 21 C -2.827526 4.431678 1.991550 0
M  V30 22 C -2.090263 3.303608 1.631973 0
M  V30 23 N -1.261392 3.107604 0.594760 0
M  V30 24 C 0.595350 -0.039358 -0.128776 0
M  V30 25 C 3.180062 -2.328588 -1.215122 0
M  V30 26 C 3.661304 -3.624078 -1.034615 0
M  V30 27 H 4.762126 -5.440938 1.582953 0
M  V30 28 H 4.568303 -7.281540 1.584231 0
M  V30 29 H 3.262972 -6.226651 2.192495 0
M  V30 30 H 0.879693 -4.900322 0.448953 0
M  V30 31 H 0.091808 -2.572796 0.093508 0
M  V30 32 H 2.603788 -0.287810 -2.774706 0
M  V30 33 H 0.251083 3.014192 -1.454428 0
M  V30 34 H -1.139559 0.195687 2.144210 0
M  V30 35 H -2.977953 1.221926 4.095200 0
M  V30 36 H -4.121324 2.645720 5.830229 0
M  V30 37 H -4.203147 5.245797 3.424394 0
M  V30 38 H -2.827632 5.376337 1.434517 0
M  V30 39 H -1.054314 3.846338 -0.129315 0
M  V30 40 H 0.222282 -0.580660 0.709612 0
M  V30 41 H 3.848252 -1.615458 -1.688827 0
M  V30 42 H 4.652115 -3.913497 -1.348805 0
M  V30 END ATOM
M  V30 BEGIN BOND
M  V30 1 1 1 2
M  V30 2 2 2 3
M  V30 3 2 2 4
M  V30 4 1 2 5
M  V30 5 2 5 6
M  V30 6 1 6 7
M  V30 7 2 7 8
M  V30 8 1 8 9
M  V30 9 2 9 10
M  V30 10 1 10 11
M  V30 11 2 11 12
M  V30 12 1 12 13
M  V30 13 1 13 14
M  V30 14 2 14 15
M  V30 15 1 15 16
M  V30 16 2 16 17
M  V30 17 1 17 18
M  V30 18 1 18 19
M  V30 19 2 18 20
M  V30 20 1 20 21
M  V30 21 2 21 22
M  V30 22 1 22 23
M  V30 23 2 13 24
M  V30 24 1 8 25
M  V30 25 2 25 26
M  V30 26 1 26 5
M  V30 27 1 24 9
M  V30 28 1 23 14
M  V30 29 1 22 16
M  V30 30 1 1 27
M  V30 31 1 1 28
M  V30 32 1 1 29
M  V30 33 1 6 30
M  V30 34 1 7 31
M  V30 35 1 10 32
M  V30 36 1 12 33
M  V30 37 1 15 34
M  V30 38 1 17 35
M  V30 39 1 19 36
M  V30 40 1 20 37
M  V30 41 1 21 38
M  V30 42 1 23 39
M  V30 43 1 24 40
M  V30 44 1 25 41
M  V30 45 1 26 42
M  V30 END BOND
M  V30 END CTAB
M  END
>  <Dataset>  (317) 
ChEMBL_Kinases

>  <Ligand_Instance>  (317) 
nan

>  <PDB_ID>  (317) 
nan

>  <Standardized_SMILES>  (317) 
CS(=O)(=O)c1ccc(-c2cncc(-c3cc4cc(O)ccc4[nH]3)c2)cc1

>  <Name>  (317) 
nan

>  <Pocket>  (317) 
nan

>  <ATP_Site>  (317) 
nan

>  <Peripheral>  (317) 
nan

>  <Num_H_Atoms_ProtBoundConf>  (317) 
nan

>  <Num_Resolved_Atoms>  (317) 
nan

>  <Num_Not_Resolved_Atoms>  (317) 
nan

$$$$
CHEMBL1915426
     RDKit          3D

  0  0  0  0  0  0  0  0  0  0999 V3000
M  V30 BEGIN CTAB
M  V30 COUNTS 40 44 0 0 0
M  V30 BEGIN ATOM
M  V30 1 Cl 3.635565 -2.401081 3.134093 0
M  V30 2 C 2.026937 -1.975179 3.735098 0
M  V30 3 C 1.651170 -2.082710 5.057796 0
M  V30 4 C 0.380909 -1.743508 5.496266 0
M  V30 5 C -0.506830 -1.288097 4.548252 0
M  V30 6 C -0.216333 -1.147974 3.200346 0
M  V30 7 N -1.199581 -0.675846 2.289940 0
M  V30 8 C -0.713979 -0.622282 0.932906 0
M  V30 9 N -0.235113 0.481760 0.340562 0
M  V30 10 C 0.212376 0.463458 -0.924621 0
M  V30 11 C 0.681615 1.643129 -1.446143 0
M  V30 12 C 0.756100 2.924751 -0.773831 0
M  V30 13 N 1.189615 4.089668 -1.267578 0
M  V30 14 N 1.114924 5.044518 -0.376719 0
M  V30 15 C 0.625862 4.540630 0.748310 0
M  V30 16 N 0.402301 3.233105 0.511613 0
M  V30 17 C 1.124929 1.562258 -2.746545 0
M  V30 18 C 1.106723 0.398329 -3.483683 0
M  V30 19 C 0.626195 -0.772199 -2.925087 0
M  V30 20 C 0.183325 -0.715283 -1.640790 0
M  V30 21 C -0.307287 -1.852712 -1.039353 0
M  V30 22 C -0.353140 -3.035453 -1.705546 0
M  V30 23 N -0.831628 -4.169836 -1.130390 0
M  V30 24 C -1.276140 -4.132799 0.136265 0
M  V30 25 C -1.266708 -2.983953 0.881107 0
M  V30 26 C -0.769732 -1.845398 0.258365 0
M  V30 27 C 1.073074 -1.512094 2.871228 0
M  V30 28 H 2.403953 -2.453567 5.752282 0
M  V30 29 H 0.128221 -1.843745 6.542981 0
M  V30 30 H -1.507831 -1.024875 4.925002 0
M  V30 31 H -2.134721 -0.421054 2.656117 0
M  V30 32 H 0.508930 5.217631 1.565064 0
M  V30 33 H 0.014646 2.612529 1.245581 0
M  V30 34 H 1.516244 2.461312 -3.244780 0
M  V30 35 H 1.473806 0.412400 -4.507310 0
M  V30 36 H 0.646853 -1.628823 -3.566209 0
M  V30 37 H -0.036030 -3.208524 -2.703916 0
M  V30 38 H -1.662498 -5.029892 0.617250 0
M  V30 39 H -1.625787 -2.942799 1.910392 0
M  V30 40 H 1.362544 -1.424239 1.831513 0
M  V30 END ATOM
M  V30 BEGIN BOND
M  V30 1 1 1 2
M  V30 2 2 2 3
M  V30 3 1 3 4
M  V30 4 2 4 5
M  V30 5 1 5 6
M  V30 6 1 6 7
M  V30 7 1 7 8
M  V30 8 2 8 9
M  V30 9 1 9 10
M  V30 10 2 10 11
M  V30 11 1 11 12
M  V30 12 2 12 13
M  V30 13 1 13 14
M  V30 14 2 14 15
M  V30 15 1 15 16
M  V30 16 1 11 17
M  V30 17 2 17 18
M  V30 18 1 18 19
M  V30 19 2 19 20
M  V30 20 1 20 21
M  V30 21 2 21 22
M  V30 22 1 22 23
M  V30 23 2 23 24
M  V30 24 1 24 25
M  V30 25 2 25 26
M  V30 26 2 6 27
M  V30 27 1 27 2
M  V30 28 1 26 8
M  V30 29 1 20 10
M  V30 30 1 26 21
M  V30 31 1 16 12
M  V30 32 1 3 28
M  V30 33 1 4 29
M  V30 34 1 5 30
M  V30 35 1 7 31
M  V30 36 1 15 32
M  V30 37 1 16 33
M  V30 38 1 17 34
M  V30 39 1 18 35
M  V30 40 1 19 36
M  V30 41 1 22 37
M  V30 42 1 24 38
M  V30 43 1 25 39
M  V30 44 1 27 40
M  V30 END BOND
M  V30 END CTAB
M  END
>  <Dataset>  (318) 
ChEMBL_Kinases

>  <Ligand_Instance>  (318) 
nan

>  <PDB_ID>  (318) 
nan

>  <Standardized_SMILES>  (318) 
Clc1cccc(Nc2nc3c(-c4nnc[nH]4)cccc3c3cnccc23)c1

>  <Name>  (318) 
nan

>  <Pocket>  (318) 
nan

>  <ATP_Site>  (318) 
nan

>  <Peripheral>  (318) 
nan

>  <Num_H_Atoms_ProtBoundConf>  (318) 
nan

>  <Num_Resolved_Atoms>  (318) 
nan

>  <Num_Not_Resolved_Atoms>  (318) 
nan

$$$$
CHEMBL1915425
     RDKit          3D

  0  0  0  0  0  0  0  0  0  0999 V3000
M  V30 BEGIN CTAB
M  V30 COUNTS 48 51 0 0 0
M  V30 BEGIN ATOM
M  V30 1 C 3.782892 -2.214830 5.542778 0
M  V30 2 O 4.566534 -2.671585 4.490941 0
M  V30 3 C 3.976448 -2.529663 3.248468 0
M  V30 4 C 3.650858 -1.100089 2.879012 0
M  V30 5 N 3.047708 -1.135925 1.558862 0
M  V30 6 C 2.600311 0.025012 0.860463 0
M  V30 7 O 2.737048 1.162624 1.427940 0
M  V30 8 C 1.994263 -0.081932 -0.484105 0
M  V30 9 C 2.918443 0.189154 -1.498719 0
M  V30 10 C 2.492993 0.124633 -2.823740 0
M  V30 11 C 1.177329 -0.203850 -3.111456 0
M  V30 12 C 0.291518 -0.464811 -2.094600 0
M  V30 13 C 0.700743 -0.403885 -0.781745 0
M  V30 14 N -0.093083 -0.641229 0.262453 0
M  V30 15 C -1.389189 -0.964266 0.007934 0
M  V30 16 N -2.258381 -1.217830 1.102670 0
M  V30 17 C -2.943290 -0.045614 1.583030 0
M  V30 18 C -2.735299 1.178152 0.984050 0
M  V30 19 C -3.361095 2.361986 1.393494 0
M  V30 20 C -4.233725 2.296305 2.454570 0
M  V30 21 C -4.440898 1.065002 3.054751 0
M  V30 22 Cl -5.572447 1.063165 4.405814 0
M  V30 23 C -3.823400 -0.107214 2.652476 0
M  V30 24 C -1.829178 -1.033288 -1.299656 0
M  V30 25 C -3.147291 -1.363147 -1.522454 0
M  V30 26 C -3.543243 -1.419867 -2.831866 0
M  V30 27 N -2.737831 -1.177177 -3.904616 0
M  V30 28 C -1.435053 -0.852238 -3.667087 0
M  V30 29 C -1.012150 -0.788330 -2.380906 0
M  V30 30 H 4.334745 -2.378896 6.517522 0
M  V30 31 H 3.685237 -1.091824 5.439225 0
M  V30 32 H 2.758971 -2.629302 5.553942 0
M  V30 33 H 4.599357 -3.026368 2.483362 0
M  V30 34 H 3.036300 -3.156348 3.290930 0
M  V30 35 H 2.974109 -0.629504 3.623759 0
M  V30 36 H 4.604294 -0.546134 2.921662 0
M  V30 37 H 2.896242 -2.042234 1.018052 0
M  V30 38 H 3.968125 0.452384 -1.319778 0
M  V30 39 H 3.237000 0.341944 -3.605717 0
M  V30 40 H 0.977630 -0.218935 -4.160701 0
M  V30 41 H -2.464560 -2.118915 1.595804 0
M  V30 42 H -2.062221 1.306144 0.139738 0
M  V30 43 H -3.155819 3.306883 0.881615 0
M  V30 44 H -4.736368 3.187859 2.796346 0
M  V30 45 H -4.016845 -1.050248 3.155998 0
M  V30 46 H -3.851771 -1.570309 -0.729612 0
M  V30 47 H -4.567971 -1.675234 -3.064195 0
M  V30 48 H -0.853964 -0.677441 -4.551983 0
M  V30 END ATOM
M  V30 BEGIN BOND
M  V30 1 1 1 2
M  V30 2 1 2 3
M  V30 3 1 3 4
M  V30 4 1 4 5
M  V30 5 1 5 6
M  V30 6 2 6 7
M  V30 7 1 6 8
M  V30 8 2 8 9
M  V30 9 1 9 10
M  V30 10 2 10 11
M  V30 11 1 11 12
M  V30 12 2 12 13
M  V30 13 1 13 14
M  V30 14 2 14 15
M  V30 15 1 15 16
M  V30 16 1 16 17
M  V30 17 2 17 18
M  V30 18 1 18 19
M  V30 19 2 19 20
M  V30 20 1 20 21
M  V30 21 1 21 22
M  V30 22 2 21 23
M  V30 23 1 15 24
M  V30 24 2 24 25
M  V30 25 1 25 26
M  V30 26 2 26 27
M  V30 27 1 27 28
M  V30 28 2 28 29
M  V30 29 1 13 8
M  V30 30 1 23 17
M  V30 31 1 29 24
M  V30 32 1 29 12
M  V30 33 1 1 30
M  V30 34 1 1 31
M  V30 35 1 1 32
M  V30 36 1 3 33
M  V30 37 1 3 34
M  V30 38 1 4 35
M  V30 39 1 4 36
M  V30 40 1 5 37
M  V30 41 1 9 38
M  V30 42 1 10 39
M  V30 43 1 11 40
M  V30 44 1 16 41
M  V30 45 1 18 42
M  V30 46 1 19 43
M  V30 47 1 20 44
M  V30 48 1 23 45
M  V30 49 1 25 46
M  V30 50 1 26 47
M  V30 51 1 28 48
M  V30 END BOND
M  V30 END CTAB
M  END
>  <Dataset>  (319) 
ChEMBL_Kinases

>  <Ligand_Instance>  (319) 
nan

>  <PDB_ID>  (319) 
nan

>  <Standardized_SMILES>  (319) 
COCCNC(=O)c1cccc2c1nc(Nc1cccc(Cl)c1)c1ccncc12

>  <Name>  (319) 
nan

>  <Pocket>  (319) 
nan

>  <ATP_Site>  (319) 
nan

>  <Peripheral>  (319) 
nan

>  <Num_H_Atoms_ProtBoundConf>  (319) 
nan

>  <Num_Resolved_Atoms>  (319) 
nan

>  <Num_Not_Resolved_Atoms>  (319) 
nan

$$$$
CHEMBL1915424
     RDKit          3D

  0  0  0  0  0  0  0  0  0  0999 V3000
M  V30 BEGIN CTAB
M  V30 COUNTS 45 49 0 0 0
M  V30 BEGIN ATOM
M  V30 1 O 3.224073 1.375963 1.345021 0
M  V30 2 C 2.452409 1.322265 0.324794 0
M  V30 3 N 1.580034 2.392621 0.079788 0
M  V30 4 C 1.336292 3.638873 0.780461 0
M  V30 5 C -0.113117 4.145515 0.722614 0
M  V30 6 C 0.986619 4.834498 -0.019315 0
M  V30 7 C 2.539027 0.138561 -0.514602 0
M  V30 8 C 3.579733 -0.161874 -1.373879 0
M  V30 9 C 3.586874 -1.322089 -2.137518 0
M  V30 10 C 2.526585 -2.211684 -2.042870 0
M  V30 11 C 1.502625 -1.921085 -1.200428 0
M  V30 12 C 1.481230 -0.773760 -0.437910 0
M  V30 13 N 0.457622 -0.515813 0.386174 0
M  V30 14 C -0.603340 -1.319980 0.541866 0
M  V30 15 N -1.762250 -1.181878 1.356430 0
M  V30 16 C -1.631626 -1.258467 2.783461 0
M  V30 17 C -0.385268 -1.098620 3.356067 0
M  V30 18 C -0.261374 -1.174495 4.724557 0
M  V30 19 C -1.331230 -1.403812 5.541260 0
M  V30 20 C -2.588975 -1.566744 4.972263 0
M  V30 21 Cl -4.060851 -1.874134 5.913497 0
M  V30 22 C -2.723730 -1.491804 3.600448 0
M  V30 23 C -0.644063 -2.508715 -0.204617 0
M  V30 24 C -1.690566 -3.438688 -0.140565 0
M  V30 25 C -1.682964 -4.576661 -0.888971 0
M  V30 26 N -0.641382 -4.789449 -1.696413 0
M  V30 27 C 0.389873 -3.941326 -1.803582 0
M  V30 28 C 0.426934 -2.763422 -1.058733 0
M  V30 29 H 0.998341 2.247548 -0.789016 0
M  V30 30 H 1.861656 3.857408 1.732868 0
M  V30 31 H -0.554106 4.583146 1.642544 0
M  V30 32 H -0.829059 3.529524 0.120932 0
M  V30 33 H 1.221127 5.843767 0.416853 0
M  V30 34 H 1.043336 4.853460 -1.118369 0
M  V30 35 H 4.388609 0.550046 -1.431500 0
M  V30 36 H 4.425953 -1.496061 -2.787889 0
M  V30 37 H 2.604123 -3.076780 -2.656984 0
M  V30 38 H -2.697447 -1.024255 0.901036 0
M  V30 39 H 0.506106 -0.910139 2.759436 0
M  V30 40 H 0.729327 -1.040532 5.139671 0
M  V30 41 H -1.262069 -1.464973 6.617862 0
M  V30 42 H -3.664302 -1.607498 3.057040 0
M  V30 43 H -2.513546 -3.212228 0.529749 0
M  V30 44 H -2.508591 -5.277927 -0.821612 0
M  V30 45 H 1.130183 -4.281307 -2.501771 0
M  V30 END ATOM
M  V30 BEGIN BOND
M  V30 1 2 1 2
M  V30 2 1 2 3
M  V30 3 1 3 4
M  V30 4 1 4 5
M  V30 5 1 5 6
M  V30 6 1 2 7
M  V30 7 2 7 8
M  V30 8 1 8 9
M  V30 9 2 9 10
M  V30 10 1 10 11
M  V30 11 2 11 12
M  V30 12 1 12 13
M  V30 13 2 13 14
M  V30 14 1 14 15
M  V30 15 1 15 16
M  V30 16 2 16 17
M  V30 17 1 17 18
M  V30 18 2 18 19
M  V30 19 1 19 20
M  V30 20 1 20 21
M  V30 21 2 20 22
M  V30 22 1 14 23
M  V30 23 2 23 24
M  V30 24 1 24 25
M  V30 25 2 25 26
M  V30 26 1 26 27
M  V30 27 2 27 28
M  V30 28 1 6 4
M  V30 29 1 12 7
M  V30 30 1 22 16
M  V30 31 1 28 23
M  V30 32 1 28 11
M  V30 33 1 3 29
M  V30 34 1 4 30
M  V30 35 1 5 31
M  V30 36 1 5 32
M  V30 37 1 6 33
M  V30 38 1 6 34
M  V30 39 1 8 35
M  V30 40 1 9 36
M  V30 41 1 10 37
M  V30 42 1 15 38
M  V30 43 1 17 39
M  V30 44 1 18 40
M  V30 45 1 19 41
M  V30 46 1 22 42
M  V30 47 1 24 43
M  V30 48 1 25 44
M  V30 49 1 27 45
M  V30 END BOND
M  V30 END CTAB
M  END
>  <Dataset>  (320) 
ChEMBL_Kinases

>  <Ligand_Instance>  (320) 
nan

>  <PDB_ID>  (320) 
nan

>  <Standardized_SMILES>  (320) 
O=C(NC1CC1)c1cccc2c1nc(Nc1cccc(Cl)c1)c1ccncc12

>  <Name>  (320) 
nan

>  <Pocket>  (320) 
nan

>  <ATP_Site>  (320) 
nan

>  <Peripheral>  (320) 
nan

>  <Num_H_Atoms_ProtBoundConf>  (320) 
nan

>  <Num_Resolved_Atoms>  (320) 
nan

>  <Num_Not_Resolved_Atoms>  (320) 
nan

$$$$
CHEMBL1915422
     RDKit          3D

  0  0  0  0  0  0  0  0  0  0999 V3000
M  V30 BEGIN CTAB
M  V30 COUNTS 41 44 0 0 0
M  V30 BEGIN ATOM
M  V30 1 C 3.927566 -2.821779 1.246049 0
M  V30 2 N 2.793386 -2.550044 0.366170 0
M  V30 3 C 2.672211 -1.518047 -0.638960 0
M  V30 4 O 3.750074 -0.871862 -0.628670 0
M  V30 5 C 1.363273 -1.618957 -1.270815 0
M  V30 6 C 1.097876 -2.532207 -2.274215 0
M  V30 7 C -0.178865 -2.557712 -2.810384 0
M  V30 8 C -1.125570 -1.664568 -2.312521 0
M  V30 9 C -0.868221 -0.755707 -1.317207 0
M  V30 10 C 0.408904 -0.744092 -0.794524 0
M  V30 11 N 0.704959 0.132488 0.197315 0
M  V30 12 C -0.212085 0.994402 0.688820 0
M  V30 13 N 0.237173 1.868832 1.712813 0
M  V30 14 C 0.402646 1.029492 2.861826 0
M  V30 15 C 1.778830 0.755282 2.950729 0
M  V30 16 C 2.307148 -0.035573 3.952861 0
M  V30 17 C 1.440945 -0.570227 4.897952 0
M  V30 18 C 0.096718 -0.291971 4.798459 0
M  V30 19 Cl -1.095616 -0.915833 5.937261 0
M  V30 20 C -0.440911 0.493601 3.803360 0
M  V30 21 C -1.478574 0.969143 0.156373 0
M  V30 22 C -2.427982 1.859141 0.658416 0
M  V30 23 C -3.676709 1.783030 0.079540 0
M  V30 24 N -3.976607 0.919414 -0.899926 0
M  V30 25 C -3.086614 0.050843 -1.405543 0
M  V30 26 C -1.834678 0.101824 -0.850272 0
M  V30 27 H 4.241336 -3.883351 1.181850 0
M  V30 28 H 4.808226 -2.200238 0.979395 0
M  V30 29 H 3.609334 -2.658942 2.300766 0
M  V30 30 H 2.070375 -3.279704 0.630639 0
M  V30 31 H 1.901656 -3.159994 -2.571625 0
M  V30 32 H -0.356530 -3.277959 -3.592663 0
M  V30 33 H -2.054096 -1.786455 -2.802044 0
M  V30 34 H 0.470834 2.837895 1.934967 0
M  V30 35 H 2.597114 1.091158 2.296895 0
M  V30 36 H 3.352342 -0.296996 4.090701 0
M  V30 37 H 1.800063 -1.196453 5.701602 0
M  V30 38 H -1.442575 0.799004 3.593211 0
M  V30 39 H -2.151850 2.535924 1.443760 0
M  V30 40 H -4.441617 2.469431 0.452231 0
M  V30 41 H -3.431056 -0.598281 -2.189512 0
M  V30 END ATOM
M  V30 BEGIN BOND
M  V30 1 1 1 2
M  V30 2 1 2 3
M  V30 3 2 3 4
M  V30 4 1 3 5
M  V30 5 2 5 6
M  V30 6 1 6 7
M  V30 7 2 7 8
M  V30 8 1 8 9
M  V30 9 2 9 10
M  V30 10 1 10 11
M  V30 11 2 11 12
M  V30 12 1 12 13
M  V30 13 1 13 14
M  V30 14 2 14 15
M  V30 15 1 15 16
M  V30 16 2 16 17
M  V30 17 1 17 18
M  V30 18 1 18 19
M  V30 19 2 18 20
M  V30 20 1 12 21
M  V30 21 2 21 22
M  V30 22 1 22 23
M  V30 23 2 23 24
M  V30 24 1 24 25
M  V30 25 2 25 26
M  V30 26 1 10 5
M  V30 27 1 20 14
M  V30 28 1 26 21
M  V30 29 1 26 9
M  V30 30 1 1 27
M  V30 31 1 1 28
M  V30 32 1 1 29
M  V30 33 1 2 30
M  V30 34 1 6 31
M  V30 35 1 7 32
M  V30 36 1 8 33
M  V30 37 1 13 34
M  V30 38 1 15 35
M  V30 39 1 16 36
M  V30 40 1 17 37
M  V30 41 1 20 38
M  V30 42 1 22 39
M  V30 43 1 23 40
M  V30 44 1 25 41
M  V30 END BOND
M  V30 END CTAB
M  END
>  <Dataset>  (321) 
ChEMBL_Kinases

>  <Ligand_Instance>  (321) 
nan

>  <PDB_ID>  (321) 
nan

>  <Standardized_SMILES>  (321) 
CNC(=O)c1cccc2c1nc(Nc1cccc(Cl)c1)c1ccncc12

>  <Name>  (321) 
nan

>  <Pocket>  (321) 
nan

>  <ATP_Site>  (321) 
nan

>  <Peripheral>  (321) 
nan

>  <Num_H_Atoms_ProtBoundConf>  (321) 
nan

>  <Num_Resolved_Atoms>  (321) 
nan

>  <Num_Not_Resolved_Atoms>  (321) 
nan

$$$$
CHEMBL1915421
     RDKit          3D

  0  0  0  0  0  0  0  0  0  0999 V3000
M  V30 BEGIN CTAB
M  V30 COUNTS 38 41 0 0 0
M  V30 BEGIN ATOM
M  V30 1 N 4.650446 -2.506035 -0.273716 0
M  V30 2 C 3.319277 -2.020719 -0.200976 0
M  V30 3 O 3.937851 -0.950579 -0.394348 0
M  V30 4 C 2.059572 -2.712641 0.009899 0
M  V30 5 C 2.132425 -4.076772 0.169124 0
M  V30 6 C 0.927482 -4.715776 0.368192 0
M  V30 7 C -0.253961 -3.973337 0.396239 0
M  V30 8 C -0.258539 -2.609207 0.229879 0
M  V30 9 C 0.927241 -1.934713 0.028531 0
M  V30 10 N 0.973335 -0.599234 -0.138016 0
M  V30 11 C -0.178950 0.115307 -0.108410 0
M  V30 12 N -0.089843 1.539293 -0.288440 0
M  V30 13 C 0.065372 2.386080 0.865713 0
M  V30 14 C 0.189505 3.758156 0.803934 0
M  V30 15 C 0.334274 4.529976 1.939736 0
M  V30 16 C 0.358300 3.924640 3.198281 0
M  V30 17 C 0.235792 2.551585 3.283880 0
M  V30 18 Cl 0.268017 1.803631 4.870879 0
M  V30 19 C 0.092259 1.801856 2.134878 0
M  V30 20 C -1.371091 -0.548294 0.092118 0
M  V30 21 C -2.506673 0.219362 0.113848 0
M  V30 22 C -3.688795 -0.469407 0.316825 0
M  V30 23 N -3.729476 -1.799526 0.481956 0
M  V30 24 C -2.632237 -2.575249 0.465006 0
M  V30 25 C -1.443062 -1.912903 0.264907 0
M  V30 26 H 4.672319 -3.477510 -0.684275 0
M  V30 27 H 4.550343 -3.473101 -0.694533 0
M  V30 28 H 3.066620 -4.618748 0.140643 0
M  V30 29 H 0.960449 -5.803397 0.497837 0
M  V30 30 H -1.113962 -4.600265 0.558620 0
M  V30 31 H -0.126585 2.065811 -1.206742 0
M  V30 32 H 0.166735 4.210069 -0.190954 0
M  V30 33 H 0.427039 5.613408 1.806224 0
M  V30 34 H 0.475514 4.564507 4.079819 0
M  V30 35 H -0.005150 0.715581 2.210726 0
M  V30 36 H -2.533001 1.294900 -0.014160 0
M  V30 37 H -4.628478 0.072885 0.345964 0
M  V30 38 H -2.755643 -3.610770 0.603093 0
M  V30 END ATOM
M  V30 BEGIN BOND
M  V30 1 1 1 2
M  V30 2 2 2 3
M  V30 3 1 2 4
M  V30 4 2 4 5
M  V30 5 1 5 6
M  V30 6 2 6 7
M  V30 7 1 7 8
M  V30 8 2 8 9
M  V30 9 1 9 10
M  V30 10 2 10 11
M  V30 11 1 11 12
M  V30 12 1 12 13
M  V30 13 2 13 14
M  V30 14 1 14 15
M  V30 15 2 15 16
M  V30 16 1 16 17
M  V30 17 1 17 18
M  V30 18 2 17 19
M  V30 19 1 11 20
M  V30 20 2 20 21
M  V30 21 1 21 22
M  V30 22 2 22 23
M  V30 23 1 23 24
M  V30 24 2 24 25
M  V30 25 1 9 4
M  V30 26 1 19 13
M  V30 27 1 25 20
M  V30 28 1 25 8
M  V30 29 1 1 26
M  V30 30 1 1 27
M  V30 31 1 5 28
M  V30 32 1 6 29
M  V30 33 1 7 30
M  V30 34 1 12 31
M  V30 35 1 14 32
M  V30 36 1 15 33
M  V30 37 1 16 34
M  V30 38 1 19 35
M  V30 39 1 21 36
M  V30 40 1 22 37
M  V30 41 1 24 38
M  V30 END BOND
M  V30 END CTAB
M  END
>  <Dataset>  (322) 
ChEMBL_Kinases

>  <Ligand_Instance>  (322) 
nan

>  <PDB_ID>  (322) 
nan

>  <Standardized_SMILES>  (322) 
NC(=O)c1cccc2c1nc(Nc1cccc(Cl)c1)c1ccncc12

>  <Name>  (322) 
nan

>  <Pocket>  (322) 
nan

>  <ATP_Site>  (322) 
nan

>  <Peripheral>  (322) 
nan

>  <Num_H_Atoms_ProtBoundConf>  (322) 
nan

>  <Num_Resolved_Atoms>  (322) 
nan

>  <Num_Not_Resolved_Atoms>  (322) 
nan

$$$$
CHEMBL1915420
     RDKit          3D

  0  0  0  0  0  0  0  0  0  0999 V3000
M  V30 BEGIN CTAB
M  V30 COUNTS 40 43 0 0 0
M  V30 BEGIN ATOM
M  V30 1 C 3.605409 -1.581981 2.017832 0
M  V30 2 O 2.510625 -1.573998 1.120830 0
M  V30 3 C 2.423801 -2.539503 0.108131 0
M  V30 4 O 3.357662 -3.349712 0.094553 0
M  V30 5 C 1.259687 -2.453713 -0.779229 0
M  V30 6 C 1.202867 -3.379876 -1.797678 0
M  V30 7 C 0.175190 -3.404822 -2.733504 0
M  V30 8 C -0.825349 -2.449125 -2.620230 0
M  V30 9 C -0.759909 -1.533364 -1.604982 0
M  V30 10 C 0.262636 -1.492147 -0.655233 0
M  V30 11 N 0.336735 -0.596536 0.338526 0
M  V30 12 C -0.608535 0.347858 0.475459 0
M  V30 13 N -0.554923 1.302964 1.522485 0
M  V30 14 C 0.300064 1.390229 2.647175 0
M  V30 15 C 0.976810 2.463111 3.203983 0
M  V30 16 C 1.736646 2.331616 4.342008 0
M  V30 17 C 1.842480 1.105374 4.966161 0
M  V30 18 C 1.177501 0.008035 4.435856 0
M  V30 19 Cl 1.345870 -1.518152 5.311336 0
M  V30 20 C 0.409433 0.149357 3.280965 0
M  V30 21 C -1.659957 0.391820 -0.414314 0
M  V30 22 C -2.685183 1.317811 -0.364298 0
M  V30 23 C -3.739070 1.361083 -1.251720 0
M  V30 24 N -3.730369 0.417765 -2.218353 0
M  V30 25 C -2.752832 -0.504189 -2.306231 0
M  V30 26 C -1.700528 -0.547689 -1.421048 0
M  V30 27 H 4.203875 -2.506247 1.897181 0
M  V30 28 H 4.192404 -0.647593 1.894501 0
M  V30 29 H 3.231191 -1.576347 3.056893 0
M  V30 30 H 1.959331 -4.134566 -1.923134 0
M  V30 31 H 0.140358 -4.129264 -3.525160 0
M  V30 32 H -1.601639 -2.484839 -3.340396 0
M  V30 33 H -1.136563 2.130240 1.666635 0
M  V30 34 H 0.823327 3.356587 2.638267 0
M  V30 35 H 2.229895 3.236471 4.696047 0
M  V30 36 H 2.447586 1.016531 5.864220 0
M  V30 37 H -0.046115 -0.795042 2.988943 0
M  V30 38 H -2.680187 2.055192 0.400073 0
M  V30 39 H -4.512686 2.115705 -1.161008 0
M  V30 40 H -2.954061 -1.147488 -3.145717 0
M  V30 END ATOM
M  V30 BEGIN BOND
M  V30 1 1 1 2
M  V30 2 1 2 3
M  V30 3 2 3 4
M  V30 4 1 3 5
M  V30 5 2 5 6
M  V30 6 1 6 7
M  V30 7 2 7 8
M  V30 8 1 8 9
M  V30 9 2 9 10
M  V30 10 1 10 11
M  V30 11 2 11 12
M  V30 12 1 12 13
M  V30 13 1 13 14
M  V30 14 2 14 15
M  V30 15 1 15 16
M  V30 16 2 16 17
M  V30 17 1 17 18
M  V30 18 1 18 19
M  V30 19 2 18 20
M  V30 20 1 12 21
M  V30 21 2 21 22
M  V30 22 1 22 23
M  V30 23 2 23 24
M  V30 24 1 24 25
M  V30 25 2 25 26
M  V30 26 1 10 5
M  V30 27 1 20 14
M  V30 28 1 26 21
M  V30 29 1 26 9
M  V30 30 1 1 27
M  V30 31 1 1 28
M  V30 32 1 1 29
M  V30 33 1 6 30
M  V30 34 1 7 31
M  V30 35 1 8 32
M  V30 36 1 13 33
M  V30 37 1 15 34
M  V30 38 1 16 35
M  V30 39 1 17 36
M  V30 40 1 20 37
M  V30 41 1 22 38
M  V30 42 1 23 39
M  V30 43 1 25 40
M  V30 END BOND
M  V30 END CTAB
M  END
>  <Dataset>  (323) 
ChEMBL_Kinases

>  <Ligand_Instance>  (323) 
nan

>  <PDB_ID>  (323) 
nan

>  <Standardized_SMILES>  (323) 
COC(=O)c1cccc2c1nc(Nc1cccc(Cl)c1)c1ccncc12

>  <Name>  (323) 
nan

>  <Pocket>  (323) 
nan

>  <ATP_Site>  (323) 
nan

>  <Peripheral>  (323) 
nan

>  <Num_H_Atoms_ProtBoundConf>  (323) 
nan

>  <Num_Resolved_Atoms>  (323) 
nan

>  <Num_Not_Resolved_Atoms>  (323) 
nan

$$$$
CHEMBL1914471
     RDKit          3D

  0  0  0  0  0  0  0  0  0  0999 V3000
M  V30 BEGIN CTAB
M  V30 COUNTS 41 44 0 0 0
M  V30 BEGIN ATOM
M  V30 1 C 3.212530 -2.839756 2.685411 0
M  V30 2 N 2.480168 -2.698621 1.430672 0
M  V30 3 C 3.043017 -2.159273 0.212394 0
M  V30 4 O 4.222329 -1.867218 0.483391 0
M  V30 5 C 1.971353 -2.196760 -0.802249 0
M  V30 6 C 2.096750 -3.193996 -1.747039 0
M  V30 7 C 1.097067 -3.267638 -2.719930 0
M  V30 8 C 0.068411 -2.346357 -2.663364 0
M  V30 9 C -0.013250 -1.368690 -1.699998 0
M  V30 10 C 0.955257 -1.267701 -0.726685 0
M  V30 11 N 0.931877 -0.333987 0.244211 0
M  V30 12 C -0.085126 0.559909 0.285277 0
M  V30 13 N 0.000958 1.495182 1.342361 0
M  V30 14 C -0.251442 1.466010 2.733988 0
M  V30 15 C 0.962481 1.173224 3.375106 0
M  V30 16 F 2.195168 0.951130 2.811931 0
M  V30 17 C 1.033482 1.074501 4.769898 0
M  V30 18 C -0.076952 1.259754 5.547857 0
M  V30 19 C -1.268128 1.548283 4.898253 0
M  V30 20 C -1.357227 1.649170 3.529592 0
M  V30 21 F -2.446137 1.917964 2.790322 0
M  V30 22 C -1.049792 0.462223 -0.681509 0
M  V30 23 C -2.080371 1.397552 -0.618001 0
M  V30 24 C -3.047724 1.299853 -1.593092 0
M  V30 25 N -3.044290 0.368271 -2.578247 0
M  V30 26 C -2.032727 -0.546043 -2.637406 0
M  V30 27 C -1.052130 -0.476778 -1.681278 0
M  V30 28 H 4.183036 -2.309804 2.675304 0
M  V30 29 H 2.629535 -2.525269 3.571464 0
M  V30 30 H 3.433945 -3.915740 2.819783 0
M  V30 31 H 1.495612 -3.066338 1.614221 0
M  V30 32 H 2.926412 -3.888488 -1.740923 0
M  V30 33 H 1.202775 -4.052518 -3.456389 0
M  V30 34 H -0.640872 -2.498588 -3.458402 0
M  V30 35 H 0.327606 2.450330 1.061164 0
M  V30 36 H 1.924451 0.854055 5.330660 0
M  V30 37 H -0.116572 1.203230 6.628057 0
M  V30 38 H -2.200139 1.709801 5.422753 0
M  V30 39 H -2.100927 2.147471 0.153565 0
M  V30 40 H -3.880770 1.985709 -1.614624 0
M  V30 41 H -2.096808 -1.250107 -3.443419 0
M  V30 END ATOM
M  V30 BEGIN BOND
M  V30 1 1 1 2
M  V30 2 1 2 3
M  V30 3 2 3 4
M  V30 4 1 3 5
M  V30 5 2 5 6
M  V30 6 1 6 7
M  V30 7 2 7 8
M  V30 8 1 8 9
M  V30 9 2 9 10
M  V30 10 1 10 11
M  V30 11 2 11 12
M  V30 12 1 12 13
M  V30 13 1 13 14
M  V30 14 2 14 15
M  V30 15 1 15 16
M  V30 16 1 15 17
M  V30 17 2 17 18
M  V30 18 1 18 19
M  V30 19 2 19 20
M  V30 20 1 20 21
M  V30 21 1 12 22
M  V30 22 2 22 23
M  V30 23 1 23 24
M  V30 24 2 24 25
M  V30 25 1 25 26
M  V30 26 2 26 27
M  V30 27 1 10 5
M  V30 28 1 20 14
M  V30 29 1 27 22
M  V30 30 1 27 9
M  V30 31 1 1 28
M  V30 32 1 1 29
M  V30 33 1 1 30
M  V30 34 1 2 31
M  V30 35 1 6 32
M  V30 36 1 7 33
M  V30 37 1 8 34
M  V30 38 1 13 35
M  V30 39 1 17 36
M  V30 40 1 18 37
M  V30 41 1 19 38
M  V30 42 1 23 39
M  V30 43 1 24 40
M  V30 44 1 26 41
M  V30 END BOND
M  V30 END CTAB
M  END
>  <Dataset>  (324) 
ChEMBL_Kinases

>  <Ligand_Instance>  (324) 
nan

>  <PDB_ID>  (324) 
nan

>  <Standardized_SMILES>  (324) 
CNC(=O)c1cccc2c1nc(Nc1c(F)cccc1F)c1ccncc12

>  <Name>  (324) 
nan

>  <Pocket>  (324) 
nan

>  <ATP_Site>  (324) 
nan

>  <Peripheral>  (324) 
nan

>  <Num_H_Atoms_ProtBoundConf>  (324) 
nan

>  <Num_Resolved_Atoms>  (324) 
nan

>  <Num_Not_Resolved_Atoms>  (324) 
nan

$$$$
CHEMBL5091020
     RDKit          3D

  0  0  0  0  0  0  0  0  0  0999 V3000
M  V30 BEGIN CTAB
M  V30 COUNTS 40 43 0 0 0
M  V30 BEGIN ATOM
M  V30 1 C -0.896296 -2.498741 -1.167814 0
M  V30 2 C 0.248074 -2.633949 -0.221140 0
M  V30 3 C 0.540668 -3.701155 0.579901 0
M  V30 4 C 1.659101 -3.686763 1.398293 0
M  V30 5 C 2.525356 -2.588611 1.436737 0
M  V30 6 C 2.194356 -1.524204 0.609692 0
M  V30 7 C 1.067738 -1.525487 -0.222075 0
M  V30 8 C 0.999465 -0.285766 -0.962909 0
M  V30 9 C 1.580555 -0.213855 -2.235325 0
M  V30 10 N 1.378066 1.044815 -2.720536 0
M  V30 11 C 0.699265 1.804583 -1.843818 0
M  V30 12 N 0.224882 3.051400 -1.725600 0
M  V30 13 C -0.425947 3.433205 -0.611840 0
M  V30 14 N -0.641683 2.595924 0.446748 0
M  V30 15 C -0.178675 1.309782 0.379160 0
M  V30 16 N -0.532504 0.641499 1.559617 0
M  V30 17 C -1.456521 -0.426785 1.950873 0
M  V30 18 C -0.802304 -1.213799 3.031246 0
M  V30 19 O -0.661626 -0.512565 4.219987 0
M  V30 20 C -0.470404 0.845312 4.023217 0
M  V30 21 C 0.219156 1.148327 2.709738 0
M  V30 22 C 0.477706 0.970406 -0.775839 0
M  V30 23 H -1.288020 -1.477671 -1.204217 0
M  V30 24 H -0.574019 -2.897377 -2.139404 0
M  V30 25 H -1.698874 -3.160934 -0.769276 0
M  V30 26 H -0.156222 -4.512952 0.509954 0
M  V30 27 H 1.823681 -4.564676 2.000768 0
M  V30 28 H 3.375667 -2.629629 2.086985 0
M  V30 29 H 2.936579 -0.716291 0.716028 0
M  V30 30 H 2.106501 -0.981055 -2.784942 0
M  V30 31 H 1.684410 1.443346 -3.652679 0
M  V30 32 H -0.757437 4.468229 -0.645791 0
M  V30 33 H -2.337548 0.097031 2.427166 0
M  V30 34 H -1.764674 -1.071107 1.134552 0
M  V30 35 H 0.221224 -1.507110 2.731759 0
M  V30 36 H -1.379603 -2.149965 3.153727 0
M  V30 37 H 0.227026 1.193875 4.812883 0
M  V30 38 H -1.399583 1.438465 4.137801 0
M  V30 39 H 1.271472 0.872064 2.706178 0
M  V30 40 H 0.164471 2.273738 2.626024 0
M  V30 END ATOM
M  V30 BEGIN BOND
M  V30 1 1 1 2
M  V30 2 2 2 3
M  V30 3 1 3 4
M  V30 4 2 4 5
M  V30 5 1 5 6
M  V30 6 2 6 7
M  V30 7 1 7 8
M  V30 8 2 8 9
M  V30 9 1 9 10
M  V30 10 1 10 11
M  V30 11 2 11 12
M  V30 12 1 12 13
M  V30 13 2 13 14
M  V30 14 1 14 15
M  V30 15 1 15 16
M  V30 16 1 16 17
M  V30 17 1 17 18
M  V30 18 1 18 19
M  V30 19 1 19 20
M  V30 20 1 20 21
M  V30 21 2 15 22
M  V30 22 1 7 2
M  V30 23 1 22 8
M  V30 24 1 22 11
M  V30 25 1 21 16
M  V30 26 1 1 23
M  V30 27 1 1 24
M  V30 28 1 1 25
M  V30 29 1 3 26
M  V30 30 1 4 27
M  V30 31 1 5 28
M  V30 32 1 6 29
M  V30 33 1 9 30
M  V30 34 1 10 31
M  V30 35 1 13 32
M  V30 36 1 17 33
M  V30 37 1 17 34
M  V30 38 1 18 35
M  V30 39 1 18 36
M  V30 40 1 20 37
M  V30 41 1 20 38
M  V30 42 1 21 39
M  V30 43 1 21 40
M  V30 END BOND
M  V30 END CTAB
M  END
>  <Dataset>  (325) 
ChEMBL_Kinases

>  <Ligand_Instance>  (325) 
nan

>  <PDB_ID>  (325) 
nan

>  <Standardized_SMILES>  (325) 
Cc1ccccc1-c1c[nH]c2ncnc(N3CCOCC3)c12

>  <Name>  (325) 
nan

>  <Pocket>  (325) 
nan

>  <ATP_Site>  (325) 
nan

>  <Peripheral>  (325) 
nan

>  <Num_H_Atoms_ProtBoundConf>  (325) 
nan

>  <Num_Resolved_Atoms>  (325) 
nan

>  <Num_Not_Resolved_Atoms>  (325) 
nan

$$$$
CHEMBL1357167
     RDKit          3D

  0  0  0  0  0  0  0  0  0  0999 V3000
M  V30 BEGIN CTAB
M  V30 COUNTS 42 45 0 0 0
M  V30 BEGIN ATOM
M  V30 1 C 0.216556 -6.740859 1.108303 0
M  V30 2 O 0.196151 -5.576569 0.277727 0
M  V30 3 C 0.802695 -4.419108 0.749055 0
M  V30 4 C 1.432798 -4.324538 1.987902 0
M  V30 5 C 2.003976 -3.115864 2.351520 0
M  V30 6 C 1.971949 -2.005289 1.533837 0
M  V30 7 C 1.353081 -2.066869 0.297429 0
M  V30 8 C 1.242048 -0.957338 -0.664008 0
M  V30 9 C 1.201696 -1.048705 -2.052244 0
M  V30 10 C 1.082008 0.109479 -2.789044 0
M  V30 11 C 1.003054 1.340775 -2.172828 0
M  V30 12 N 0.877468 2.456103 -2.913772 0
M  V30 13 C 0.788882 3.683547 -2.333194 0
M  V30 14 N 0.824816 3.819682 -1.000771 0
M  V30 15 C 0.950897 2.731711 -0.188929 0
M  V30 16 N 1.003848 2.650612 1.228340 0
M  V30 17 C -0.120990 2.237331 1.991208 0
M  V30 18 C -1.333817 1.955626 1.422075 0
M  V30 19 C -2.484345 1.531930 2.056739 0
M  V30 20 C -2.309739 1.398825 3.438478 0
M  V30 21 C -1.132330 1.659081 4.091242 0
M  V30 22 C -0.048243 2.077032 3.357051 0
M  V30 23 C 1.039695 1.487787 -0.786297 0
M  V30 24 C 1.161794 0.287954 -0.073779 0
M  V30 25 C 0.785673 -3.297989 -0.043715 0
M  V30 26 H -0.203582 -7.607069 0.555365 0
M  V30 27 H -0.393444 -6.558473 2.032751 0
M  V30 28 H 1.269243 -6.993426 1.406979 0
M  V30 29 H 1.455891 -5.191044 2.623148 0
M  V30 30 H 2.506739 -3.008476 3.320976 0
M  V30 31 H 2.410005 -1.047393 1.792251 0
M  V30 32 H 1.272654 -2.067530 -2.407437 0
M  V30 33 H 1.058099 -0.023891 -3.864463 0
M  V30 34 H 0.687258 4.586356 -2.914555 0
M  V30 35 H 1.889061 2.898631 1.743771 0
M  V30 36 H -1.396880 2.082047 0.334312 0
M  V30 37 H -3.403111 1.331274 1.529279 0
M  V30 38 H -3.186583 1.061745 4.013734 0
M  V30 39 H -0.999686 1.555176 5.147927 0
M  V30 40 H 0.906353 2.292245 3.857883 0
M  V30 41 H 1.190863 0.387050 1.007420 0
M  V30 42 H 0.292390 -3.364113 -1.019956 0
M  V30 END ATOM
M  V30 BEGIN BOND
M  V30 1 1 1 2
M  V30 2 1 2 3
M  V30 3 2 3 4
M  V30 4 1 4 5
M  V30 5 2 5 6
M  V30 6 1 6 7
M  V30 7 1 7 8
M  V30 8 2 8 9
M  V30 9 1 9 10
M  V30 10 2 10 11
M  V30 11 1 11 12
M  V30 12 2 12 13
M  V30 13 1 13 14
M  V30 14 2 14 15
M  V30 15 1 15 16
M  V30 16 1 16 17
M  V30 17 2 17 18
M  V30 18 1 18 19
M  V30 19 2 19 20
M  V30 20 1 20 21
M  V30 21 2 21 22
M  V30 22 1 15 23
M  V30 23 2 23 24
M  V30 24 2 7 25
M  V30 25 1 25 3
M  V30 26 1 24 8
M  V30 27 1 23 11
M  V30 28 1 22 17
M  V30 29 1 1 26
M  V30 30 1 1 27
M  V30 31 1 1 28
M  V30 32 1 4 29
M  V30 33 1 5 30
M  V30 34 1 6 31
M  V30 35 1 9 32
M  V30 36 1 10 33
M  V30 37 1 13 34
M  V30 38 1 16 35
M  V30 39 1 18 36
M  V30 40 1 19 37
M  V30 41 1 20 38
M  V30 42 1 21 39
M  V30 43 1 22 40
M  V30 44 1 24 41
M  V30 45 1 25 42
M  V30 END BOND
M  V30 END CTAB
M  END
>  <Dataset>  (326) 
ChEMBL_Kinases

>  <Ligand_Instance>  (326) 
nan

>  <PDB_ID>  (326) 
nan

>  <Standardized_SMILES>  (326) 
COc1cccc(-c2ccc3ncnc(Nc4ccccc4)c3c2)c1

>  <Name>  (326) 
nan

>  <Pocket>  (326) 
nan

>  <ATP_Site>  (326) 
nan

>  <Peripheral>  (326) 
nan

>  <Num_H_Atoms_ProtBoundConf>  (326) 
nan

>  <Num_Resolved_Atoms>  (326) 
nan

>  <Num_Not_Resolved_Atoms>  (326) 
nan

$$$$
CHEMBL5089809
     RDKit          3D

  0  0  0  0  0  0  0  0  0  0999 V3000
M  V30 BEGIN CTAB
M  V30 COUNTS 64 67 0 0 0
M  V30 BEGIN ATOM
M  V30 1 C 7.684693 0.089604 3.250116 0
M  V30 2 C 6.787827 0.613595 4.341817 0
M  V30 3 O 6.108558 1.773396 3.974904 0
M  V30 4 C 5.228325 1.893803 2.915384 0
M  V30 5 C 4.913855 0.851946 2.079376 0
M  V30 6 C 4.031345 1.015166 1.034916 0
M  V30 7 N 3.767040 -0.057294 0.248527 0
M  V30 8 C 2.905732 0.120205 -0.764087 0
M  V30 9 N 2.328207 1.287078 -1.000686 0
M  V30 10 C 2.529057 2.382389 -0.284632 0
M  V30 11 N 1.933968 3.643254 -0.553115 0
M  V30 12 C 0.994120 3.942256 -1.591030 0
M  V30 13 C -0.416243 3.532068 -1.287073 0
M  V30 14 C -0.576715 2.093511 -1.024147 0
M  V30 15 C -0.763529 1.225514 -2.107096 0
M  V30 16 C -0.940294 -0.110842 -1.803980 0
M  V30 17 C -0.931247 -0.559779 -0.486397 0
M  V30 18 N -1.135106 -1.990516 -0.432097 0
M  V30 19 C -2.460251 -2.443026 -0.341036 0
M  V30 20 O -3.276552 -1.520340 -0.320378 0
M  V30 21 N -2.939611 -3.749198 -0.274563 0
M  V30 22 C -4.220306 -4.336609 -0.183375 0
M  V30 23 C -4.209898 -5.713626 -0.135800 0
M  V30 24 C -5.366263 -6.430788 -0.047950 0
M  V30 25 C -5.352459 -7.911483 0.002695 0
M  V30 26 F -5.806410 -8.320238 1.260059 0
M  V30 27 F -4.068683 -8.410832 -0.107861 0
M  V30 28 F -6.173893 -8.478662 -0.952624 0
M  V30 29 C -6.591280 -5.819791 -0.002772 0
M  V30 30 C -6.634793 -4.449355 -0.048266 0
M  V30 31 C -5.445148 -3.762975 -0.136919 0
M  V30 32 O -5.511734 -2.400197 -0.181151 0
M  V30 33 C -6.737704 -1.729893 -0.138139 0
M  V30 34 C -0.746278 0.305143 0.572093 0
M  V30 35 C -0.566640 1.646919 0.306799 0
M  V30 36 C 3.409059 2.211042 0.754104 0
M  V30 37 C 3.751529 3.228071 1.615012 0
M  V30 38 C 4.626580 3.120468 2.673610 0
M  V30 39 F 4.931605 4.153848 3.494223 0
M  V30 40 H 8.745899 0.076561 3.625855 0
M  V30 41 H 7.441111 -0.972353 3.072830 0
M  V30 42 H 7.599401 0.718298 2.336641 0
M  V30 43 H 6.038300 -0.147963 4.649480 0
M  V30 44 H 7.387254 0.856142 5.253990 0
M  V30 45 H 5.359113 -0.128216 2.228658 0
M  V30 46 H 2.615274 -0.665510 -1.462758 0
M  V30 47 H 2.130263 4.495987 -0.001309 0
M  V30 48 H 0.993864 5.014004 -1.899592 0
M  V30 49 H 1.366632 3.392134 -2.519816 0
M  V30 50 H -0.716210 4.092542 -0.371692 0
M  V30 51 H -1.062846 3.812160 -2.155374 0
M  V30 52 H -0.758044 1.649381 -3.099968 0
M  V30 53 H -1.079094 -0.727688 -2.685696 0
M  V30 54 H -0.376513 -2.739488 -0.454317 0
M  V30 55 H -2.075372 -4.370644 -0.305990 0
M  V30 56 H -3.298772 -6.333316 -0.163638 0
M  V30 57 H -7.526473 -6.355146 0.066790 0
M  V30 58 H -7.566239 -3.928020 -0.015835 0
M  V30 59 H -6.493704 -0.649258 -0.350637 0
M  V30 60 H -7.271150 -1.843019 0.812521 0
M  V30 61 H -7.452772 -2.105007 -0.926177 0
M  V30 62 H -0.761086 -0.170315 1.536392 0
M  V30 63 H -0.425969 2.295241 1.136224 0
M  V30 64 H 3.337135 4.214280 1.508669 0
M  V30 END ATOM
M  V30 BEGIN BOND
M  V30 1 1 1 2
M  V30 2 1 2 3
M  V30 3 1 3 4
M  V30 4 2 4 5
M  V30 5 1 5 6
M  V30 6 2 6 7
M  V30 7 1 7 8
M  V30 8 2 8 9
M  V30 9 1 9 10
M  V30 10 1 10 11
M  V30 11 1 11 12
M  V30 12 1 12 13
M  V30 13 1 13 14
M  V30 14 2 14 15
M  V30 15 1 15 16
M  V30 16 2 16 17
M  V30 17 1 17 18
M  V30 18 1 18 19
M  V30 19 2 19 20
M  V30 20 1 19 21
M  V30 21 1 21 22
M  V30 22 2 22 23
M  V30 23 1 23 24
M  V30 24 1 24 25
M  V30 25 1 25 26
M  V30 26 1 25 27
M  V30 27 1 25 28
M  V30 28 2 24 29
M  V30 29 1 29 30
M  V30 30 2 30 31
M  V30 31 1 31 32
M  V30 32 1 32 33
M  V30 33 1 17 34
M  V30 34 2 34 35
M  V30 35 2 10 36
M  V30 36 1 36 37
M  V30 37 2 37 38
M  V30 38 1 38 39
M  V30 39 1 38 4
M  V30 40 1 36 6
M  V30 41 1 35 14
M  V30 42 1 31 22
M  V30 43 1 1 40
M  V30 44 1 1 41
M  V30 45 1 1 42
M  V30 46 1 2 43
M  V30 47 1 2 44
M  V30 48 1 5 45
M  V30 49 1 8 46
M  V30 50 1 11 47
M  V30 51 1 12 48
M  V30 52 1 12 49
M  V30 53 1 13 50
M  V30 54 1 13 51
M  V30 55 1 15 52
M  V30 56 1 16 53
M  V30 57 1 18 54
M  V30 58 1 21 55
M  V30 59 1 23 56
M  V30 60 1 29 57
M  V30 61 1 30 58
M  V30 62 1 33 59
M  V30 63 1 33 60
M  V30 64 1 33 61
M  V30 65 1 34 62
M  V30 66 1 35 63
M  V30 67 1 37 64
M  V30 END BOND
M  V30 END CTAB
M  END
>  <Dataset>  (327) 
ChEMBL_Kinases

>  <Ligand_Instance>  (327) 
nan

>  <PDB_ID>  (327) 
nan

>  <Standardized_SMILES>  (327) 
CCOc1cc2ncnc(NCCc3ccc(NC(=O)Nc4cc(C(F)(F)F)ccc4OC)cc3)c2cc1F

>  <Name>  (327) 
nan

>  <Pocket>  (327) 
nan

>  <ATP_Site>  (327) 
nan

>  <Peripheral>  (327) 
nan

>  <Num_H_Atoms_ProtBoundConf>  (327) 
nan

>  <Num_Resolved_Atoms>  (327) 
nan

>  <Num_Not_Resolved_Atoms>  (327) 
nan

$$$$
CHEMBL1357429
     RDKit          3D

  0  0  0  0  0  0  0  0  0  0999 V3000
M  V30 BEGIN CTAB
M  V30 COUNTS 37 40 0 0 0
M  V30 BEGIN ATOM
M  V30 1 C 3.996614 -4.305091 3.273361 0
M  V30 2 C 3.350202 -5.455096 3.646966 0
M  V30 3 N 2.349558 -5.989346 2.945144 0
M  V30 4 C 1.898852 -5.418788 1.807671 0
M  V30 5 C 2.460156 -4.236271 1.310552 0
M  V30 6 C 2.089053 -3.470432 0.103743 0
M  V30 7 N 1.200956 -2.423396 0.510778 0
M  V30 8 C 0.857626 -1.406215 -0.453078 0
M  V30 9 C 0.048157 -0.257343 -0.347880 0
M  V30 10 C -0.226049 0.761864 -1.323550 0
M  V30 11 C -1.083661 1.588378 -0.548842 0
M  V30 12 C -1.376594 2.632613 -1.444974 0
M  V30 13 C -2.196354 3.754693 -1.238931 0
M  V30 14 C -2.756483 3.748591 0.065206 0
M  V30 15 C -2.461165 2.731183 0.918525 0
M  V30 16 C -1.653697 1.657310 0.663483 0
M  V30 17 O -3.115057 2.907942 2.154127 0
M  V30 18 C -3.858406 4.105155 2.083231 0
M  V30 19 O -3.609490 4.567914 0.794358 0
M  V30 20 N 0.469158 0.301366 -2.262224 0
M  V30 21 C 1.245914 -0.645953 -2.620719 0
M  V30 22 N 1.468560 -1.567766 -1.678421 0
M  V30 23 C 3.513585 -3.731480 2.092740 0
M  V30 24 H 4.787364 -3.797352 3.749146 0
M  V30 25 H 3.762320 -5.855066 4.556456 0
M  V30 26 H 1.088857 -5.784115 1.186442 0
M  V30 27 H 1.628469 -4.140887 -0.663713 0
M  V30 28 H 2.997123 -3.001693 -0.321670 0
M  V30 29 H 0.793462 -2.385155 1.479438 0
M  V30 30 H -0.251287 -0.459747 0.699008 0
M  V30 31 H -1.048301 2.821677 -2.493601 0
M  V30 32 H -2.478096 4.590028 -1.830570 0
M  V30 33 H -1.420559 0.861539 1.343799 0
M  V30 34 H -3.527349 4.794784 2.885117 0
M  V30 35 H -4.932520 3.911450 2.285927 0
M  V30 36 H 1.606399 -0.558167 -3.633039 0
M  V30 37 H 3.980327 -2.803552 1.748964 0
M  V30 END ATOM
M  V30 BEGIN BOND
M  V30 1 2 1 2
M  V30 2 1 2 3
M  V30 3 2 3 4
M  V30 4 1 4 5
M  V30 5 1 5 6
M  V30 6 1 6 7
M  V30 7 1 7 8
M  V30 8 2 8 9
M  V30 9 1 9 10
M  V30 10 1 10 11
M  V30 11 2 11 12
M  V30 12 1 12 13
M  V30 13 2 13 14
M  V30 14 1 14 15
M  V30 15 2 15 16
M  V30 16 1 15 17
M  V30 17 1 17 18
M  V30 18 1 18 19
M  V30 19 2 10 20
M  V30 20 1 20 21
M  V30 21 2 21 22
M  V30 22 2 5 23
M  V30 23 1 23 1
M  V30 24 1 22 8
M  V30 25 1 16 11
M  V30 26 1 19 14
M  V30 27 1 1 24
M  V30 28 1 2 25
M  V30 29 1 4 26
M  V30 30 1 6 27
M  V30 31 1 6 28
M  V30 32 1 7 29
M  V30 33 1 9 30
M  V30 34 1 12 31
M  V30 35 1 13 32
M  V30 36 1 16 33
M  V30 37 1 18 34
M  V30 38 1 18 35
M  V30 39 1 21 36
M  V30 40 1 23 37
M  V30 END BOND
M  V30 END CTAB
M  END
>  <Dataset>  (328) 
ChEMBL_Kinases

>  <Ligand_Instance>  (328) 
nan

>  <PDB_ID>  (328) 
nan

>  <Standardized_SMILES>  (328) 
c1cncc(CNc2cc(-c3ccc4c(c3)OCO4)ncn2)c1

>  <Name>  (328) 
nan

>  <Pocket>  (328) 
nan

>  <ATP_Site>  (328) 
nan

>  <Peripheral>  (328) 
nan

>  <Num_H_Atoms_ProtBoundConf>  (328) 
nan

>  <Num_Resolved_Atoms>  (328) 
nan

>  <Num_Not_Resolved_Atoms>  (328) 
nan

$$$$
CHEMBL1357558
     RDKit          3D

  0  0  0  0  0  0  0  0  0  0999 V3000
M  V30 BEGIN CTAB
M  V30 COUNTS 51 54 0 0 0
M  V30 BEGIN ATOM
M  V30 1 C 2.142772 -0.916727 5.506340 0
M  V30 2 S 3.433059 -1.492116 4.366080 0
M  V30 3 C 2.628092 -2.208367 2.935278 0
M  V30 4 C 2.349300 -3.573571 3.006123 0
M  V30 5 C 1.720533 -4.153659 1.898783 0
M  V30 6 C 1.411298 -3.391769 0.823758 0
M  V30 7 C 1.656381 -2.065858 0.699052 0
M  V30 8 C 2.277928 -1.508203 1.800160 0
M  V30 9 N 1.349276 -1.250032 -0.424028 0
M  V30 10 C 1.641394 0.162258 -0.393452 0
M  V30 11 C 0.774047 1.044995 0.383472 0
M  V30 12 C -0.672859 1.138803 0.050113 0 CFG=1
M  V30 13 C -1.478204 -0.100377 0.130263 0
M  V30 14 C -2.800052 0.093694 0.873081 0
M  V30 15 C -2.535702 0.506367 2.297670 0
M  V30 16 C -1.540446 1.634837 2.249357 0
M  V30 17 N -1.220234 2.125671 0.965356 0
M  V30 18 C -2.051672 3.108475 0.386513 0
M  V30 19 C 0.728407 -1.786705 -1.569657 0
M  V30 20 C 0.411167 -1.020679 -2.672563 0
M  V30 21 C -0.198999 -1.461169 -3.830521 0
M  V30 22 C -0.538135 -2.794339 -3.925346 0
M  V30 23 C -0.246193 -3.616541 -2.849966 0
M  V30 24 C 0.352144 -3.096452 -1.758942 0
M  V30 25 S 0.639308 -4.292983 -0.470867 0
M  V30 26 H 1.691612 0.048568 5.144600 0
M  V30 27 H 1.334741 -1.680568 5.558220 0
M  V30 28 H 2.514662 -0.745417 6.532950 0
M  V30 29 H 2.612590 -4.147907 3.884249 0
M  V30 30 H 1.533410 -5.213025 2.018387 0
M  V30 31 H 2.562962 -0.495371 1.895688 0
M  V30 32 H 2.674389 0.326579 0.095329 0
M  V30 33 H 1.901311 0.528277 -1.406493 0
M  V30 34 H 1.167835 2.091621 0.188564 0
M  V30 35 H 0.833765 0.969665 1.477472 0
M  V30 36 H -0.869335 1.605120 -0.948228 0
M  V30 37 H -1.802904 -0.449433 -0.889769 0
M  V30 38 H -1.024918 -0.966380 0.609366 0
M  V30 39 H -3.318032 -0.885658 0.891055 0
M  V30 40 H -3.457996 0.815338 0.389935 0
M  V30 41 H -2.169142 -0.366769 2.887971 0
M  V30 42 H -3.510498 0.791758 2.748116 0
M  V30 43 H -0.620605 1.372157 2.849053 0
M  V30 44 H -1.998277 2.469313 2.817760 0
M  V30 45 H -2.474485 2.845030 -0.600794 0
M  V30 46 H -1.399915 4.010252 0.188237 0
M  V30 47 H -2.795890 3.476599 1.119745 0
M  V30 48 H 0.615541 0.038110 -2.721960 0
M  V30 49 H -0.433881 -0.836538 -4.676788 0
M  V30 50 H -1.014465 -3.164860 -4.816300 0
M  V30 51 H -0.537381 -4.648720 -2.987762 0
M  V30 END ATOM
M  V30 BEGIN BOND
M  V30 1 1 1 2
M  V30 2 1 2 3
M  V30 3 2 3 4
M  V30 4 1 4 5
M  V30 5 2 5 6
M  V30 6 1 6 7
M  V30 7 2 7 8
M  V30 8 1 7 9
M  V30 9 1 9 10
M  V30 10 1 10 11
M  V30 11 1 11 12
M  V30 12 1 12 13
M  V30 13 1 13 14
M  V30 14 1 14 15
M  V30 15 1 15 16
M  V30 16 1 16 17
M  V30 17 1 17 18
M  V30 18 1 9 19
M  V30 19 2 19 20
M  V30 20 1 20 21
M  V30 21 2 21 22
M  V30 22 1 22 23
M  V30 23 2 23 24
M  V30 24 1 24 25
M  V30 25 1 8 3
M  V30 26 1 17 12
M  V30 27 1 24 19
M  V30 28 1 25 6
M  V30 29 1 1 26
M  V30 30 1 1 27
M  V30 31 1 1 28
M  V30 32 1 4 29
M  V30 33 1 5 30
M  V30 34 1 8 31
M  V30 35 1 10 32
M  V30 36 1 10 33
M  V30 37 1 11 34
M  V30 38 1 11 35
M  V30 39 1 12 36 CFG=3
M  V30 40 1 13 37
M  V30 41 1 13 38
M  V30 42 1 14 39
M  V30 43 1 14 40
M  V30 44 1 15 41
M  V30 45 1 15 42
M  V30 46 1 16 43
M  V30 47 1 16 44
M  V30 48 1 18 45
M  V30 49 1 18 46
M  V30 50 1 18 47
M  V30 51 1 20 48
M  V30 52 1 21 49
M  V30 53 1 22 50
M  V30 54 1 23 51
M  V30 END BOND
M  V30 END CTAB
M  END
>  <Dataset>  (329) 
ChEMBL_Kinases

>  <Ligand_Instance>  (329) 
nan

>  <PDB_ID>  (329) 
nan

>  <Standardized_SMILES>  (329) 
CSc1ccc2c(c1)N(CC[C@H]1CCCCN1C)c1ccccc1S2

>  <Name>  (329) 
nan

>  <Pocket>  (329) 
nan

>  <ATP_Site>  (329) 
nan

>  <Peripheral>  (329) 
nan

>  <Num_H_Atoms_ProtBoundConf>  (329) 
nan

>  <Num_Resolved_Atoms>  (329) 
nan

>  <Num_Not_Resolved_Atoms>  (329) 
nan

$$$$
CHEMBL5090552
     RDKit          3D

  0  0  0  0  0  0  0  0  0  0999 V3000
M  V30 BEGIN CTAB
M  V30 COUNTS 28 30 0 0 0
M  V30 BEGIN ATOM
M  V30 1 N -2.620535 -3.305394 2.969527 0
M  V30 2 C -1.372333 -2.830586 2.474122 0
M  V30 3 C -1.316511 -1.758484 1.607844 0
M  V30 4 C -0.081381 -1.331305 1.151374 0
M  V30 5 C 0.058480 -0.202124 0.231337 0
M  V30 6 C -0.930381 0.054750 -0.697059 0
M  V30 7 C -0.763276 1.141908 -1.560910 0
M  V30 8 C 0.394803 1.879813 -1.411243 0
M  V30 9 O 0.753758 2.946606 -2.121529 0
M  V30 10 C 1.931011 3.389580 -1.692039 0
M  V30 11 Cl 2.802939 4.774876 -2.328496 0
M  V30 12 C 2.385705 2.593008 -0.652516 0
M  V30 13 C 1.393513 1.637567 -0.488992 0
M  V30 14 C 1.217701 0.546378 0.372234 0
M  V30 15 C 1.010571 -2.039664 1.620381 0
M  V30 16 C 0.939354 -3.109478 2.486353 0
M  V30 17 N 2.114860 -3.784824 2.920800 0
M  V30 18 N -0.273597 -3.505790 2.915873 0
M  V30 19 H -2.699914 -3.567332 3.978861 0
M  V30 20 H -3.569143 -3.482437 2.569827 0
M  V30 21 H -2.197490 -1.240010 1.272386 0
M  V30 22 H -1.788566 -0.585043 -0.723598 0
M  V30 23 H -1.510246 1.368314 -2.291419 0
M  V30 24 H 3.287059 2.641068 -0.060765 0
M  V30 25 H 1.973776 0.320973 1.107996 0
M  V30 26 H 1.991629 -1.752363 1.299382 0
M  V30 27 H 2.023746 -4.632374 3.518277 0
M  V30 28 H 3.050070 -3.420622 2.634601 0
M  V30 END ATOM
M  V30 BEGIN BOND
M  V30 1 1 1 2
M  V30 2 2 2 3
M  V30 3 1 3 4
M  V30 4 1 4 5
M  V30 5 2 5 6
M  V30 6 1 6 7
M  V30 7 2 7 8
M  V30 8 1 8 9
M  V30 9 1 9 10
M  V30 10 1 10 11
M  V30 11 2 10 12
M  V30 12 1 12 13
M  V30 13 2 13 14
M  V30 14 2 4 15
M  V30 15 1 15 16
M  V30 16 1 16 17
M  V30 17 2 16 18
M  V30 18 1 18 2
M  V30 19 1 14 5
M  V30 20 1 13 8
M  V30 21 1 1 19
M  V30 22 1 1 20
M  V30 23 1 3 21
M  V30 24 1 6 22
M  V30 25 1 7 23
M  V30 26 1 12 24
M  V30 27 1 14 25
M  V30 28 1 15 26
M  V30 29 1 17 27
M  V30 30 1 17 28
M  V30 END BOND
M  V30 END CTAB
M  END
>  <Dataset>  (330) 
ChEMBL_Kinases

>  <Ligand_Instance>  (330) 
nan

>  <PDB_ID>  (330) 
nan

>  <Standardized_SMILES>  (330) 
Nc1cc(-c2ccc3oc(Cl)cc3c2)cc(N)n1

>  <Name>  (330) 
nan

>  <Pocket>  (330) 
nan

>  <ATP_Site>  (330) 
nan

>  <Peripheral>  (330) 
nan

>  <Num_H_Atoms_ProtBoundConf>  (330) 
nan

>  <Num_Resolved_Atoms>  (330) 
nan

>  <Num_Not_Resolved_Atoms>  (330) 
nan

$$$$
CHEMBL1358796
     RDKit          3D

  0  0  0  0  0  0  0  0  0  0999 V3000
M  V30 BEGIN CTAB
M  V30 COUNTS 44 48 0 0 0
M  V30 BEGIN ATOM
M  V30 1 C -1.977207 -5.545184 -0.276970 0
M  V30 2 C -2.843812 -4.495879 -0.492345 0
M  V30 3 C -2.380384 -3.370776 -1.137987 0
M  V30 4 C -1.059651 -3.263809 -1.579532 0
M  V30 5 C -0.575704 -2.047081 -2.273280 0
M  V30 6 N -0.048736 -1.062915 -1.352631 0
M  V30 7 C 0.467046 0.174506 -1.860823 0
M  V30 8 N 0.440277 0.379708 -3.188758 0
M  V30 9 C 0.890309 1.493210 -3.790698 0
M  V30 10 N 1.406708 2.474520 -2.993757 0
M  V30 11 C 1.454291 2.313449 -1.657478 0
M  V30 12 C 1.971944 3.288411 -0.824107 0
M  V30 13 C 2.025788 3.131731 0.550505 0
M  V30 14 C 1.548125 1.960787 1.137406 0
M  V30 15 C 1.581429 1.740194 2.592515 0
M  V30 16 C 2.534494 2.230743 3.451960 0
M  V30 17 C 2.465747 1.958594 4.802571 0
M  V30 18 C 1.449036 1.190056 5.349410 0
M  V30 19 C 0.469707 0.679929 4.502940 0
M  V30 20 C 0.567730 0.968193 3.172430 0
M  V30 21 O -0.420510 -0.042456 5.277129 0
M  V30 22 C 0.153416 -0.301097 6.544288 0
M  V30 23 O 1.108809 0.747452 6.639813 0
M  V30 24 C 1.031923 0.985422 0.322822 0
M  V30 25 C 0.990927 1.168651 -1.043255 0
M  V30 26 C -0.215439 -4.348356 -1.341420 0
M  V30 27 C -0.666345 -5.494609 -0.689893 0
M  V30 28 H -2.268640 -6.472779 0.227711 0
M  V30 29 H -3.883554 -4.574812 -0.147241 0
M  V30 30 H -3.042360 -2.517161 -1.326212 0
M  V30 31 H -1.393527 -1.585116 -2.855762 0
M  V30 32 H 0.203238 -2.388566 -2.999666 0
M  V30 33 H -0.087170 -1.342193 -0.352884 0
M  V30 34 H 0.823205 1.558212 -4.867265 0
M  V30 35 H 2.346054 4.199695 -1.248958 0
M  V30 36 H 2.432206 3.904350 1.165883 0
M  V30 37 H 3.323091 2.828302 3.018391 0
M  V30 38 H 3.220349 2.347532 5.483114 0
M  V30 39 H -0.232983 0.538680 2.555514 0
M  V30 40 H 0.677097 -1.284347 6.445490 0
M  V30 41 H -0.592391 -0.296793 7.354697 0
M  V30 42 H 0.672908 0.101416 0.782776 0
M  V30 43 H 0.809942 -4.268520 -1.682947 0
M  V30 44 H 0.020501 -6.332111 -0.515907 0
M  V30 END ATOM
M  V30 BEGIN BOND
M  V30 1 2 1 2
M  V30 2 1 2 3
M  V30 3 2 3 4
M  V30 4 1 4 5
M  V30 5 1 5 6
M  V30 6 1 6 7
M  V30 7 2 7 8
M  V30 8 1 8 9
M  V30 9 2 9 10
M  V30 10 1 10 11
M  V30 11 2 11 12
M  V30 12 1 12 13
M  V30 13 2 13 14
M  V30 14 1 14 15
M  V30 15 2 15 16
M  V30 16 1 16 17
M  V30 17 2 17 18
M  V30 18 1 18 19
M  V30 19 2 19 20
M  V30 20 1 19 21
M  V30 21 1 21 22
M  V30 22 1 22 23
M  V30 23 1 14 24
M  V30 24 2 24 25
M  V30 25 1 4 26
M  V30 26 2 26 27
M  V30 27 1 27 1
M  V30 28 1 25 7
M  V30 29 1 25 11
M  V30 30 1 20 15
M  V30 31 1 23 18
M  V30 32 1 1 28
M  V30 33 1 2 29
M  V30 34 1 3 30
M  V30 35 1 5 31
M  V30 36 1 5 32
M  V30 37 1 6 33
M  V30 38 1 9 34
M  V30 39 1 12 35
M  V30 40 1 13 36
M  V30 41 1 16 37
M  V30 42 1 17 38
M  V30 43 1 20 39
M  V30 44 1 22 40
M  V30 45 1 22 41
M  V30 46 1 24 42
M  V30 47 1 26 43
M  V30 48 1 27 44
M  V30 END BOND
M  V30 END CTAB
M  END
>  <Dataset>  (331) 
ChEMBL_Kinases

>  <Ligand_Instance>  (331) 
nan

>  <PDB_ID>  (331) 
nan

>  <Standardized_SMILES>  (331) 
c1ccc(CNc2ncnc3ccc(-c4ccc5c(c4)OCO5)cc23)cc1

>  <Name>  (331) 
nan

>  <Pocket>  (331) 
nan

>  <ATP_Site>  (331) 
nan

>  <Peripheral>  (331) 
nan

>  <Num_H_Atoms_ProtBoundConf>  (331) 
nan

>  <Num_Resolved_Atoms>  (331) 
nan

>  <Num_Not_Resolved_Atoms>  (331) 
nan

$$$$
CHEMBL509032
     RDKit          3D

  0  0  0  0  0  0  0  0  0  0999 V3000
M  V30 BEGIN CTAB
M  V30 COUNTS 82 86 0 0 0
M  V30 BEGIN ATOM
M  V30 1 C -5.401402 -3.291509 2.799837 0
M  V30 2 O -4.250945 -3.732288 2.101474 0
M  V30 3 C -3.077616 -2.967468 2.061181 0
M  V30 4 C -3.058777 -1.761312 2.721356 0
M  V30 5 C -1.934489 -0.964208 2.718549 0
M  V30 6 N -1.890564 0.285210 3.382653 0
M  V30 7 C -0.765213 1.161959 3.606794 0
M  V30 8 C -0.812331 2.406463 2.708114 0
M  V30 9 C -2.233107 2.527213 2.268683 0
M  V30 10 N -2.537968 3.599463 1.382503 0
M  V30 11 C -1.824230 3.558155 0.154500 0
M  V30 12 C -2.028106 4.786882 -0.671531 0
M  V30 13 N -1.675505 6.003730 0.016778 0
M  V30 14 C -0.565940 6.691649 -0.574788 0
M  V30 15 C -1.524179 5.812587 1.442901 0
M  V30 16 C -2.621977 4.904755 1.945124 0
M  V30 17 C -3.111243 2.408191 3.462669 0
M  V30 18 C -3.018513 0.971974 3.987643 0
M  V30 19 C -0.820836 -1.403794 2.035039 0
M  V30 20 C -0.893780 -2.621805 1.389632 0
M  V30 21 C -1.991447 -3.453755 1.362730 0
M  V30 22 N -2.061272 -4.705964 0.702122 0
M  V30 23 C -1.066158 -5.357888 -0.071166 0
M  V30 24 N -1.297232 -6.553868 -0.604745 0
M  V30 25 C -0.410675 -7.229308 -1.348012 0
M  V30 26 C 0.823293 -6.692161 -1.599306 0
M  V30 27 Cl 2.091709 -7.448573 -2.550865 0
M  V30 28 C 1.102558 -5.456195 -1.065568 0
M  V30 29 N 2.332263 -4.724546 -1.214877 0
M  V30 30 C 2.347147 -3.867219 -2.371434 0
M  V30 31 C 1.239624 -3.803957 -3.223754 0
M  V30 32 C 1.234571 -2.977932 -4.352120 0
M  V30 33 C 2.325680 -2.215938 -4.635078 0
M  V30 34 C 3.434324 -2.255204 -3.814762 0
M  V30 35 C 3.404422 -3.078333 -2.714329 0
M  V30 36 S 4.800535 -3.124932 -1.686569 0
M  V30 37 O 5.363879 -4.529791 -1.776826 0
M  V30 38 O 4.494154 -2.764840 -0.268461 0
M  V30 39 C 6.090511 -2.039050 -2.259522 0
M  V30 40 C 6.621190 -2.408469 -3.607542 0
M  V30 41 C 5.674317 -0.591821 -2.169506 0
M  V30 42 N 0.152981 -4.877869 -0.346402 0
M  V30 43 H -6.256872 -3.925290 2.509851 0
M  V30 44 H -5.700233 -2.255502 2.527378 0
M  V30 45 H -5.242254 -3.382406 3.892533 0
M  V30 46 H -3.960465 -1.468786 3.240906 0
M  V30 47 H 0.165212 0.586046 3.405060 0
M  V30 48 H -0.655512 1.480801 4.677407 0
M  V30 49 H -0.464560 3.303072 3.290147 0
M  V30 50 H -0.078089 2.259103 1.919857 0
M  V30 51 H -2.423023 1.597727 1.652869 0
M  V30 52 H -0.731527 3.410276 0.265513 0
M  V30 53 H -2.174349 2.688060 -0.438582 0
M  V30 54 H -3.028767 4.819490 -1.125279 0
M  V30 55 H -1.312257 4.699037 -1.540161 0
M  V30 56 H 0.138488 6.048608 -1.133305 0
M  V30 57 H -0.082300 7.288992 0.227509 0
M  V30 58 H -0.989885 7.427737 -1.308035 0
M  V30 59 H -1.710730 6.820918 1.913371 0
M  V30 60 H -0.512662 5.484113 1.744618 0
M  V30 61 H -3.576691 5.366242 1.613913 0
M  V30 62 H -2.675190 4.881848 3.046970 0
M  V30 63 H -4.177544 2.595270 3.246221 0
M  V30 64 H -2.768989 3.054049 4.317004 0
M  V30 65 H -3.978833 0.443315 3.862554 0
M  V30 66 H -2.826063 0.944052 5.090907 0
M  V30 67 H 0.113778 -0.828465 1.982454 0
M  V30 68 H -0.004718 -2.917550 0.874855 0
M  V30 69 H -2.980088 -5.227460 0.797586 0
M  V30 70 H -0.620586 -8.191856 -1.767719 0
M  V30 71 H 3.198403 -4.710886 -0.637783 0
M  V30 72 H 0.355103 -4.386679 -3.040425 0
M  V30 73 H 0.352991 -2.968734 -4.973954 0
M  V30 74 H 2.286874 -1.588346 -5.517908 0
M  V30 75 H 4.247420 -1.632161 -4.102641 0
M  V30 76 H 6.924552 -2.167094 -1.517560 0
M  V30 77 H 6.049554 -3.228797 -4.070983 0
M  V30 78 H 6.640858 -1.472071 -4.237451 0
M  V30 79 H 7.694606 -2.738118 -3.571200 0
M  V30 80 H 4.583424 -0.443995 -2.050028 0
M  V30 81 H 6.024728 -0.088792 -3.094198 0
M  V30 82 H 6.190170 -0.053168 -1.321670 0
M  V30 END ATOM
M  V30 BEGIN BOND
M  V30 1 1 1 2
M  V30 2 1 2 3
M  V30 3 2 3 4
M  V30 4 1 4 5
M  V30 5 1 5 6
M  V30 6 1 6 7
M  V30 7 1 7 8
M  V30 8 1 8 9
M  V30 9 1 9 10
M  V30 10 1 10 11
M  V30 11 1 11 12
M  V30 12 1 12 13
M  V30 13 1 13 14
M  V30 14 1 13 15
M  V30 15 1 15 16
M  V30 16 1 9 17
M  V30 17 1 17 18
M  V30 18 2 5 19
M  V30 19 1 19 20
M  V30 20 2 20 21
M  V30 21 1 21 22
M  V30 22 1 22 23
M  V30 23 2 23 24
M  V30 24 1 24 25
M  V30 25 2 25 26
M  V30 26 1 26 27
M  V30 27 1 26 28
M  V30 28 1 28 29
M  V30 29 1 29 30
M  V30 30 2 30 31
M  V30 31 1 31 32
M  V30 32 2 32 33
M  V30 33 1 33 34
M  V30 34 2 34 35
M  V30 35 1 35 36
M  V30 36 2 36 37
M  V30 37 2 36 38
M  V30 38 1 36 39
M  V30 39 1 39 40
M  V30 40 1 39 41
M  V30 41 2 28 42
M  V30 42 1 21 3
M  V30 43 1 42 23
M  V30 44 1 18 6
M  V30 45 1 35 30
M  V30 46 1 16 10
M  V30 47 1 1 43
M  V30 48 1 1 44
M  V30 49 1 1 45
M  V30 50 1 4 46
M  V30 51 1 7 47
M  V30 52 1 7 48
M  V30 53 1 8 49
M  V30 54 1 8 50
M  V30 55 1 9 51
M  V30 56 1 11 52
M  V30 57 1 11 53
M  V30 58 1 12 54
M  V30 59 1 12 55
M  V30 60 1 14 56
M  V30 61 1 14 57
M  V30 62 1 14 58
M  V30 63 1 15 59
M  V30 64 1 15 60
M  V30 65 1 16 61
M  V30 66 1 16 62
M  V30 67 1 17 63
M  V30 68 1 17 64
M  V30 69 1 18 65
M  V30 70 1 18 66
M  V30 71 1 19 67
M  V30 72 1 20 68
M  V30 73 1 22 69
M  V30 74 1 25 70
M  V30 75 1 29 71
M  V30 76 1 31 72
M  V30 77 1 32 73
M  V30 78 1 33 74
M  V30 79 1 34 75
M  V30 80 1 39 76
M  V30 81 1 40 77
M  V30 82 1 40 78
M  V30 83 1 40 79
M  V30 84 1 41 80
M  V30 85 1 41 81
M  V30 86 1 41 82
M  V30 END BOND
M  V30 END CTAB
M  END
>  <Dataset>  (332) 
ChEMBL_Kinases

>  <Ligand_Instance>  (332) 
nan

>  <PDB_ID>  (332) 
nan

>  <Standardized_SMILES>  (332) 
COc1cc(N2CCC(N3CCN(C)CC3)CC2)ccc1Nc1ncc(Cl)c(Nc2ccccc2S(=O)(=O)C(C)C)n1

>  <Name>  (332) 
TAE-684

>  <Pocket>  (332) 
nan

>  <ATP_Site>  (332) 
nan

>  <Peripheral>  (332) 
nan

>  <Num_H_Atoms_ProtBoundConf>  (332) 
nan

>  <Num_Resolved_Atoms>  (332) 
nan

>  <Num_Not_Resolved_Atoms>  (332) 
nan

$$$$
CHEMBL4757431
     RDKit          3D

  0  0  0  0  0  0  0  0  0  0999 V3000
M  V30 BEGIN CTAB
M  V30 COUNTS 43 46 0 0 0
M  V30 BEGIN ATOM
M  V30 1 N -0.192091 -4.151838 6.856807 0
M  V30 2 C 0.678475 -3.298891 6.123252 0
M  V30 3 N 1.719010 -2.490176 6.427242 0
M  V30 4 N 2.176849 -1.914346 5.329523 0
M  V30 5 C 1.452737 -2.321189 4.245106 0
M  V30 6 C 1.624514 -1.943520 2.927600 0
M  V30 7 C 0.734056 -2.521363 2.026413 0
M  V30 8 C 0.860148 -2.163579 0.612435 0
M  V30 9 C 0.552562 -2.998508 -0.442337 0
M  V30 10 C 0.715629 -2.539378 -1.735122 0
M  V30 11 C 1.179991 -1.262442 -1.972381 0
M  V30 12 O 1.326351 -0.850684 -3.153315 0
M  V30 13 N 1.493801 -0.409578 -0.980022 0
M  V30 14 C 1.984909 0.946084 -1.151818 0
M  V30 15 C 0.774832 1.838520 -1.192377 0
M  V30 16 C 0.321527 2.320799 0.019090 0
M  V30 17 C -0.790806 3.135794 -0.072129 0
M  V30 18 C -1.466547 3.498094 -1.232318 0
M  V30 19 C -0.948669 2.972148 -2.408107 0
M  V30 20 C -1.672489 3.360637 -3.647119 0
M  V30 21 F -1.309185 4.682296 -3.926918 0
M  V30 22 F -3.021962 3.361539 -3.360179 0
M  V30 23 F -1.374136 2.563786 -4.721981 0
M  V30 24 C 0.165409 2.147003 -2.390819 0
M  V30 25 C 1.319562 -0.899120 0.260178 0
M  V30 26 C -0.246563 -3.411308 2.454472 0
M  V30 27 C -0.345543 -3.733268 3.798354 0
M  V30 28 C 0.512620 -3.192494 4.757509 0
M  V30 29 H -1.168956 -3.744525 6.898355 0
M  V30 30 H 0.403781 -4.952993 7.148144 0
M  V30 31 H 2.992192 -1.259164 5.448624 0
M  V30 32 H 2.407114 -1.247000 2.661255 0
M  V30 33 H 0.194693 -3.983310 -0.169108 0
M  V30 34 H 0.470861 -3.203739 -2.551895 0
M  V30 35 H 2.586976 1.187429 -0.251196 0
M  V30 36 H 2.581533 1.052057 -2.078882 0
M  V30 37 H 0.759024 2.111158 0.977809 0
M  V30 38 H -1.189689 3.545008 0.867429 0
M  V30 39 H -2.327889 4.146180 -1.161730 0
M  V30 40 H 0.524523 1.768065 -3.332804 0
M  V30 41 H 1.564282 -0.235107 1.089178 0
M  V30 42 H -0.933087 -3.854837 1.747744 0
M  V30 43 H -1.115381 -4.433618 4.144830 0
M  V30 END ATOM
M  V30 BEGIN BOND
M  V30 1 1 1 2
M  V30 2 2 2 3
M  V30 3 1 3 4
M  V30 4 1 4 5
M  V30 5 2 5 6
M  V30 6 1 6 7
M  V30 7 1 7 8
M  V30 8 1 8 9
M  V30 9 2 9 10
M  V30 10 1 10 11
M  V30 11 2 11 12
M  V30 12 1 11 13
M  V30 13 1 13 14
M  V30 14 1 14 15
M  V30 15 2 15 16
M  V30 16 1 16 17
M  V30 17 2 17 18
M  V30 18 1 18 19
M  V30 19 1 19 20
M  V30 20 1 20 21
M  V30 21 1 20 22
M  V30 22 1 20 23
M  V30 23 2 19 24
M  V30 24 1 13 25
M  V30 25 2 7 26
M  V30 26 1 26 27
M  V30 27 2 27 28
M  V30 28 1 28 2
M  V30 29 1 28 5
M  V30 30 2 25 8
M  V30 31 1 24 15
M  V30 32 1 1 29
M  V30 33 1 1 30
M  V30 34 1 4 31
M  V30 35 1 6 32
M  V30 36 1 9 33
M  V30 37 1 10 34
M  V30 38 1 14 35
M  V30 39 1 14 36
M  V30 40 1 16 37
M  V30 41 1 17 38
M  V30 42 1 18 39
M  V30 43 1 24 40
M  V30 44 1 25 41
M  V30 45 1 26 42
M  V30 46 1 27 43
M  V30 END BOND
M  V30 END CTAB
M  END
>  <Dataset>  (333) 
ChEMBL_Kinases

>  <Ligand_Instance>  (333) 
nan

>  <PDB_ID>  (333) 
nan

>  <Standardized_SMILES>  (333) 
Nc1n[nH]c2cc(-c3ccc(=O)n(Cc4cccc(C(F)(F)F)c4)c3)ccc12

>  <Name>  (333) 
nan

>  <Pocket>  (333) 
nan

>  <ATP_Site>  (333) 
nan

>  <Peripheral>  (333) 
nan

>  <Num_H_Atoms_ProtBoundConf>  (333) 
nan

>  <Num_Resolved_Atoms>  (333) 
nan

>  <Num_Not_Resolved_Atoms>  (333) 
nan

$$$$
CHEMBL5089987
     RDKit          3D

  0  0  0  0  0  0  0  0  0  0999 V3000
M  V30 BEGIN CTAB
M  V30 COUNTS 58 61 0 0 0
M  V30 BEGIN ATOM
M  V30 1 N -1.080871 -1.440339 5.865598 0
M  V30 2 S -1.316159 -1.176758 4.170513 0
M  V30 3 O -1.600250 -2.527857 3.567706 0
M  V30 4 O -2.500213 -0.286180 3.991459 0
M  V30 5 C 0.129625 -0.519550 3.454876 0
M  V30 6 C 1.084025 -1.396868 2.950738 0
M  V30 7 C 2.223144 -0.851142 2.387649 0
M  V30 8 C 2.462567 0.521243 2.299776 0
M  V30 9 C 3.741872 0.894689 1.662260 0
M  V30 10 N 3.655515 1.069240 0.246272 0
M  V30 11 C 2.777987 2.053526 -0.282697 0
M  V30 12 C 3.266246 3.326916 -0.469264 0
M  V30 13 C 2.423518 4.277071 -0.979702 0
M  V30 14 N 1.177058 3.936105 -1.272857 0
M  V30 15 C 0.658929 2.707996 -1.107504 0
M  V30 16 N -0.690705 2.470236 -1.460359 0
M  V30 17 C -1.432183 1.265108 -1.370248 0
M  V30 18 C -2.752713 1.204504 -1.764766 0
M  V30 19 C -3.504835 0.055974 -1.693140 0
M  V30 20 C -2.960001 -1.114409 -1.212393 0
M  V30 21 C -1.641972 -1.106344 -0.804652 0
M  V30 22 C -1.060813 -2.358637 -0.290735 0
M  V30 23 N -0.448316 -3.184797 -1.303360 0
M  V30 24 C 0.078487 -4.368298 -0.680260 0
M  V30 25 C -0.992504 -5.371017 -0.356020 0
M  V30 26 O -1.636258 -5.765079 -1.550736 0
M  V30 27 C -2.352078 -4.625882 -1.946812 0
M  V30 28 C -1.345100 -3.584699 -2.340762 0
M  V30 29 C -0.935783 0.074554 -0.899163 0
M  V30 30 N 1.509111 1.818341 -0.610755 0
M  V30 31 C 1.485407 1.376341 2.814862 0
M  V30 32 C 0.347411 0.836830 3.377560 0
M  V30 33 H -0.080501 -1.236448 6.116121 0
M  V30 34 H -1.759463 -0.918492 6.438477 0
M  V30 35 H 0.903701 -2.448050 3.016456 0
M  V30 36 H 2.921792 -1.585055 2.016373 0
M  V30 37 H 4.063618 1.880881 2.106094 0
M  V30 38 H 4.519554 0.174660 1.968768 0
M  V30 39 H 4.184539 0.536166 -0.494044 0
M  V30 40 H 4.294310 3.534500 -0.207977 0
M  V30 41 H 2.751820 5.292891 -1.147310 0
M  V30 42 H -1.237522 3.297345 -1.847319 0
M  V30 43 H -3.237422 2.106635 -2.155546 0
M  V30 44 H -4.547933 0.093990 -2.027745 0
M  V30 45 H -3.621934 -1.960950 -1.193062 0
M  V30 46 H -1.862447 -2.884545 0.265710 0
M  V30 47 H -0.267913 -2.088401 0.442166 0
M  V30 48 H 0.634639 -4.147143 0.242345 0
M  V30 49 H 0.803049 -4.817109 -1.404431 0
M  V30 50 H -1.764481 -4.924653 0.279809 0
M  V30 51 H -0.545338 -6.265453 0.085707 0
M  V30 52 H -2.971636 -4.822765 -2.845867 0
M  V30 53 H -2.976924 -4.271555 -1.124496 0
M  V30 54 H -0.727768 -4.009797 -3.163453 0
M  V30 55 H -1.917736 -2.750855 -2.788325 0
M  V30 56 H 0.069558 -0.005376 -0.565109 0
M  V30 57 H 1.723863 2.425878 2.719592 0
M  V30 58 H -0.376967 1.545035 3.761244 0
M  V30 END ATOM
M  V30 BEGIN BOND
M  V30 1 1 1 2
M  V30 2 2 2 3
M  V30 3 2 2 4
M  V30 4 1 2 5
M  V30 5 2 5 6
M  V30 6 1 6 7
M  V30 7 2 7 8
M  V30 8 1 8 9
M  V30 9 1 9 10
M  V30 10 1 10 11
M  V30 11 2 11 12
M  V30 12 1 12 13
M  V30 13 2 13 14
M  V30 14 1 14 15
M  V30 15 1 15 16
M  V30 16 1 16 17
M  V30 17 2 17 18
M  V30 18 1 18 19
M  V30 19 2 19 20
M  V30 20 1 20 21
M  V30 21 1 21 22
M  V30 22 1 22 23
M  V30 23 1 23 24
M  V30 24 1 24 25
M  V30 25 1 25 26
M  V30 26 1 26 27
M  V30 27 1 27 28
M  V30 28 2 21 29
M  V30 29 2 15 30
M  V30 30 1 8 31
M  V30 31 2 31 32
M  V30 32 1 32 5
M  V30 33 1 30 11
M  V30 34 1 29 17
M  V30 35 1 28 23
M  V30 36 1 1 33
M  V30 37 1 1 34
M  V30 38 1 6 35
M  V30 39 1 7 36
M  V30 40 1 9 37
M  V30 41 1 9 38
M  V30 42 1 10 39
M  V30 43 1 12 40
M  V30 44 1 13 41
M  V30 45 1 16 42
M  V30 46 1 18 43
M  V30 47 1 19 44
M  V30 48 1 20 45
M  V30 49 1 22 46
M  V30 50 1 22 47
M  V30 51 1 24 48
M  V30 52 1 24 49
M  V30 53 1 25 50
M  V30 54 1 25 51
M  V30 55 1 27 52
M  V30 56 1 27 53
M  V30 57 1 28 54
M  V30 58 1 28 55
M  V30 59 1 29 56
M  V30 60 1 31 57
M  V30 61 1 32 58
M  V30 END BOND
M  V30 END CTAB
M  END
>  <Dataset>  (334) 
ChEMBL_Kinases

>  <Ligand_Instance>  (334) 
nan

>  <PDB_ID>  (334) 
nan

>  <Standardized_SMILES>  (334) 
NS(=O)(=O)c1ccc(CNc2ccnc(Nc3cccc(CN4CCOCC4)c3)n2)cc1

>  <Name>  (334) 
nan

>  <Pocket>  (334) 
nan

>  <ATP_Site>  (334) 
nan

>  <Peripheral>  (334) 
nan

>  <Num_H_Atoms_ProtBoundConf>  (334) 
nan

>  <Num_Resolved_Atoms>  (334) 
nan

>  <Num_Not_Resolved_Atoms>  (334) 
nan

$$$$
CHEMBL5089965
     RDKit          3D

  0  0  0  0  0  0  0  0  0  0999 V3000
M  V30 BEGIN CTAB
M  V30 COUNTS 52 56 0 0 0
M  V30 BEGIN ATOM
M  V30 1 C 0.983404 -2.228155 1.421255 0
M  V30 2 N 1.935126 -2.074957 0.341568 0
M  V30 3 C 3.080044 -1.286636 0.884938 0
M  V30 4 C 2.907732 0.122458 0.388929 0
M  V30 5 N 3.908627 0.643247 -0.338357 0
M  V30 6 N 3.690836 1.844642 -0.762824 0
M  V30 7 C 4.647948 2.598716 -1.572432 0
M  V30 8 C 2.478293 2.123198 -0.284037 0
M  V30 9 C 1.964109 3.450932 -0.617898 0
M  V30 10 N 1.532353 4.516121 -0.876935 0
M  V30 11 C 1.904255 1.076462 0.465269 0
M  V30 12 C 0.579371 1.306197 1.019135 0
M  V30 13 C 0.300065 2.524572 1.654314 0
M  V30 14 N -0.878608 2.875755 2.195108 0
M  V30 15 C -1.928303 2.041778 2.165402 0
M  V30 16 N -3.195717 2.027225 2.581683 0
M  V30 17 C -3.777717 0.836898 2.250828 0
M  V30 18 C -2.816546 0.102105 1.605938 0
M  V30 19 C -1.672587 0.853465 1.552871 0
M  V30 20 N -0.497773 0.526253 1.022873 0
M  V30 21 C -2.733300 -1.237255 1.047768 0
M  V30 22 C -2.481366 -1.663624 -0.221496 0
M  V30 23 N -2.418814 -3.024456 -0.107200 0
M  V30 24 N -2.624378 -3.413139 1.132142 0
M  V30 25 C -2.829727 -2.336445 1.912135 0
M  V30 26 C -3.104425 -2.359334 3.382931 0
M  V30 27 F -2.153641 -1.665045 4.097718 0
M  V30 28 F -4.399053 -1.942270 3.665777 0
M  V30 29 F -3.024892 -3.669558 3.796440 0
M  V30 30 C -2.074544 -4.007489 -1.130564 0
M  V30 31 C -0.551217 -4.361496 -0.929611 0
M  V30 32 C 0.116982 -3.062131 -1.025175 0
M  V30 33 C 1.540785 -2.876671 -0.820145 0
M  V30 34 O 2.761004 -2.963574 -1.004945 0
M  V30 35 H 1.304252 -3.144188 2.040852 0
M  V30 36 H -0.054259 -2.298235 1.170711 0
M  V30 37 H 1.051221 -1.416380 2.203901 0
M  V30 38 H 2.976780 -1.263926 1.966427 0
M  V30 39 H 4.017108 -1.748237 0.619263 0
M  V30 40 H 4.827887 2.005931 -2.483916 0
M  V30 41 H 4.202765 3.602127 -1.822919 0
M  V30 42 H 5.585080 2.781946 -1.028288 0
M  V30 43 H 1.077918 3.301178 1.747815 0
M  V30 44 H -3.696002 2.782044 3.081450 0
M  V30 45 H -4.743720 0.407914 2.386183 0
M  V30 46 H -2.402420 -0.891952 -0.941864 0
M  V30 47 H -2.099649 -3.510882 -2.110057 0
M  V30 48 H -2.691514 -4.884878 -1.123694 0
M  V30 49 H -0.407692 -4.930728 -0.015847 0
M  V30 50 H -0.333189 -5.023981 -1.792400 0
M  V30 51 H -0.428386 -2.178586 -0.621918 0
M  V30 52 H 0.009834 -2.783500 -2.185416 0
M  V30 END ATOM
M  V30 BEGIN BOND
M  V30 1 1 1 2
M  V30 2 1 2 3
M  V30 3 1 3 4
M  V30 4 2 4 5
M  V30 5 1 5 6
M  V30 6 1 6 7
M  V30 7 1 6 8
M  V30 8 1 8 9
M  V30 9 3 9 10
M  V30 10 2 8 11
M  V30 11 1 11 12
M  V30 12 2 12 13
M  V30 13 1 13 14
M  V30 14 2 14 15
M  V30 15 1 15 16
M  V30 16 1 16 17
M  V30 17 2 17 18
M  V30 18 1 18 19
M  V30 19 2 19 20
M  V30 20 1 18 21
M  V30 21 2 21 22
M  V30 22 1 22 23
M  V30 23 1 23 24
M  V30 24 2 24 25
M  V30 25 1 25 26
M  V30 26 1 26 27
M  V30 27 1 26 28
M  V30 28 1 26 29
M  V30 29 1 23 30
M  V30 30 1 30 31
M  V30 31 1 31 32
M  V30 32 1 32 33
M  V30 33 2 33 34
M  V30 34 1 33 2
M  V30 35 1 11 4
M  V30 36 1 20 12
M  V30 37 1 25 21
M  V30 38 1 19 15
M  V30 39 1 1 35
M  V30 40 1 1 36
M  V30 41 1 1 37
M  V30 42 1 3 38
M  V30 43 1 3 39
M  V30 44 1 7 40
M  V30 45 1 7 41
M  V30 46 1 7 42
M  V30 47 1 13 43
M  V30 48 1 16 44
M  V30 49 1 17 45
M  V30 50 1 22 46
M  V30 51 1 30 47
M  V30 52 1 30 48
M  V30 53 1 31 49
M  V30 54 1 31 50
M  V30 55 1 32 51
M  V30 56 1 32 52
M  V30 END BOND
M  V30 END CTAB
M  END
>  <Dataset>  (335) 
ChEMBL_Kinases

>  <Ligand_Instance>  (335) 
nan

>  <PDB_ID>  (335) 
nan

>  <Standardized_SMILES>  (335) 
CN1Cc2nn(C)c(C#N)c2-c2cnc3[nH]cc(c3n2)-c2cn(nc2C(F)(F)F)CCCC1=O

>  <Name>  (335) 
nan

>  <Pocket>  (335) 
nan

>  <ATP_Site>  (335) 
nan

>  <Peripheral>  (335) 
nan

>  <Num_H_Atoms_ProtBoundConf>  (335) 
nan

>  <Num_Resolved_Atoms>  (335) 
nan

>  <Num_Not_Resolved_Atoms>  (335) 
nan

$$$$
CHEMBL5089915
     RDKit          3D

  0  0  0  0  0  0  0  0  0  0999 V3000
M  V30 BEGIN CTAB
M  V30 COUNTS 57 61 0 0 0
M  V30 BEGIN ATOM
M  V30 1 C 5.632574 -1.855105 5.400286 0
M  V30 2 N 4.553206 -1.603408 4.465833 0
M  V30 3 C 3.197869 -1.977037 4.828232 0
M  V30 4 C 4.799031 -0.999773 3.206872 0
M  V30 5 C 6.077423 -0.630728 2.824981 0
M  V30 6 N 6.353764 -0.053154 1.627466 0
M  V30 7 C 5.333084 0.177924 0.754558 0
M  V30 8 C 5.575879 0.758127 -0.467307 0
M  V30 9 C 4.513719 0.975612 -1.330757 0
M  V30 10 C 3.253408 0.596901 -0.920415 0
M  V30 11 C 2.148287 0.823025 -1.841864 0
M  V30 12 N 0.984753 1.368983 -1.433155 0
M  V30 13 C -0.047234 1.579859 -2.249740 0
M  V30 14 N -1.310853 2.149518 -1.947954 0
M  V30 15 C -2.291148 1.243280 -1.426011 0
M  V30 16 C -1.975081 -0.090585 -1.221292 0
M  V30 17 C -2.863468 -1.013351 -0.727389 0
M  V30 18 C -4.135443 -0.583944 -0.420880 0
M  V30 19 N -5.149500 -1.427444 0.101396 0
M  V30 20 C -6.582402 -1.174861 0.305444 0
M  V30 21 C -7.380538 -2.211504 -0.490823 0
M  V30 22 N -6.463863 -3.014392 -1.282725 0
M  V30 23 C -5.586872 -3.785698 -0.392481 0
M  V30 24 C -4.945941 -2.785359 0.565104 0
M  V30 25 C -4.426723 0.743300 -0.631993 0
M  V30 26 N -3.541267 1.630381 -1.116738 0
M  V30 27 N 0.112724 1.219055 -3.539207 0
M  V30 28 C 1.249827 0.667244 -4.017627 0
M  V30 29 C 2.319608 0.451481 -3.158011 0
M  V30 30 F 3.457588 -0.106480 -3.660343 0
M  V30 31 C 2.990899 0.010202 0.309437 0
M  V30 32 C 4.058225 -0.199388 1.156748 0
M  V30 33 N 3.793686 -0.770863 2.345251 0
M  V30 34 H 5.797783 -0.886512 5.936269 0
M  V30 35 H 6.567366 -2.156656 4.921374 0
M  V30 36 H 5.330349 -2.632006 6.140964 0
M  V30 37 H 2.668079 -2.523454 4.011604 0
M  V30 38 H 2.666408 -1.069206 5.151859 0
M  V30 39 H 3.215741 -2.680956 5.693846 0
M  V30 40 H 6.933651 -0.783643 3.461105 0
M  V30 41 H 6.586195 1.012096 -0.682039 0
M  V30 42 H 4.699052 1.432249 -2.295201 0
M  V30 43 H -1.608298 3.150407 -2.062255 0
M  V30 44 H -0.974540 -0.459438 -1.454629 0
M  V30 45 H -2.591554 -2.031595 -0.580237 0
M  V30 46 H -6.825243 -0.149295 -0.018541 0
M  V30 47 H -6.822064 -1.265667 1.388746 0
M  V30 48 H -8.037807 -2.817367 0.142304 0
M  V30 49 H -8.021557 -1.663631 -1.228029 0
M  V30 50 H -6.994827 -3.682994 -1.861173 0
M  V30 51 H -4.813722 -4.243474 -1.041067 0
M  V30 52 H -6.118257 -4.586094 0.127168 0
M  V30 53 H -5.336331 -2.935366 1.614297 0
M  V30 54 H -3.865357 -3.016363 0.649276 0
M  V30 55 H -5.389971 1.223427 -0.435910 0
M  V30 56 H 1.318746 0.399020 -5.064491 0
M  V30 57 H 1.972948 -0.259056 0.560955 0
M  V30 END ATOM
M  V30 BEGIN BOND
M  V30 1 1 1 2
M  V30 2 1 2 3
M  V30 3 1 2 4
M  V30 4 2 4 5
M  V30 5 1 5 6
M  V30 6 2 6 7
M  V30 7 1 7 8
M  V30 8 2 8 9
M  V30 9 1 9 10
M  V30 10 1 10 11
M  V30 11 2 11 12
M  V30 12 1 12 13
M  V30 13 1 13 14
M  V30 14 1 14 15
M  V30 15 2 15 16
M  V30 16 1 16 17
M  V30 17 2 17 18
M  V30 18 1 18 19
M  V30 19 1 19 20
M  V30 20 1 20 21
M  V30 21 1 21 22
M  V30 22 1 22 23
M  V30 23 1 23 24
M  V30 24 1 18 25
M  V30 25 2 25 26
M  V30 26 2 13 27
M  V30 27 1 27 28
M  V30 28 2 28 29
M  V30 29 1 29 30
M  V30 30 2 10 31
M  V30 31 1 31 32
M  V30 32 2 32 33
M  V30 33 1 33 4
M  V30 34 1 32 7
M  V30 35 1 29 11
M  V30 36 1 26 15
M  V30 37 1 24 19
M  V30 38 1 1 34
M  V30 39 1 1 35
M  V30 40 1 1 36
M  V30 41 1 3 37
M  V30 42 1 3 38
M  V30 43 1 3 39
M  V30 44 1 5 40
M  V30 45 1 8 41
M  V30 46 1 9 42
M  V30 47 1 14 43
M  V30 48 1 16 44
M  V30 49 1 17 45
M  V30 50 1 20 46
M  V30 51 1 20 47
M  V30 52 1 21 48
M  V30 53 1 21 49
M  V30 54 1 22 50
M  V30 55 1 23 51
M  V30 56 1 23 52
M  V30 57 1 24 53
M  V30 58 1 24 54
M  V30 59 1 25 55
M  V30 60 1 28 56
M  V30 61 1 31 57
M  V30 END BOND
M  V30 END CTAB
M  END
>  <Dataset>  (336) 
ChEMBL_Kinases

>  <Ligand_Instance>  (336) 
nan

>  <PDB_ID>  (336) 
nan

>  <Standardized_SMILES>  (336) 
CN(C)c1cnc2ccc(-c3nc(Nc4ccc(N5CCNCC5)cn4)ncc3F)cc2n1

>  <Name>  (336) 
nan

>  <Pocket>  (336) 
nan

>  <ATP_Site>  (336) 
nan

>  <Peripheral>  (336) 
nan

>  <Num_H_Atoms_ProtBoundConf>  (336) 
nan

>  <Num_Resolved_Atoms>  (336) 
nan

>  <Num_Not_Resolved_Atoms>  (336) 
nan

$$$$
CHEMBL1361750
     RDKit          3D

  0  0  0  0  0  0  0  0  0  0999 V3000
M  V30 BEGIN CTAB
M  V30 COUNTS 47 50 0 0 0
M  V30 BEGIN ATOM
M  V30 1 Cl -3.067202 -0.530526 6.583516 0
M  V30 2 C -1.950246 -1.830348 6.264210 0
M  V30 3 C -1.452428 -2.673153 7.245781 0
M  V30 4 C -0.566304 -3.688203 6.951441 0
M  V30 5 C -0.187056 -3.838102 5.628769 0
M  V30 6 C -0.678078 -3.004163 4.648790 0
M  V30 7 C -1.566195 -1.991494 4.964305 0
M  V30 8 C -1.982660 -1.212546 3.802440 0
M  V30 9 C -3.343693 -0.987150 3.745249 0
M  V30 10 C -3.834163 -0.249669 2.668485 0
M  V30 11 C -2.989270 0.238136 1.693915 0
M  V30 12 N -3.393494 0.954123 0.628825 0
M  V30 13 C -2.585519 1.421916 -0.308523 0
M  V30 14 N -1.283421 1.163547 -0.183421 0
M  V30 15 C -0.729169 0.467386 0.816427 0
M  V30 16 N 0.677592 0.257331 0.853747 0
M  V30 17 C 1.506708 0.793222 -0.207429 0
M  V30 18 C 1.206171 0.209353 -1.562936 0
M  V30 19 N 2.057624 0.769714 -2.610117 0
M  V30 20 C 3.436083 0.342795 -2.425768 0
M  V30 21 C 4.239788 0.786431 -3.630752 0
M  V30 22 O 3.740911 0.253177 -4.810446 0
M  V30 23 C 2.417265 0.558658 -5.034378 0
M  V30 24 C 1.578377 0.182573 -3.851593 0
M  V30 25 C -1.630659 0.010934 1.755284 0
M  V30 26 C -1.151685 -0.717769 2.820222 0
M  V30 27 H -1.825292 -2.450414 8.230204 0
M  V30 28 H -0.207116 -4.322375 7.765559 0
M  V30 29 H 0.509323 -4.646609 5.446827 0
M  V30 30 H -0.289189 -3.243714 3.652219 0
M  V30 31 H -4.142182 -1.287989 4.408360 0
M  V30 32 H -4.885569 -0.005513 2.511421 0
M  V30 33 H -2.985573 1.999483 -1.152206 0
M  V30 34 H 1.181929 -0.263457 1.596474 0
M  V30 35 H 1.410119 1.918498 -0.249453 0
M  V30 36 H 2.577817 0.590820 -0.013518 0
M  V30 37 H 1.298756 -0.911136 -1.552598 0
M  V30 38 H 0.168148 0.423486 -1.880762 0
M  V30 39 H 3.520054 -0.738998 -2.321176 0
M  V30 40 H 3.882042 0.859038 -1.554616 0
M  V30 41 H 5.270130 0.414857 -3.498205 0
M  V30 42 H 4.284859 1.886402 -3.716433 0
M  V30 43 H 2.246991 1.593672 -5.364579 0
M  V30 44 H 2.090068 -0.119160 -5.872367 0
M  V30 45 H 1.582596 -0.906759 -3.710473 0
M  V30 46 H 0.538021 0.519994 -3.990608 0
M  V30 47 H -0.105122 -0.940569 2.941483 0
M  V30 END ATOM
M  V30 BEGIN BOND
M  V30 1 1 1 2
M  V30 2 2 2 3
M  V30 3 1 3 4
M  V30 4 2 4 5
M  V30 5 1 5 6
M  V30 6 2 6 7
M  V30 7 1 7 8
M  V30 8 2 8 9
M  V30 9 1 9 10
M  V30 10 2 10 11
M  V30 11 1 11 12
M  V30 12 2 12 13
M  V30 13 1 13 14
M  V30 14 2 14 15
M  V30 15 1 15 16
M  V30 16 1 16 17
M  V30 17 1 17 18
M  V30 18 1 18 19
M  V30 19 1 19 20
M  V30 20 1 20 21
M  V30 21 1 21 22
M  V30 22 1 22 23
M  V30 23 1 23 24
M  V30 24 1 15 25
M  V30 25 2 25 26
M  V30 26 1 7 2
M  V30 27 1 26 8
M  V30 28 1 25 11
M  V30 29 1 24 19
M  V30 30 1 3 27
M  V30 31 1 4 28
M  V30 32 1 5 29
M  V30 33 1 6 30
M  V30 34 1 9 31
M  V30 35 1 10 32
M  V30 36 1 13 33
M  V30 37 1 16 34
M  V30 38 1 17 35
M  V30 39 1 17 36
M  V30 40 1 18 37
M  V30 41 1 18 38
M  V30 42 1 20 39
M  V30 43 1 20 40
M  V30 44 1 21 41
M  V30 45 1 21 42
M  V30 46 1 23 43
M  V30 47 1 23 44
M  V30 48 1 24 45
M  V30 49 1 24 46
M  V30 50 1 26 47
M  V30 END BOND
M  V30 END CTAB
M  END
>  <Dataset>  (337) 
ChEMBL_Kinases

>  <Ligand_Instance>  (337) 
nan

>  <PDB_ID>  (337) 
nan

>  <Standardized_SMILES>  (337) 
Clc1ccccc1-c1ccc2ncnc(NCCN3CCOCC3)c2c1

>  <Name>  (337) 
nan

>  <Pocket>  (337) 
nan

>  <ATP_Site>  (337) 
nan

>  <Peripheral>  (337) 
nan

>  <Num_H_Atoms_ProtBoundConf>  (337) 
nan

>  <Num_Resolved_Atoms>  (337) 
nan

>  <Num_Not_Resolved_Atoms>  (337) 
nan

$$$$
CHEMBL5090931
     RDKit          3D

  0  0  0  0  0  0  0  0  0  0999 V3000
M  V30 BEGIN CTAB
M  V30 COUNTS 55 59 0 0 0
M  V30 BEGIN ATOM
M  V30 1 C 1.378428 -1.776825 6.649017 0
M  V30 2 C 1.466797 -1.876550 5.178865 0
M  V30 3 N 2.656907 -1.559477 4.615346 0
M  V30 4 C 2.826940 -1.622290 3.282465 0
M  V30 5 C 4.025841 -1.306855 2.669050 0
M  V30 6 C 4.124210 -1.395142 1.296613 0
M  V30 7 C 3.036670 -1.795721 0.527807 0
M  V30 8 C 3.328387 -1.829596 -0.901738 0
M  V30 9 N 2.405115 -1.289137 -1.745762 0
M  V30 10 C 2.576673 -1.269922 -3.071990 0
M  V30 11 N 1.554247 -0.682469 -3.868695 0
M  V30 12 C 0.415623 -0.153364 -3.199858 0
M  V30 13 C -0.636381 0.436589 -3.840007 0
M  V30 14 C -1.752909 0.959435 -3.233024 0
M  V30 15 C -1.845915 0.898265 -1.878240 0
M  V30 16 N -2.919095 1.383360 -1.080740 0
M  V30 17 C -3.141320 1.389200 0.337764 0
M  V30 18 C -4.336934 0.575434 0.775309 0
M  V30 19 N -5.057859 0.186664 -0.428604 0
M  V30 20 C -5.390322 1.417740 -1.110651 0
M  V30 21 C -4.112870 2.027712 -1.586367 0
M  V30 22 C -0.796766 0.307457 -1.209298 0
M  V30 23 N 0.276594 -0.189556 -1.862741 0
M  V30 24 N 3.695849 -1.800133 -3.597382 0
M  V30 25 C 4.655724 -2.355478 -2.800997 0
M  V30 26 C 4.496995 -2.385071 -1.427569 0
M  V30 27 F 5.407429 -2.919442 -0.577744 0
M  V30 28 C 1.842862 -2.109173 1.146037 0
M  V30 29 C 1.762888 -2.014914 2.522139 0
M  V30 30 N 0.560405 -2.338046 3.059531 0
M  V30 31 C 0.384172 -2.277213 4.391545 0
M  V30 32 C -0.911210 -2.617976 5.055737 0
M  V30 33 H 1.063790 -0.748917 6.929377 0
M  V30 34 H 0.674202 -2.562730 7.002147 0
M  V30 35 H 2.391355 -1.983640 7.101941 0
M  V30 36 H 4.843915 -1.000288 3.308086 0
M  V30 37 H 5.098718 -1.130652 0.891605 0
M  V30 38 H 1.576730 -0.610542 -4.906495 0
M  V30 39 H -0.626978 0.519418 -4.931571 0
M  V30 40 H -2.554337 1.413506 -3.777318 0
M  V30 41 H -3.244723 2.426764 0.771477 0
M  V30 42 H -2.253665 0.972208 0.835857 0
M  V30 43 H -5.023496 1.190349 1.395752 0
M  V30 44 H -4.024841 -0.333240 1.313316 0
M  V30 45 H -5.845292 -0.449558 -0.264783 0
M  V30 46 H -6.059153 1.161719 -1.948664 0
M  V30 47 H -5.988466 2.102431 -0.445939 0
M  V30 48 H -4.133474 3.110060 -1.263324 0
M  V30 49 H -4.131895 2.064645 -2.680929 0
M  V30 50 H -0.676407 0.160318 -0.145618 0
M  V30 51 H 5.566484 -2.788326 -3.211180 0
M  V30 52 H 1.057507 -2.409423 0.463589 0
M  V30 53 H -0.782431 -3.400104 5.836465 0
M  V30 54 H -1.597560 -2.948844 4.236188 0
M  V30 55 H -1.362073 -1.713597 5.511449 0
M  V30 END ATOM
M  V30 BEGIN BOND
M  V30 1 1 1 2
M  V30 2 2 2 3
M  V30 3 1 3 4
M  V30 4 2 4 5
M  V30 5 1 5 6
M  V30 6 2 6 7
M  V30 7 1 7 8
M  V30 8 2 8 9
M  V30 9 1 9 10
M  V30 10 1 10 11
M  V30 11 1 11 12
M  V30 12 2 12 13
M  V30 13 1 13 14
M  V30 14 2 14 15
M  V30 15 1 15 16
M  V30 16 1 16 17
M  V30 17 1 17 18
M  V30 18 1 18 19
M  V30 19 1 19 20
M  V30 20 1 20 21
M  V30 21 1 15 22
M  V30 22 2 22 23
M  V30 23 2 10 24
M  V30 24 1 24 25
M  V30 25 2 25 26
M  V30 26 1 26 27
M  V30 27 1 7 28
M  V30 28 2 28 29
M  V30 29 1 29 30
M  V30 30 2 30 31
M  V30 31 1 31 32
M  V30 32 1 31 2
M  V30 33 1 29 4
M  V30 34 1 26 8
M  V30 35 1 23 12
M  V30 36 1 21 16
M  V30 37 1 1 33
M  V30 38 1 1 34
M  V30 39 1 1 35
M  V30 40 1 5 36
M  V30 41 1 6 37
M  V30 42 1 11 38
M  V30 43 1 13 39
M  V30 44 1 14 40
M  V30 45 1 17 41
M  V30 46 1 17 42
M  V30 47 1 18 43
M  V30 48 1 18 44
M  V30 49 1 19 45
M  V30 50 1 20 46
M  V30 51 1 20 47
M  V30 52 1 21 48
M  V30 53 1 21 49
M  V30 54 1 22 50
M  V30 55 1 25 51
M  V30 56 1 28 52
M  V30 57 1 32 53
M  V30 58 1 32 54
M  V30 59 1 32 55
M  V30 END BOND
M  V30 END CTAB
M  END
>  <Dataset>  (338) 
ChEMBL_Kinases

>  <Ligand_Instance>  (338) 
nan

>  <PDB_ID>  (338) 
nan

>  <Standardized_SMILES>  (338) 
Cc1nc2ccc(-c3nc(Nc4ccc(N5CCNCC5)cn4)ncc3F)cc2nc1C

>  <Name>  (338) 
nan

>  <Pocket>  (338) 
nan

>  <ATP_Site>  (338) 
nan

>  <Peripheral>  (338) 
nan

>  <Num_H_Atoms_ProtBoundConf>  (338) 
nan

>  <Num_Resolved_Atoms>  (338) 
nan

>  <Num_Not_Resolved_Atoms>  (338) 
nan

$$$$
CHEMBL188417
     RDKit          3D

  0  0  0  0  0  0  0  0  0  0999 V3000
M  V30 BEGIN CTAB
M  V30 COUNTS 46 49 0 0 0
M  V30 BEGIN ATOM
M  V30 1 C 0.758244 -5.383402 3.800687 0
M  V30 2 O 1.291010 -4.288598 3.084551 0
M  V30 3 C 0.827152 -4.047192 1.793639 0
M  V30 4 C 1.369054 -2.956493 1.103480 0
M  V30 5 C 0.862682 -2.784754 -0.159183 0
M  V30 6 N 1.347431 -1.704630 -0.931878 0
M  V30 7 C 2.276095 -0.675286 -0.732754 0
M  V30 8 N 3.591177 -0.669573 -0.996139 0
M  V30 9 C 4.352253 0.425611 -0.741754 0
M  V30 10 C 3.820437 1.575388 -0.206132 0
M  V30 11 C 2.467782 1.562735 0.062200 0
M  V30 12 C 1.880470 2.768589 0.626836 0
M  V30 13 C 2.495539 3.964482 0.938017 0
M  V30 14 N 1.528148 4.789452 1.435919 0
M  V30 15 N 0.370856 4.156569 1.441127 0
M  V30 16 N -0.804694 4.606666 1.844759 0
M  V30 17 C -1.911858 3.810075 1.779336 0
M  V30 18 O -3.083796 4.127434 2.133423 0
M  V30 19 C -4.232439 4.622298 2.547199 0
M  V30 20 C -1.740016 2.516881 1.272693 0
M  V30 21 C -0.507140 2.010067 0.836938 0
M  V30 22 C 0.529265 2.917018 0.956690 0
M  V30 23 N 1.782779 0.467096 -0.207614 0
M  V30 24 C -0.093308 -3.564636 -0.775114 0
M  V30 25 C -0.600801 -4.630747 -0.057573 0
M  V30 26 O -1.566146 -5.464152 -0.605783 0
M  V30 27 C -2.033514 -5.205559 -1.927647 0
M  V30 28 C -0.141315 -4.869257 1.221045 0
M  V30 29 H 1.345563 -5.524984 4.744103 0
M  V30 30 H 0.794328 -6.324132 3.216835 0
M  V30 31 H -0.320519 -5.211064 4.050083 0
M  V30 32 H 2.121736 -2.304628 1.522122 0
M  V30 33 H 1.049177 -1.469416 -1.910133 0
M  V30 34 H 5.385508 0.304823 -0.996059 0
M  V30 35 H 4.461632 2.414739 -0.021913 0
M  V30 36 H 3.561422 4.195740 0.805308 0
M  V30 37 H -5.162531 4.016098 2.358556 0
M  V30 38 H -4.453618 5.602811 2.050580 0
M  V30 39 H -4.271100 4.822902 3.657766 0
M  V30 40 H -2.572823 1.802280 1.181612 0
M  V30 41 H -0.428807 1.003971 0.454049 0
M  V30 42 H -0.442888 -3.368509 -1.774855 0
M  V30 43 H -2.359707 -4.152504 -1.940025 0
M  V30 44 H -2.904059 -5.862741 -2.164873 0
M  V30 45 H -1.189260 -5.354525 -2.635653 0
M  V30 46 H -0.561105 -5.713409 1.753432 0
M  V30 END ATOM
M  V30 BEGIN BOND
M  V30 1 1 1 2
M  V30 2 1 2 3
M  V30 3 2 3 4
M  V30 4 1 4 5
M  V30 5 1 5 6
M  V30 6 1 6 7
M  V30 7 2 7 8
M  V30 8 1 8 9
M  V30 9 2 9 10
M  V30 10 1 10 11
M  V30 11 1 11 12
M  V30 12 1 12 13
M  V30 13 2 13 14
M  V30 14 1 14 15
M  V30 15 1 15 16
M  V30 16 2 16 17
M  V30 17 1 17 18
M  V30 18 1 18 19
M  V30 19 1 17 20
M  V30 20 2 20 21
M  V30 21 1 21 22
M  V30 22 2 11 23
M  V30 23 2 5 24
M  V30 24 1 24 25
M  V30 25 1 25 26
M  V30 26 1 26 27
M  V30 27 2 25 28
M  V30 28 1 28 3
M  V30 29 1 23 7
M  V30 30 2 22 12
M  V30 31 1 22 15
M  V30 32 1 1 29
M  V30 33 1 1 30
M  V30 34 1 1 31
M  V30 35 1 4 32
M  V30 36 1 6 33
M  V30 37 1 9 34
M  V30 38 1 10 35
M  V30 39 1 13 36
M  V30 40 1 19 37
M  V30 41 1 19 38
M  V30 42 1 19 39
M  V30 43 1 20 40
M  V30 44 1 21 41
M  V30 45 1 24 42
M  V30 46 1 27 43
M  V30 47 1 27 44
M  V30 48 1 27 45
M  V30 49 1 28 46
M  V30 END BOND
M  V30 END CTAB
M  END
>  <Dataset>  (339) 
ChEMBL_Kinases

>  <Ligand_Instance>  (339) 
nan

>  <PDB_ID>  (339) 
nan

>  <Standardized_SMILES>  (339) 
COc1cc(Nc2nccc(-c3cnn4nc(OC)ccc34)n2)cc(OC)c1

>  <Name>  (339) 
nan

>  <Pocket>  (339) 
nan

>  <ATP_Site>  (339) 
nan

>  <Peripheral>  (339) 
nan

>  <Num_H_Atoms_ProtBoundConf>  (339) 
nan

>  <Num_Resolved_Atoms>  (339) 
nan

>  <Num_Not_Resolved_Atoms>  (339) 
nan

$$$$
CHEMBL4758690
     RDKit          3D

  0  0  0  0  0  0  0  0  0  0999 V3000
M  V30 BEGIN CTAB
M  V30 COUNTS 48 51 0 0 0
M  V30 BEGIN ATOM
M  V30 1 O -0.611730 -4.434338 -0.543628 0
M  V30 2 C 0.095018 -5.297147 -0.003268 0
M  V30 3 N 1.431067 -4.871111 0.175570 0
M  V30 4 C 1.707920 -3.530735 -0.300561 0
M  V30 5 C 2.125580 -2.960835 -1.486967 0
M  V30 6 N 2.198333 -1.630314 -1.296756 0
M  V30 7 N 1.852293 -1.313874 -0.059599 0
M  V30 8 C 1.803137 -0.013637 0.520784 0
M  V30 9 C 2.547954 0.162996 1.689384 0
M  V30 10 S 2.240220 1.976012 2.151779 0
M  V30 11 C 1.204838 2.258861 0.792109 0
M  V30 12 C 0.509160 3.531884 0.421302 0
M  V30 13 O -0.226758 3.684188 -0.569532 0
M  V30 14 N 0.739150 4.614032 1.297158 0
M  V30 15 C 0.136463 5.886469 1.060908 0 CFG=2
M  V30 16 C 1.204483 6.930979 0.869760 0
M  V30 17 C 1.044985 7.922983 1.995440 0
M  V30 18 N -0.007092 7.460312 2.848307 0
M  V30 19 C -0.693290 6.380451 2.220134 0
M  V30 20 C 1.145715 1.120233 0.135715 0
M  V30 21 C 1.540386 -2.473984 0.589648 0
M  V30 22 N -0.496759 -6.511558 0.337776 0
M  V30 23 C -1.770725 -7.101066 0.268826 0
M  V30 24 C -1.798318 -8.469143 0.389840 0
M  V30 25 C -2.987655 -9.149165 0.351948 0
M  V30 26 C -4.186153 -8.503493 0.194234 0
M  V30 27 C -4.200077 -7.139608 0.071151 0
M  V30 28 C -2.988672 -6.494107 0.114291 0
M  V30 29 Cl -3.131097 -4.761258 -0.006330 0
M  V30 30 H 2.085994 -5.573413 0.636917 0
M  V30 31 H 2.313637 -3.623598 -2.317512 0
M  V30 32 H 3.228240 -0.662130 2.262331 0
M  V30 33 H 1.341521 4.575923 2.151564 0
M  V30 34 H -0.469444 5.807299 0.142560 0
M  V30 35 H 1.154719 7.428454 -0.103994 0
M  V30 36 H 2.232321 6.485855 0.994612 0
M  V30 37 H 0.791946 8.933842 1.583382 0
M  V30 38 H 1.973651 8.072042 2.576146 0
M  V30 39 H 0.221346 7.357427 3.841011 0
M  V30 40 H -1.642110 6.778369 1.805819 0
M  V30 41 H -0.872876 5.591172 2.977772 0
M  V30 42 H 0.548037 1.009855 -0.786304 0
M  V30 43 H 1.218242 -2.486059 1.642524 0
M  V30 44 H 0.287088 -7.087673 0.770169 0
M  V30 45 H -0.901888 -9.063596 0.517446 0
M  V30 46 H -2.970538 -10.223705 0.448262 0
M  V30 47 H -5.067451 -9.103933 0.174239 0
M  V30 48 H -5.156784 -6.657373 -0.051640 0
M  V30 END ATOM
M  V30 BEGIN BOND
M  V30 1 2 1 2
M  V30 2 1 2 3
M  V30 3 1 3 4
M  V30 4 1 4 5
M  V30 5 2 5 6
M  V30 6 1 6 7
M  V30 7 1 7 8
M  V30 8 2 8 9
M  V30 9 1 9 10
M  V30 10 1 10 11
M  V30 11 1 11 12
M  V30 12 2 12 13
M  V30 13 1 12 14
M  V30 14 1 14 15
M  V30 15 1 15 16
M  V30 16 1 16 17
M  V30 17 1 17 18
M  V30 18 1 18 19
M  V30 19 2 11 20
M  V30 20 1 7 21
M  V30 21 1 2 22
M  V30 22 1 22 23
M  V30 23 2 23 24
M  V30 24 1 24 25
M  V30 25 2 25 26
M  V30 26 1 26 27
M  V30 27 2 27 28
M  V30 28 1 28 29
M  V30 29 2 21 4
M  V30 30 1 28 23
M  V30 31 1 20 8
M  V30 32 1 19 15
M  V30 33 1 3 30
M  V30 34 1 5 31
M  V30 35 1 9 32
M  V30 36 1 14 33
M  V30 37 1 15 34 CFG=3
M  V30 38 1 16 35
M  V30 39 1 16 36
M  V30 40 1 17 37
M  V30 41 1 17 38
M  V30 42 1 18 39
M  V30 43 1 19 40
M  V30 44 1 19 41
M  V30 45 1 20 42
M  V30 46 1 21 43
M  V30 47 1 22 44
M  V30 48 1 24 45
M  V30 49 1 25 46
M  V30 50 1 26 47
M  V30 51 1 27 48
M  V30 END BOND
M  V30 END CTAB
M  END
>  <Dataset>  (340) 
ChEMBL_Kinases

>  <Ligand_Instance>  (340) 
nan

>  <PDB_ID>  (340) 
nan

>  <Standardized_SMILES>  (340) 
O=C(Nc1cnn(-c2csc(C(=O)N[C@@H]3CCNC3)c2)c1)Nc1ccccc1Cl

>  <Name>  (340) 
nan

>  <Pocket>  (340) 
nan

>  <ATP_Site>  (340) 
nan

>  <Peripheral>  (340) 
nan

>  <Num_H_Atoms_ProtBoundConf>  (340) 
nan

>  <Num_Resolved_Atoms>  (340) 
nan

>  <Num_Not_Resolved_Atoms>  (340) 
nan

$$$$
CHEMBL188312
     RDKit          3D

  0  0  0  0  0  0  0  0  0  0999 V3000
M  V30 BEGIN CTAB
M  V30 COUNTS 42 45 0 0 0
M  V30 BEGIN ATOM
M  V30 1 C 0.575247 -4.537897 -1.255115 0
M  V30 2 O 0.942213 -3.211051 -0.946049 0
M  V30 3 C 1.260492 -2.278968 -1.908849 0
M  V30 4 C 1.242322 -2.582123 -3.254500 0
M  V30 5 C 1.580097 -1.565090 -4.118018 0
M  V30 6 C 1.927543 -0.291933 -3.734407 0
M  V30 7 C 1.949351 0.026070 -2.381245 0
M  V30 8 N 2.306748 1.293175 -1.846490 0
M  V30 9 C 2.142593 1.879706 -0.567038 0
M  V30 10 N 2.724406 3.072290 -0.358173 0
M  V30 11 C 2.646876 3.750762 0.778499 0
M  V30 12 C 1.912926 3.149259 1.768113 0
M  V30 13 C 1.284389 1.927064 1.633431 0
M  V30 14 C 0.524155 1.415342 2.760192 0
M  V30 15 C 0.440597 2.015262 4.010764 0
M  V30 16 N -0.354826 1.250700 4.774779 0
M  V30 17 N -0.803416 0.193853 4.129369 0
M  V30 18 N -1.599528 -0.815947 4.464588 0
M  V30 19 C -1.899402 -1.781533 3.575772 0
M  V30 20 O -2.732173 -2.816774 3.962959 0
M  V30 21 C -3.282744 -2.890820 5.277705 0
M  V30 22 C -1.405342 -1.791404 2.263129 0
M  V30 23 C -0.586325 -0.700770 2.008697 0
M  V30 24 C -0.265063 0.294827 2.894901 0
M  V30 25 N 1.449481 1.355916 0.429959 0
M  V30 26 C 1.610166 -0.997632 -1.521637 0
M  V30 27 H 0.034580 -4.658031 -2.199854 0
M  V30 28 H 1.453948 -5.218037 -1.273518 0
M  V30 29 H -0.087723 -4.879137 -0.426890 0
M  V30 30 H 0.983370 -3.546043 -3.617007 0
M  V30 31 H 1.587959 -1.726076 -5.206231 0
M  V30 32 H 2.190417 0.496872 -4.424946 0
M  V30 33 H 2.783075 1.861561 -2.598409 0
M  V30 34 H 3.132075 4.699931 0.889256 0
M  V30 35 H 1.834512 3.694651 2.718781 0
M  V30 36 H 0.907359 2.935813 4.373763 0
M  V30 37 H -3.858987 -1.977776 5.521067 0
M  V30 38 H -2.494884 -3.131080 6.024997 0
M  V30 39 H -4.012504 -3.722535 5.328297 0
M  V30 40 H -1.626394 -2.544560 1.532724 0
M  V30 41 H -0.179094 -0.644109 1.023224 0
M  V30 42 H 1.626401 -0.796273 -0.474876 0
M  V30 END ATOM
M  V30 BEGIN BOND
M  V30 1 1 1 2
M  V30 2 1 2 3
M  V30 3 2 3 4
M  V30 4 1 4 5
M  V30 5 2 5 6
M  V30 6 1 6 7
M  V30 7 1 7 8
M  V30 8 1 8 9
M  V30 9 2 9 10
M  V30 10 1 10 11
M  V30 11 2 11 12
M  V30 12 1 12 13
M  V30 13 1 13 14
M  V30 14 1 14 15
M  V30 15 2 15 16
M  V30 16 1 16 17
M  V30 17 1 17 18
M  V30 18 2 18 19
M  V30 19 1 19 20
M  V30 20 1 20 21
M  V30 21 1 19 22
M  V30 22 2 22 23
M  V30 23 1 23 24
M  V30 24 2 13 25
M  V30 25 2 7 26
M  V30 26 1 26 3
M  V30 27 1 25 9
M  V30 28 2 24 14
M  V30 29 1 24 17
M  V30 30 1 1 27
M  V30 31 1 1 28
M  V30 32 1 1 29
M  V30 33 1 4 30
M  V30 34 1 5 31
M  V30 35 1 6 32
M  V30 36 1 8 33
M  V30 37 1 11 34
M  V30 38 1 12 35
M  V30 39 1 15 36
M  V30 40 1 21 37
M  V30 41 1 21 38
M  V30 42 1 21 39
M  V30 43 1 22 40
M  V30 44 1 23 41
M  V30 45 1 26 42
M  V30 END BOND
M  V30 END CTAB
M  END
>  <Dataset>  (341) 
ChEMBL_Kinases

>  <Ligand_Instance>  (341) 
nan

>  <PDB_ID>  (341) 
nan

>  <Standardized_SMILES>  (341) 
COc1cccc(Nc2nccc(-c3cnn4nc(OC)ccc34)n2)c1

>  <Name>  (341) 
nan

>  <Pocket>  (341) 
nan

>  <ATP_Site>  (341) 
nan

>  <Peripheral>  (341) 
nan

>  <Num_H_Atoms_ProtBoundConf>  (341) 
nan

>  <Num_Resolved_Atoms>  (341) 
nan

>  <Num_Not_Resolved_Atoms>  (341) 
nan

$$$$
CHEMBL188303
     RDKit          3D

  0  0  0  0  0  0  0  0  0  0999 V3000
M  V30 BEGIN CTAB
M  V30 COUNTS 40 43 0 0 0
M  V30 BEGIN ATOM
M  V30 1 C -0.704368 -5.567850 2.488463 0
M  V30 2 C -0.016082 -4.598165 1.592080 0
M  V30 3 C -0.407631 -3.281063 1.630893 0
M  V30 4 C 0.256016 -2.406032 0.780864 0
M  V30 5 C 1.254018 -2.864136 -0.049377 0
M  V30 6 C 2.026442 -2.179133 -0.962848 0
M  V30 7 C 2.071728 -0.789223 -1.371672 0
M  V30 8 C 2.905148 -0.483878 -2.460563 0
M  V30 9 C 2.920704 0.827346 -2.853376 0
M  V30 10 N 2.214111 1.801150 -2.280783 0
M  V30 11 C 1.398136 1.504257 -1.213571 0
M  V30 12 N 0.646585 2.549616 -0.632137 0
M  V30 13 C -0.151978 2.549257 0.541695 0
M  V30 14 C -0.093214 1.552256 1.492629 0
M  V30 15 C -0.867142 1.506782 2.635543 0
M  V30 16 C -1.763357 2.535073 2.838893 0
M  V30 17 C -2.645402 2.563784 4.046140 0
M  V30 18 F -3.837126 1.869901 3.782337 0
M  V30 19 F -2.038443 1.981605 5.147423 0
M  V30 20 F -3.012108 3.874040 4.275182 0
M  V30 21 C -1.849544 3.554570 1.905379 0
M  V30 22 C -1.056881 3.560295 0.776677 0
M  V30 23 N 1.428812 0.237522 -0.889668 0
M  V30 24 C 2.838944 -3.193577 -1.482765 0
M  V30 25 N 2.519670 -4.349461 -0.883599 0
M  V30 26 N 1.554730 -4.167730 -0.005669 0
M  V30 27 N 0.968482 -5.061883 0.775102 0
M  V30 28 H 0.038155 -6.248330 2.950546 0
M  V30 29 H -1.199473 -5.039791 3.349244 0
M  V30 30 H -1.482847 -6.158924 1.997429 0
M  V30 31 H -1.198326 -2.977591 2.305047 0
M  V30 32 H -0.007920 -1.384625 0.762401 0
M  V30 33 H 3.497879 -1.226243 -2.960777 0
M  V30 34 H 3.574924 1.077475 -3.707913 0
M  V30 35 H 0.670303 3.478049 -1.135346 0
M  V30 36 H 0.640345 0.791208 1.267552 0
M  V30 37 H -0.772146 0.692161 3.353385 0
M  V30 38 H -2.553859 4.370145 2.056211 0
M  V30 39 H -1.178142 4.390356 0.082155 0
M  V30 40 H 3.614332 -3.137656 -2.237378 0
M  V30 END ATOM
M  V30 BEGIN BOND
M  V30 1 1 1 2
M  V30 2 1 2 3
M  V30 3 2 3 4
M  V30 4 1 4 5
M  V30 5 2 5 6
M  V30 6 1 6 7
M  V30 7 2 7 8
M  V30 8 1 8 9
M  V30 9 2 9 10
M  V30 10 1 10 11
M  V30 11 1 11 12
M  V30 12 1 12 13
M  V30 13 2 13 14
M  V30 14 1 14 15
M  V30 15 2 15 16
M  V30 16 1 16 17
M  V30 17 1 17 18
M  V30 18 1 17 19
M  V30 19 1 17 20
M  V30 20 1 16 21
M  V30 21 2 21 22
M  V30 22 2 11 23
M  V30 23 1 6 24
M  V30 24 2 24 25
M  V30 25 1 25 26
M  V30 26 1 26 27
M  V30 27 2 27 2
M  V30 28 1 26 5
M  V30 29 1 23 7
M  V30 30 1 22 13
M  V30 31 1 1 28
M  V30 32 1 1 29
M  V30 33 1 1 30
M  V30 34 1 3 31
M  V30 35 1 4 32
M  V30 36 1 8 33
M  V30 37 1 9 34
M  V30 38 1 12 35
M  V30 39 1 14 36
M  V30 40 1 15 37
M  V30 41 1 21 38
M  V30 42 1 22 39
M  V30 43 1 24 40
M  V30 END BOND
M  V30 END CTAB
M  END
>  <Dataset>  (342) 
ChEMBL_Kinases

>  <Ligand_Instance>  (342) 
nan

>  <PDB_ID>  (342) 
nan

>  <Standardized_SMILES>  (342) 
Cc1ccc2c(-c3ccnc(Nc4ccc(C(F)(F)F)cc4)n3)cnn2n1

>  <Name>  (342) 
nan

>  <Pocket>  (342) 
nan

>  <ATP_Site>  (342) 
nan

>  <Peripheral>  (342) 
nan

>  <Num_H_Atoms_ProtBoundConf>  (342) 
nan

>  <Num_Resolved_Atoms>  (342) 
nan

>  <Num_Not_Resolved_Atoms>  (342) 
nan

$$$$
CHEMBL4758887
     RDKit          3D

  0  0  0  0  0  0  0  0  0  0999 V3000
M  V30 BEGIN CTAB
M  V30 COUNTS 75 81 0 0 0
M  V30 BEGIN ATOM
M  V30 1 C 3.077890 -0.624108 5.502893 0
M  V30 2 C 4.244630 -0.751789 4.546957 0
M  V30 3 C 4.062138 -1.942299 3.619591 0
M  V30 4 O 5.461413 -0.961748 5.218357 0
M  V30 5 C 6.304366 0.080264 4.889020 0
M  V30 6 O 7.485489 0.165257 5.348818 0
M  V30 7 C 5.719985 1.051789 3.982440 0
M  V30 8 C 6.072188 2.212909 3.356608 0
M  V30 9 C 5.173944 2.863589 2.525615 0
M  V30 10 C 3.899568 2.334246 2.322662 0
M  V30 11 N 2.937732 2.968366 1.466961 0
M  V30 12 C 1.625836 2.432459 1.275725 0
M  V30 13 N 0.596702 2.826648 2.019781 0
M  V30 14 C -0.628599 2.309775 1.828144 0
M  V30 15 C -0.894845 1.357824 0.869211 0
M  V30 16 C -2.226361 0.805416 0.659358 0
M  V30 17 N -3.241839 1.239352 1.442930 0
M  V30 18 N -4.331248 0.599282 1.063119 0
M  V30 19 C -4.040780 -0.236962 0.052902 0
M  V30 20 C -4.640303 -1.237663 -0.872633 0
M  V30 21 C -6.110328 -1.380760 -0.628810 0
M  V30 22 C -6.642524 -2.408478 -1.624712 0
M  V30 23 N -5.547281 -3.075724 -2.332660 0
M  V30 24 C -4.731103 -3.680891 -1.273280 0
M  V30 25 C -3.935324 -2.580668 -0.635618 0
M  V30 26 C -4.756726 -2.158594 -3.117441 0
M  V30 27 C -4.435125 -0.897933 -2.324353 0
M  V30 28 O -2.765526 -0.058498 -0.132332 0
M  V30 29 C 0.232662 0.995381 0.130564 0
M  V30 30 N 0.144629 0.008510 -0.882947 0
M  V30 31 C 1.085049 -0.571500 -1.807052 0 CFG=2
M  V30 32 C 1.474345 0.442590 -2.835256 0
M  V30 33 O 2.064207 1.528257 -2.215072 0
M  V30 34 C 0.641511 -1.863140 -2.388819 0
M  V30 35 C 0.691041 -2.260667 -3.708203 0
M  V30 36 C 0.233254 -3.505519 -4.078618 0
M  V30 37 C -0.290742 -4.408227 -3.168471 0
M  V30 38 C -0.340039 -4.007664 -1.842718 0
M  V30 39 C 0.114976 -2.762005 -1.453731 0
M  V30 40 N 1.454611 1.510682 0.321215 0
M  V30 41 C 3.556814 1.154438 2.965435 0
M  V30 42 C 4.462686 0.496996 3.804169 0
M  V30 43 H 3.387895 -0.446643 6.544731 0
M  V30 44 H 2.451419 -1.560180 5.426768 0
M  V30 45 H 2.413785 0.211168 5.199713 0
M  V30 46 H 3.880437 -2.826648 4.246498 0
M  V30 47 H 3.278808 -1.780939 2.856747 0
M  V30 48 H 5.034400 -2.101123 3.107385 0
M  V30 49 H 7.069153 2.589781 3.541042 0
M  V30 50 H 5.451589 3.790332 2.024855 0
M  V30 51 H 3.233298 3.848939 0.980799 0
M  V30 52 H -1.415194 2.675746 2.467159 0
M  V30 53 H -6.569992 -0.396677 -0.927017 0
M  V30 54 H -6.390967 -1.601365 0.407529 0
M  V30 55 H -7.142347 -3.207968 -1.041250 0
M  V30 56 H -7.346461 -1.968429 -2.354815 0
M  V30 57 H -5.445336 -4.077655 -0.533663 0
M  V30 58 H -4.107941 -4.468563 -1.716324 0
M  V30 59 H -2.944095 -2.485795 -1.152351 0
M  V30 60 H -3.706904 -2.744811 0.439154 0
M  V30 61 H -3.783710 -2.668359 -3.321904 0
M  V30 62 H -5.254573 -1.950800 -4.073659 0
M  V30 63 H -5.073308 -0.062292 -2.674093 0
M  V30 64 H -3.376707 -0.583505 -2.503561 0
M  V30 65 H -0.774929 -0.436484 -1.052466 0
M  V30 66 H 2.050641 -0.839232 -1.262747 0
M  V30 67 H 0.588318 0.811738 -3.394022 0
M  V30 68 H 2.242812 0.017845 -3.519877 0
M  V30 69 H 1.565024 2.375470 -2.336197 0
M  V30 70 H 1.108530 -1.514739 -4.365236 0
M  V30 71 H 0.293438 -3.774226 -5.134459 0
M  V30 72 H -0.635976 -5.376108 -3.523770 0
M  V30 73 H -0.757368 -4.741600 -1.153633 0
M  V30 74 H 0.027835 -2.551749 -0.381975 0
M  V30 75 H 2.545570 0.754564 2.791736 0
M  V30 END ATOM
M  V30 BEGIN BOND
M  V30 1 1 1 2
M  V30 2 1 2 3
M  V30 3 1 2 4
M  V30 4 1 4 5
M  V30 5 2 5 6
M  V30 6 1 5 7
M  V30 7 2 7 8
M  V30 8 1 8 9
M  V30 9 2 9 10
M  V30 10 1 10 11
M  V30 11 1 11 12
M  V30 12 2 12 13
M  V30 13 1 13 14
M  V30 14 2 14 15
M  V30 15 1 15 16
M  V30 16 2 16 17
M  V30 17 1 17 18
M  V30 18 2 18 19
M  V30 19 1 19 20
M  V30 20 1 20 21
M  V30 21 1 21 22
M  V30 22 1 22 23
M  V30 23 1 23 24
M  V30 24 1 24 25
M  V30 25 1 23 26
M  V30 26 1 26 27
M  V30 27 1 19 28
M  V30 28 1 15 29
M  V30 29 1 29 30
M  V30 30 1 30 31
M  V30 31 1 31 32
M  V30 32 1 32 33
M  V30 33 1 31 34
M  V30 34 2 34 35
M  V30 35 1 35 36
M  V30 36 2 36 37
M  V30 37 1 37 38
M  V30 38 2 38 39
M  V30 39 2 29 40
M  V30 40 1 10 41
M  V30 41 2 41 42
M  V30 42 1 42 2
M  V30 43 1 42 7
M  V30 44 1 40 12
M  V30 45 1 28 16
M  V30 46 1 39 34
M  V30 47 1 25 20
M  V30 48 1 27 20
M  V30 49 1 1 43
M  V30 50 1 1 44
M  V30 51 1 1 45
M  V30 52 1 3 46
M  V30 53 1 3 47
M  V30 54 1 3 48
M  V30 55 1 8 49
M  V30 56 1 9 50
M  V30 57 1 11 51
M  V30 58 1 14 52
M  V30 59 1 21 53
M  V30 60 1 21 54
M  V30 61 1 22 55
M  V30 62 1 22 56
M  V30 63 1 24 57
M  V30 64 1 24 58
M  V30 65 1 25 59
M  V30 66 1 25 60
M  V30 67 1 26 61
M  V30 68 1 26 62
M  V30 69 1 27 63
M  V30 70 1 27 64
M  V30 71 1 30 65
M  V30 72 1 31 66 CFG=1
M  V30 73 1 32 67
M  V30 74 1 32 68
M  V30 75 1 33 69
M  V30 76 1 35 70
M  V30 77 1 36 71
M  V30 78 1 37 72
M  V30 79 1 38 73
M  V30 80 1 39 74
M  V30 81 1 41 75
M  V30 END BOND
M  V30 END CTAB
M  END
>  <Dataset>  (343) 
ChEMBL_Kinases

>  <Ligand_Instance>  (343) 
nan

>  <PDB_ID>  (343) 
nan

>  <Standardized_SMILES>  (343) 
CC1(C)OC(=O)c2ccc(Nc3ncc(-c4nnc(C56CCN(CC5)CC6)o4)c(N[C@H](CO)c4ccccc4)n3)cc21

>  <Name>  (343) 
nan

>  <Pocket>  (343) 
nan

>  <ATP_Site>  (343) 
nan

>  <Peripheral>  (343) 
nan

>  <Num_H_Atoms_ProtBoundConf>  (343) 
nan

>  <Num_Resolved_Atoms>  (343) 
nan

>  <Num_Not_Resolved_Atoms>  (343) 
nan

$$$$
CHEMBL1878704
     RDKit          3D

  0  0  0  0  0  0  0  0  0  0999 V3000
M  V30 BEGIN CTAB
M  V30 COUNTS 31 33 0 0 0
M  V30 BEGIN ATOM
M  V30 1 N 2.776119 -6.725020 3.125853 0
M  V30 2 C 2.347576 -5.537717 2.488033 0
M  V30 3 N 2.839564 -4.364981 2.660333 0
M  V30 4 C 2.249335 -3.348395 1.914536 0
M  V30 5 O 2.689341 -2.175628 2.046243 0
M  V30 6 C 1.152922 -3.702890 1.024353 0
M  V30 7 C 0.497912 -2.900466 0.215970 0
M  V30 8 C 0.721446 -1.481469 0.024195 0
M  V30 9 C 1.904819 -0.802575 -0.250247 0
M  V30 10 C 1.475909 0.505117 -0.313970 0
M  V30 11 C 0.128356 0.591145 -0.091840 0
M  V30 12 C -0.722566 1.786071 -0.070129 0
M  V30 13 C -0.111363 2.991521 -0.330631 0
M  V30 14 C -0.958084 4.076509 -0.287250 0
M  V30 15 C -2.301068 4.005617 -0.011534 0
M  V30 16 C -2.897822 2.806529 0.244919 0
M  V30 17 C -2.065961 1.685032 0.208655 0
M  V30 18 N -2.724585 0.469319 0.480125 0 CHG=1 VAL=4
M  V30 19 O -3.739650 0.341748 1.179281 0
M  V30 20 O -2.863350 -0.873956 0.366442 0 CHG=-1 VAL=1
M  V30 21 O -0.292314 -0.647350 0.109992 0
M  V30 22 S 0.971771 -5.467422 1.306662 0
M  V30 23 H 2.825047 -7.603085 2.560157 0
M  V30 24 H 3.053583 -6.798209 4.140481 0
M  V30 25 H -0.294699 -3.407033 -0.354583 0
M  V30 26 H 2.890577 -1.167733 -0.393999 0
M  V30 27 H 2.108373 1.361375 -0.511938 0
M  V30 28 H 0.915740 3.147916 -0.552950 0
M  V30 29 H -0.568556 5.057541 -0.479406 0
M  V30 30 H -2.912863 4.901539 0.009218 0
M  V30 31 H -3.940870 2.752636 0.458493 0
M  V30 END ATOM
M  V30 BEGIN BOND
M  V30 1 1 1 2
M  V30 2 2 2 3
M  V30 3 1 3 4
M  V30 4 2 4 5
M  V30 5 1 4 6
M  V30 6 2 6 7
M  V30 7 1 7 8
M  V30 8 2 8 9
M  V30 9 1 9 10
M  V30 10 2 10 11
M  V30 11 1 11 12
M  V30 12 2 12 13
M  V30 13 1 13 14
M  V30 14 2 14 15
M  V30 15 1 15 16
M  V30 16 2 16 17
M  V30 17 1 17 18
M  V30 18 2 18 19
M  V30 19 1 18 20
M  V30 20 1 11 21
M  V30 21 1 6 22
M  V30 22 1 22 2
M  V30 23 1 21 8
M  V30 24 1 17 12
M  V30 25 1 1 23
M  V30 26 1 1 24
M  V30 27 1 7 25
M  V30 28 1 9 26
M  V30 29 1 10 27
M  V30 30 1 13 28
M  V30 31 1 14 29
M  V30 32 1 15 30
M  V30 33 1 16 31
M  V30 END BOND
M  V30 END CTAB
M  END
>  <Dataset>  (344) 
ChEMBL_Kinases

>  <Ligand_Instance>  (344) 
nan

>  <PDB_ID>  (344) 
nan

>  <Standardized_SMILES>  (344) 
NC1=NC(=O)/C(=C\c2ccc(-c3ccccc3[N+](=O)[O-])o2)S1

>  <Name>  (344) 
nan

>  <Pocket>  (344) 
nan

>  <ATP_Site>  (344) 
nan

>  <Peripheral>  (344) 
nan

>  <Num_H_Atoms_ProtBoundConf>  (344) 
nan

>  <Num_Resolved_Atoms>  (344) 
nan

>  <Num_Not_Resolved_Atoms>  (344) 
nan

$$$$
CHEMBL4759018
     RDKit          3D

  0  0  0  0  0  0  0  0  0  0999 V3000
M  V30 BEGIN CTAB
M  V30 COUNTS 40 43 0 0 0
M  V30 BEGIN ATOM
M  V30 1 N -0.854930 -5.687686 3.694096 0
M  V30 2 C -0.071265 -4.790481 2.883809 0
M  V30 3 C 1.198161 -4.484242 3.324141 0
M  V30 4 C 2.006772 -3.625497 2.590465 0
M  V30 5 C 1.529636 -3.069712 1.399779 0
M  V30 6 C 0.251654 -3.394154 0.981145 0
M  V30 7 C -0.287464 -2.830361 -0.266132 0
M  V30 8 N -0.980649 -1.572197 -0.053556 0
M  V30 9 C -0.257420 -0.437999 -0.135958 0
M  V30 10 C -0.737556 0.838329 0.034345 0
M  V30 11 C 0.132711 2.004625 -0.076181 0
M  V30 12 C -0.123223 3.137121 0.669619 0
M  V30 13 C 0.651353 4.277095 0.620479 0
M  V30 14 C 1.754379 4.317448 -0.214765 0
M  V30 15 C 2.729439 5.248970 -0.520052 0
M  V30 16 N 3.559068 4.688780 -1.433761 0
M  V30 17 N 3.116516 3.453359 -1.688040 0
M  V30 18 C 2.013399 3.183055 -0.963875 0
M  V30 19 C 1.245000 2.037811 -0.922062 0
M  V30 20 C -2.084813 0.978146 0.316171 0
M  V30 21 C -2.829165 -0.180479 0.401473 0
M  V30 22 C -2.271489 -1.429911 0.216940 0
M  V30 23 O -2.969534 -2.476340 0.299225 0
M  V30 24 C -0.572806 -4.256225 1.708555 0
M  V30 25 H -1.252887 -5.625912 4.673225 0
M  V30 26 H -1.102627 -6.613917 3.245124 0
M  V30 27 H 1.584224 -4.906276 4.245290 0
M  V30 28 H 3.020562 -3.362534 2.914012 0
M  V30 29 H 2.153323 -2.406387 0.832430 0
M  V30 30 H 0.487180 -2.642332 -1.039437 0
M  V30 31 H -1.018277 -3.517419 -0.767729 0
M  V30 32 H 0.818067 -0.508317 -0.358572 0
M  V30 33 H -0.971492 3.158357 1.337224 0
M  V30 34 H 0.441908 5.154232 1.206829 0
M  V30 35 H 2.799110 6.247569 -0.091286 0
M  V30 36 H 3.635443 2.847294 -2.383187 0
M  V30 37 H 1.452524 1.159331 -1.507569 0
M  V30 38 H -2.540449 1.954073 0.464398 0
M  V30 39 H -3.888546 -0.164319 0.617736 0
M  V30 40 H -1.562357 -4.551342 1.451478 0
M  V30 END ATOM
M  V30 BEGIN BOND
M  V30 1 1 1 2
M  V30 2 2 2 3
M  V30 3 1 3 4
M  V30 4 2 4 5
M  V30 5 1 5 6
M  V30 6 1 6 7
M  V30 7 1 7 8
M  V30 8 1 8 9
M  V30 9 2 9 10
M  V30 10 1 10 11
M  V30 11 2 11 12
M  V30 12 1 12 13
M  V30 13 2 13 14
M  V30 14 1 14 15
M  V30 15 2 15 16
M  V30 16 1 16 17
M  V30 17 1 17 18
M  V30 18 2 18 19
M  V30 19 1 10 20
M  V30 20 2 20 21
M  V30 21 1 21 22
M  V30 22 2 22 23
M  V30 23 2 6 24
M  V30 24 1 24 2
M  V30 25 1 22 8
M  V30 26 1 19 11
M  V30 27 1 18 14
M  V30 28 1 1 25
M  V30 29 1 1 26
M  V30 30 1 3 27
M  V30 31 1 4 28
M  V30 32 1 5 29
M  V30 33 1 7 30
M  V30 34 1 7 31
M  V30 35 1 9 32
M  V30 36 1 12 33
M  V30 37 1 13 34
M  V30 38 1 15 35
M  V30 39 1 17 36
M  V30 40 1 19 37
M  V30 41 1 20 38
M  V30 42 1 21 39
M  V30 43 1 24 40
M  V30 END BOND
M  V30 END CTAB
M  END
>  <Dataset>  (345) 
ChEMBL_Kinases

>  <Ligand_Instance>  (345) 
nan

>  <PDB_ID>  (345) 
nan

>  <Standardized_SMILES>  (345) 
Nc1cccc(Cn2cc(-c3ccc4cn[nH]c4c3)ccc2=O)c1

>  <Name>  (345) 
nan

>  <Pocket>  (345) 
nan

>  <ATP_Site>  (345) 
nan

>  <Peripheral>  (345) 
nan

>  <Num_H_Atoms_ProtBoundConf>  (345) 
nan

>  <Num_Resolved_Atoms>  (345) 
nan

>  <Num_Not_Resolved_Atoms>  (345) 
nan

$$$$
CHEMBL187750
     RDKit          3D

  0  0  0  0  0  0  0  0  0  0999 V3000
M  V30 BEGIN CTAB
M  V30 COUNTS 38 41 0 0 0
M  V30 BEGIN ATOM
M  V30 1 O 1.739058 -7.412953 2.119330 0
M  V30 2 C 1.638058 -6.087438 1.677137 0
M  V30 3 C 2.169936 -5.635770 0.469886 0
M  V30 4 C 2.010958 -4.319051 0.140649 0
M  V30 5 C 1.356612 -3.428409 0.939130 0
M  V30 6 C 1.136514 -2.109186 0.707431 0
M  V30 7 C 1.406643 -1.123334 -0.302542 0
M  V30 8 C 2.236583 -1.206982 -1.366656 0
M  V30 9 C 2.464892 -0.209416 -2.283103 0
M  V30 10 N 1.822932 0.955473 -2.131738 0
M  V30 11 C 0.978511 1.074488 -1.069029 0
M  V30 12 N 0.311718 2.332689 -0.935876 0
M  V30 13 C -0.659004 2.833534 -0.019243 0
M  V30 14 C -1.112981 4.159969 -0.033792 0
M  V30 15 C -2.057756 4.581326 0.867528 0
M  V30 16 C -2.580213 3.714151 1.804072 0
M  V30 17 C -2.135445 2.398716 1.824603 0
M  V30 18 C -2.840817 1.664594 2.908374 0
M  V30 19 F -2.957598 2.408139 4.063568 0
M  V30 20 F -4.069252 1.278672 2.410830 0
M  V30 21 F -2.115715 0.520813 3.162473 0
M  V30 22 C -1.186813 1.980354 0.918029 0
M  V30 23 N 0.809496 0.053346 -0.218023 0
M  V30 24 C 0.426118 -1.765748 1.855377 0
M  V30 25 N 0.284723 -2.853658 2.645717 0
M  V30 26 N 0.864352 -3.894134 2.077743 0
M  V30 27 N 1.003771 -5.161094 2.419932 0
M  V30 28 H 2.226318 -7.612515 2.988048 0
M  V30 29 H 2.690007 -6.365562 -0.153755 0
M  V30 30 H 2.436533 -4.056305 -0.799627 0
M  V30 31 H 2.803351 -2.069603 -1.577969 0
M  V30 32 H 3.126182 -0.289011 -3.123414 0
M  V30 33 H 0.554969 3.076308 -1.638441 0
M  V30 34 H -0.691091 4.846871 -0.784017 0
M  V30 35 H -2.332033 5.622760 0.762893 0
M  V30 36 H -3.310727 4.205451 2.434838 0
M  V30 37 H -0.948138 0.954988 1.053754 0
M  V30 38 H -0.025935 -0.883607 2.268062 0
M  V30 END ATOM
M  V30 BEGIN BOND
M  V30 1 1 1 2
M  V30 2 1 2 3
M  V30 3 2 3 4
M  V30 4 1 4 5
M  V30 5 2 5 6
M  V30 6 1 6 7
M  V30 7 2 7 8
M  V30 8 1 8 9
M  V30 9 2 9 10
M  V30 10 1 10 11
M  V30 11 1 11 12
M  V30 12 1 12 13
M  V30 13 2 13 14
M  V30 14 1 14 15
M  V30 15 2 15 16
M  V30 16 1 16 17
M  V30 17 1 17 18
M  V30 18 1 18 19
M  V30 19 1 18 20
M  V30 20 1 18 21
M  V30 21 2 17 22
M  V30 22 2 11 23
M  V30 23 1 6 24
M  V30 24 2 24 25
M  V30 25 1 25 26
M  V30 26 1 26 27
M  V30 27 2 27 2
M  V30 28 1 26 5
M  V30 29 1 23 7
M  V30 30 1 22 13
M  V30 31 1 1 28
M  V30 32 1 3 29
M  V30 33 1 4 30
M  V30 34 1 8 31
M  V30 35 1 9 32
M  V30 36 1 12 33
M  V30 37 1 14 34
M  V30 38 1 15 35
M  V30 39 1 16 36
M  V30 40 1 22 37
M  V30 41 1 24 38
M  V30 END BOND
M  V30 END CTAB
M  END
>  <Dataset>  (346) 
ChEMBL_Kinases

>  <Ligand_Instance>  (346) 
nan

>  <PDB_ID>  (346) 
nan

>  <Standardized_SMILES>  (346) 
Oc1ccc2c(-c3ccnc(Nc4cccc(C(F)(F)F)c4)n3)cnn2n1

>  <Name>  (346) 
nan

>  <Pocket>  (346) 
nan

>  <ATP_Site>  (346) 
nan

>  <Peripheral>  (346) 
nan

>  <Num_H_Atoms_ProtBoundConf>  (346) 
nan

>  <Num_Resolved_Atoms>  (346) 
nan

>  <Num_Not_Resolved_Atoms>  (346) 
nan

$$$$
CHEMBL4759120
     RDKit          3D

  0  0  0  0  0  0  0  0  0  0999 V3000
M  V30 BEGIN CTAB
M  V30 COUNTS 64 70 0 0 0
M  V30 BEGIN ATOM
M  V30 1 C 2.931041 -2.350050 1.110507 0
M  V30 2 C 3.508958 -1.133210 1.462257 0
M  V30 3 C 2.770500 -0.225563 2.193533 0
M  V30 4 C 3.051583 1.100875 2.734686 0
M  V30 5 C 4.210468 1.174619 3.444477 0
M  V30 6 C 4.521450 2.407608 4.021142 0
M  V30 7 N 3.675923 3.450946 3.852687 0
M  V30 8 C 2.535577 3.365210 3.150432 0
M  V30 9 N 1.528078 4.189563 2.820978 0
M  V30 10 C 0.589590 3.556799 2.065477 0
M  V30 11 C -0.615469 4.241068 1.619046 0
M  V30 12 N -0.900920 5.534311 1.922728 0
M  V30 13 N -2.048590 5.911100 1.403799 0
M  V30 14 C -2.514659 4.832695 0.748030 0
M  V30 15 C -3.667365 4.591281 -0.001773 0
M  V30 16 C -3.840434 3.343955 -0.558950 0
M  V30 17 C -2.976161 2.284077 -0.452863 0
M  V30 18 C -3.273147 1.036141 -1.141787 0
M  V30 19 C -4.438030 0.891327 -1.828687 0
M  V30 20 N -4.764602 -0.222415 -2.518321 0
M  V30 21 C -3.900623 -1.281466 -2.551292 0
M  V30 22 C -2.668749 -1.224707 -1.870763 0
M  V30 23 O -1.989534 -2.295167 -2.014665 0
M  V30 24 C -1.286684 -3.391224 -2.158110 0
M  V30 25 C -0.969490 -4.080774 -0.837500 0
M  V30 26 N -0.210358 -5.234151 -0.952804 0
M  V30 27 C -0.674669 -6.414010 -1.525393 0
M  V30 28 C 0.301014 -7.519476 -1.140877 0
M  V30 29 C 1.513226 -6.785723 -0.661363 0
M  V30 30 C 1.005146 -5.414888 -0.284560 0
M  V30 31 C -2.437211 -0.043923 -1.198533 0
M  V30 32 N -1.885003 2.559772 0.276987 0
M  V30 33 C -1.645222 3.742306 0.849597 0
M  V30 34 C 0.974150 2.247164 1.872025 0
M  V30 35 C 2.173201 2.149081 2.547967 0
M  V30 36 C 1.455654 -0.577932 2.552348 0
M  V30 37 C 0.941910 -1.819559 2.163758 0
M  V30 38 N 1.684822 -2.669455 1.457966 0
M  V30 39 H 3.608766 -2.971756 0.540656 0
M  V30 40 H 4.482948 -0.716867 1.271680 0
M  V30 41 H 4.905405 0.366397 3.595153 0
M  V30 42 H 5.423684 2.611722 4.621841 0
M  V30 43 H 1.582755 5.182309 3.172796 0
M  V30 44 H -2.547613 6.827243 1.451716 0
M  V30 45 H -4.334826 5.429936 -0.080650 0
M  V30 46 H -4.781550 3.333162 -1.102637 0
M  V30 47 H -5.219863 1.608266 -1.906771 0
M  V30 48 H -4.257615 -2.147220 -3.142551 0
M  V30 49 H -0.322745 -3.192661 -2.715115 0
M  V30 50 H -1.871916 -4.126238 -2.819375 0
M  V30 51 H -0.498109 -3.315513 -0.191466 0
M  V30 52 H -1.966383 -4.307564 -0.384541 0
M  V30 53 H -0.916598 -6.428193 -2.604269 0
M  V30 54 H -1.647959 -6.722515 -1.033963 0
M  V30 55 H 0.544191 -8.147732 -2.031739 0
M  V30 56 H -0.075516 -8.153687 -0.315223 0
M  V30 57 H 2.256297 -6.677595 -1.484397 0
M  V30 58 H 1.981356 -7.277684 0.233708 0
M  V30 59 H 0.801712 -5.365135 0.829886 0
M  V30 60 H 1.792199 -4.651014 -0.526002 0
M  V30 61 H -1.484519 -0.003420 -0.673445 0
M  V30 62 H 0.444836 1.498408 1.319352 0
M  V30 63 H 0.724375 -0.011721 3.123851 0
M  V30 64 H -0.078218 -2.152513 2.413038 0
M  V30 END ATOM
M  V30 BEGIN BOND
M  V30 1 2 1 2
M  V30 2 1 2 3
M  V30 3 1 3 4
M  V30 4 2 4 5
M  V30 5 1 5 6
M  V30 6 2 6 7
M  V30 7 1 7 8
M  V30 8 1 8 9
M  V30 9 1 9 10
M  V30 10 1 10 11
M  V30 11 2 11 12
M  V30 12 1 12 13
M  V30 13 1 13 14
M  V30 14 2 14 15
M  V30 15 1 15 16
M  V30 16 2 16 17
M  V30 17 1 17 18
M  V30 18 2 18 19
M  V30 19 1 19 20
M  V30 20 2 20 21
M  V30 21 1 21 22
M  V30 22 1 22 23
M  V30 23 1 23 24
M  V30 24 1 24 25
M  V30 25 1 25 26
M  V30 26 1 26 27
M  V30 27 1 27 28
M  V30 28 1 28 29
M  V30 29 1 29 30
M  V30 30 2 22 31
M  V30 31 1 17 32
M  V30 32 2 32 33
M  V30 33 2 10 34
M  V30 34 1 34 35
M  V30 35 2 3 36
M  V30 36 1 36 37
M  V30 37 2 37 38
M  V30 38 1 38 1
M  V30 39 1 35 4
M  V30 40 2 35 8
M  V30 41 1 33 11
M  V30 42 1 33 14
M  V30 43 1 31 18
M  V30 44 1 30 26
M  V30 45 1 1 39
M  V30 46 1 2 40
M  V30 47 1 5 41
M  V30 48 1 6 42
M  V30 49 1 9 43
M  V30 50 1 13 44
M  V30 51 1 15 45
M  V30 52 1 16 46
M  V30 53 1 19 47
M  V30 54 1 21 48
M  V30 55 1 24 49
M  V30 56 1 24 50
M  V30 57 1 25 51
M  V30 58 1 25 52
M  V30 59 1 27 53
M  V30 60 1 27 54
M  V30 61 1 28 55
M  V30 62 1 28 56
M  V30 63 1 29 57
M  V30 64 1 29 58
M  V30 65 1 30 59
M  V30 66 1 30 60
M  V30 67 1 31 61
M  V30 68 1 34 62
M  V30 69 1 36 63
M  V30 70 1 37 64
M  V30 END BOND
M  V30 END CTAB
M  END
>  <Dataset>  (347) 
ChEMBL_Kinases

>  <Ligand_Instance>  (347) 
nan

>  <PDB_ID>  (347) 
nan

>  <Standardized_SMILES>  (347) 
c1cc(-c2ccnc3[nH]c(-c4n[nH]c5ccc(-c6cncc(OCCN7CCCC7)c6)nc45)cc23)ccn1

>  <Name>  (347) 
nan

>  <Pocket>  (347) 
nan

>  <ATP_Site>  (347) 
nan

>  <Peripheral>  (347) 
nan

>  <Num_H_Atoms_ProtBoundConf>  (347) 
nan

>  <Num_Resolved_Atoms>  (347) 
nan

>  <Num_Not_Resolved_Atoms>  (347) 
nan

$$$$
CHEMBL190228
     RDKit          3D

  0  0  0  0  0  0  0  0  0  0999 V3000
M  V30 BEGIN CTAB
M  V30 COUNTS 47 50 0 0 0
M  V30 BEGIN ATOM
M  V30 1 C -2.443100 -3.965458 1.650939 0
M  V30 2 N -3.258989 -2.765144 1.599884 0
M  V30 3 C -3.230252 -2.180253 0.317318 0
M  V30 4 C -3.475467 -0.716778 0.226312 0
M  V30 5 C -2.776381 0.077074 1.305009 0
M  V30 6 C -1.324569 0.195480 1.038634 0
M  V30 7 C -0.663759 1.376087 0.746457 0
M  V30 8 C 0.695013 1.142350 0.550065 0
M  V30 9 C 1.736343 2.110735 0.225171 0
M  V30 10 C 2.783685 2.361202 1.056495 0
M  V30 11 C 3.767866 3.286344 0.732750 0
M  V30 12 N 3.654085 3.929141 -0.430752 0
M  V30 13 C 2.625834 3.699481 -1.273006 0
M  V30 14 C 1.627423 2.784683 -0.982469 0
M  V30 15 C 0.822840 -0.214590 0.734338 0
M  V30 16 C 2.059296 -0.997693 0.642329 0
M  V30 17 C 2.678013 -1.004797 -0.606740 0
M  V30 18 C 3.861886 -1.724969 -0.786135 0
M  V30 19 C 4.386765 -2.412752 0.287711 0
M  V30 20 F 5.533459 -3.111213 0.116815 0
M  V30 21 C 3.755913 -2.387948 1.506556 0
M  V30 22 C 2.584810 -1.686587 1.718235 0
M  V30 23 N -0.383020 -0.742125 1.020284 0
M  V30 24 C -3.139861 -0.503836 2.614742 0
M  V30 25 C -2.977137 -1.981640 2.734335 0
M  V30 26 H -3.116756 -4.810638 1.958442 0
M  V30 27 H -1.973597 -4.208124 0.677007 0
M  V30 28 H -1.679997 -3.896294 2.466638 0
M  V30 29 H -2.312995 -2.440487 -0.280389 0
M  V30 30 H -4.053701 -2.659908 -0.289481 0
M  V30 31 H -3.034675 -0.349987 -0.735370 0
M  V30 32 H -4.550957 -0.424890 0.165288 0
M  V30 33 H -3.222170 1.108125 1.240815 0
M  V30 34 H -1.112445 2.369075 0.671852 0
M  V30 35 H 2.827726 1.811700 1.988399 0
M  V30 36 H 4.563037 3.411411 1.467751 0
M  V30 37 H 2.613645 4.270069 -2.201507 0
M  V30 38 H 0.814740 2.638838 -1.706210 0
M  V30 39 H 2.294369 -0.476156 -1.472708 0
M  V30 40 H 4.399259 -1.773972 -1.737581 0
M  V30 41 H 4.155703 -2.926480 2.370146 0
M  V30 42 H 2.048228 -1.632846 2.654003 0
M  V30 43 H -0.547742 -1.770488 1.204540 0
M  V30 44 H -2.578211 -0.002026 3.427510 0
M  V30 45 H -4.211493 -0.259028 2.812528 0
M  V30 46 H -3.673408 -2.320214 3.552938 0
M  V30 47 H -1.959167 -2.168745 3.141708 0
M  V30 END ATOM
M  V30 BEGIN BOND
M  V30 1 1 1 2
M  V30 2 1 2 3
M  V30 3 1 3 4
M  V30 4 1 4 5
M  V30 5 1 5 6
M  V30 6 2 6 7
M  V30 7 1 7 8
M  V30 8 1 8 9
M  V30 9 2 9 10
M  V30 10 1 10 11
M  V30 11 2 11 12
M  V30 12 1 12 13
M  V30 13 2 13 14
M  V30 14 2 8 15
M  V30 15 1 15 16
M  V30 16 2 16 17
M  V30 17 1 17 18
M  V30 18 2 18 19
M  V30 19 1 19 20
M  V30 20 1 19 21
M  V30 21 2 21 22
M  V30 22 1 15 23
M  V30 23 1 5 24
M  V30 24 1 24 25
M  V30 25 1 25 2
M  V30 26 1 23 6
M  V30 27 1 14 9
M  V30 28 1 22 16
M  V30 29 1 1 26
M  V30 30 1 1 27
M  V30 31 1 1 28
M  V30 32 1 3 29
M  V30 33 1 3 30
M  V30 34 1 4 31
M  V30 35 1 4 32
M  V30 36 1 5 33
M  V30 37 1 7 34
M  V30 38 1 10 35
M  V30 39 1 11 36
M  V30 40 1 13 37
M  V30 41 1 14 38
M  V30 42 1 17 39
M  V30 43 1 18 40
M  V30 44 1 21 41
M  V30 45 1 22 42
M  V30 46 1 23 43
M  V30 47 1 24 44
M  V30 48 1 24 45
M  V30 49 1 25 46
M  V30 50 1 25 47
M  V30 END BOND
M  V30 END CTAB
M  END
>  <Dataset>  (348) 
ChEMBL_Kinases

>  <Ligand_Instance>  (348) 
nan

>  <PDB_ID>  (348) 
nan

>  <Standardized_SMILES>  (348) 
CN1CCC(c2cc(-c3ccncc3)c(-c3ccc(F)cc3)[nH]2)CC1

>  <Name>  (348) 
nan

>  <Pocket>  (348) 
nan

>  <ATP_Site>  (348) 
nan

>  <Peripheral>  (348) 
nan

>  <Num_H_Atoms_ProtBoundConf>  (348) 
nan

>  <Num_Resolved_Atoms>  (348) 
nan

>  <Num_Not_Resolved_Atoms>  (348) 
nan

$$$$
CHEMBL187287
     RDKit          3D

  0  0  0  0  0  0  0  0  0  0999 V3000
M  V30 BEGIN CTAB
M  V30 COUNTS 47 50 0 0 0
M  V30 BEGIN ATOM
M  V30 1 C 2.716075 -5.869055 3.799290 0
M  V30 2 C 2.199145 -4.801997 4.727380 0
M  V30 3 C 3.364216 -3.907616 5.154961 0
M  V30 4 O 3.986637 -3.275381 4.059715 0
M  V30 5 C 3.258951 -2.423932 3.246315 0
M  V30 6 C 3.912922 -1.815930 2.167654 0
M  V30 7 C 3.214770 -0.965274 1.343717 0
M  V30 8 C 1.888659 -0.699363 1.557225 0
M  V30 9 C 1.083930 0.116962 0.812073 0
M  V30 10 C 1.178767 0.949555 -0.356095 0
M  V30 11 C 2.265586 1.402266 -1.043943 0
M  V30 12 C 2.281222 2.219145 -2.143529 0
M  V30 13 N 1.073465 2.606502 -2.576008 0
M  V30 14 C -0.064515 2.209949 -1.958912 0
M  V30 15 N -1.284482 2.683014 -2.499408 0
M  V30 16 C -2.624029 2.424294 -2.120383 0
M  V30 17 C -3.702245 3.058638 -2.742399 0
M  V30 18 C -5.008837 2.822007 -2.401053 0
M  V30 19 C -5.306791 1.927864 -1.407942 0
M  V30 20 C -4.279438 1.272920 -0.760618 0
M  V30 21 C -4.747521 0.337073 0.282484 0
M  V30 22 F -5.737653 0.974494 1.030533 0
M  V30 23 F -5.266347 -0.802844 -0.340127 0
M  V30 24 F -3.747322 -0.089354 1.127634 0
M  V30 25 C -2.993334 1.539701 -1.133451 0
M  V30 26 N 0.040829 1.413428 -0.895356 0
M  V30 27 C -0.120151 -0.025270 1.499380 0
M  V30 28 N 0.047615 -0.860252 2.535199 0
M  V30 29 N 1.290401 -1.295572 2.595731 0
M  V30 30 N 1.959167 -2.111484 3.386317 0
M  V30 31 H 2.826679 -6.841358 4.355175 0
M  V30 32 H 3.714867 -5.554105 3.400733 0
M  V30 33 H 2.000117 -5.989516 2.968983 0
M  V30 34 H 1.736899 -5.272903 5.636161 0
M  V30 35 H 1.403290 -4.245104 4.231381 0
M  V30 36 H 4.096825 -4.591295 5.649798 0
M  V30 37 H 3.003673 -3.173908 5.911144 0
M  V30 38 H 4.960234 -2.035926 2.013365 0
M  V30 39 H 3.781962 -0.553274 0.542760 0
M  V30 40 H 3.244574 1.121157 -0.711296 0
M  V30 41 H 3.197335 2.525024 -2.622093 0
M  V30 42 H -1.222229 3.348353 -3.332052 0
M  V30 43 H -3.511675 3.783704 -3.544636 0
M  V30 44 H -5.782533 3.356209 -2.932980 0
M  V30 45 H -6.360734 1.801629 -1.201462 0
M  V30 46 H -2.257144 0.999193 -0.594470 0
M  V30 47 H -1.121743 0.363359 1.404700 0
M  V30 END ATOM
M  V30 BEGIN BOND
M  V30 1 1 1 2
M  V30 2 1 2 3
M  V30 3 1 3 4
M  V30 4 1 4 5
M  V30 5 1 5 6
M  V30 6 2 6 7
M  V30 7 1 7 8
M  V30 8 2 8 9
M  V30 9 1 9 10
M  V30 10 2 10 11
M  V30 11 1 11 12
M  V30 12 2 12 13
M  V30 13 1 13 14
M  V30 14 1 14 15
M  V30 15 1 15 16
M  V30 16 2 16 17
M  V30 17 1 17 18
M  V30 18 2 18 19
M  V30 19 1 19 20
M  V30 20 1 20 21
M  V30 21 1 21 22
M  V30 22 1 21 23
M  V30 23 1 21 24
M  V30 24 2 20 25
M  V30 25 2 14 26
M  V30 26 1 9 27
M  V30 27 2 27 28
M  V30 28 1 28 29
M  V30 29 1 29 30
M  V30 30 2 30 5
M  V30 31 1 29 8
M  V30 32 1 26 10
M  V30 33 1 25 16
M  V30 34 1 1 31
M  V30 35 1 1 32
M  V30 36 1 1 33
M  V30 37 1 2 34
M  V30 38 1 2 35
M  V30 39 1 3 36
M  V30 40 1 3 37
M  V30 41 1 6 38
M  V30 42 1 7 39
M  V30 43 1 11 40
M  V30 44 1 12 41
M  V30 45 1 15 42
M  V30 46 1 17 43
M  V30 47 1 18 44
M  V30 48 1 19 45
M  V30 49 1 25 46
M  V30 50 1 27 47
M  V30 END BOND
M  V30 END CTAB
M  END
>  <Dataset>  (349) 
ChEMBL_Kinases

>  <Ligand_Instance>  (349) 
nan

>  <PDB_ID>  (349) 
nan

>  <Standardized_SMILES>  (349) 
CCCOc1ccc2c(-c3ccnc(Nc4cccc(C(F)(F)F)c4)n3)cnn2n1

>  <Name>  (349) 
nan

>  <Pocket>  (349) 
nan

>  <ATP_Site>  (349) 
nan

>  <Peripheral>  (349) 
nan

>  <Num_H_Atoms_ProtBoundConf>  (349) 
nan

>  <Num_Resolved_Atoms>  (349) 
nan

>  <Num_Not_Resolved_Atoms>  (349) 
nan

$$$$
CHEMBL187006
     RDKit          3D

  0  0  0  0  0  0  0  0  0  0999 V3000
M  V30 BEGIN CTAB
M  V30 COUNTS 40 43 0 0 0
M  V30 BEGIN ATOM
M  V30 1 C -0.812602 -5.033445 3.107831 0
M  V30 2 C -0.349503 -4.252143 1.935730 0
M  V30 3 C -0.147318 -2.904724 2.140689 0
M  V30 4 C 0.283895 -2.154064 1.064532 0
M  V30 5 C 0.508164 -2.715948 -0.176235 0
M  V30 6 C 0.935075 -2.160189 -1.361425 0
M  V30 7 C 1.296368 -0.790950 -1.695696 0
M  V30 8 C 1.846180 -0.551775 -2.921987 0
M  V30 9 C 2.233704 0.716366 -3.294767 0
M  V30 10 N 2.060645 1.720189 -2.427112 0
M  V30 11 C 1.518654 1.518622 -1.204912 0
M  V30 12 N 1.381987 2.619257 -0.323018 0
M  V30 13 C 0.727358 2.725249 0.931101 0
M  V30 14 C 0.940366 3.710623 1.867034 0
M  V30 15 C 0.239096 3.744819 3.050212 0
M  V30 16 C -0.711206 2.778104 3.336441 0
M  V30 17 C -0.934803 1.793202 2.417384 0
M  V30 18 C -1.977200 0.766785 2.781036 0
M  V30 19 F -1.572918 0.022422 3.850568 0
M  V30 20 F -3.146579 1.465671 2.983598 0
M  V30 21 F -2.154263 -0.049163 1.657347 0
M  V30 22 C -0.230821 1.749862 1.216391 0
M  V30 23 N 1.157492 0.263580 -0.889852 0
M  V30 24 C 0.956326 -3.254974 -2.206611 0
M  V30 25 N 0.565882 -4.359124 -1.544626 0
M  V30 26 N 0.283956 -4.034468 -0.276854 0
M  V30 27 N -0.128133 -4.793695 0.722705 0
M  V30 28 H 0.088965 -5.403158 3.628312 0
M  V30 29 H -1.399208 -4.391442 3.814563 0
M  V30 30 H -1.495447 -5.813632 2.747573 0
M  V30 31 H -0.301648 -2.411487 3.072194 0
M  V30 32 H 0.452091 -1.107688 1.214364 0
M  V30 33 H 2.013251 -1.324608 -3.674322 0
M  V30 34 H 2.679718 0.996748 -4.249865 0
M  V30 35 H 1.818864 3.530922 -0.595413 0
M  V30 36 H 1.676434 4.459202 1.645496 0
M  V30 37 H 0.436839 4.534108 3.756907 0
M  V30 38 H -1.257721 2.814896 4.269878 0
M  V30 39 H -0.533634 0.923083 0.598540 0
M  V30 40 H 1.255173 -3.195478 -3.261902 0
M  V30 END ATOM
M  V30 BEGIN BOND
M  V30 1 1 1 2
M  V30 2 1 2 3
M  V30 3 2 3 4
M  V30 4 1 4 5
M  V30 5 2 5 6
M  V30 6 1 6 7
M  V30 7 2 7 8
M  V30 8 1 8 9
M  V30 9 2 9 10
M  V30 10 1 10 11
M  V30 11 1 11 12
M  V30 12 1 12 13
M  V30 13 2 13 14
M  V30 14 1 14 15
M  V30 15 2 15 16
M  V30 16 1 16 17
M  V30 17 1 17 18
M  V30 18 1 18 19
M  V30 19 1 18 20
M  V30 20 1 18 21
M  V30 21 2 17 22
M  V30 22 2 11 23
M  V30 23 1 6 24
M  V30 24 2 24 25
M  V30 25 1 25 26
M  V30 26 1 26 27
M  V30 27 2 27 2
M  V30 28 1 26 5
M  V30 29 1 23 7
M  V30 30 1 22 13
M  V30 31 1 1 28
M  V30 32 1 1 29
M  V30 33 1 1 30
M  V30 34 1 3 31
M  V30 35 1 4 32
M  V30 36 1 8 33
M  V30 37 1 9 34
M  V30 38 1 12 35
M  V30 39 1 14 36
M  V30 40 1 15 37
M  V30 41 1 16 38
M  V30 42 1 22 39
M  V30 43 1 24 40
M  V30 END BOND
M  V30 END CTAB
M  END
>  <Dataset>  (350) 
ChEMBL_Kinases

>  <Ligand_Instance>  (350) 
nan

>  <PDB_ID>  (350) 
nan

>  <Standardized_SMILES>  (350) 
Cc1ccc2c(-c3ccnc(Nc4cccc(C(F)(F)F)c4)n3)cnn2n1

>  <Name>  (350) 
nan

>  <Pocket>  (350) 
nan

>  <ATP_Site>  (350) 
nan

>  <Peripheral>  (350) 
nan

>  <Num_H_Atoms_ProtBoundConf>  (350) 
nan

>  <Num_Resolved_Atoms>  (350) 
nan

>  <Num_Not_Resolved_Atoms>  (350) 
nan

$$$$
CHEMBL4759397
     RDKit          3D

  0  0  0  0  0  0  0  0  0  0999 V3000
M  V30 BEGIN CTAB
M  V30 COUNTS 44 46 0 0 0
M  V30 BEGIN ATOM
M  V30 1 C 0.696625 -3.304894 -0.913565 0
M  V30 2 C 1.778854 -3.662016 0.026568 0
M  V30 3 C 1.328284 -3.289628 1.436318 0
M  V30 4 N 3.055325 -3.033840 -0.199509 0
M  V30 5 C 4.245318 -3.626215 0.039690 0
M  V30 6 N 5.208931 -2.737147 -0.289424 0
M  V30 7 N 4.591447 -1.630752 -0.718734 0
M  V30 8 C 3.258133 -1.790864 -0.672070 0
M  V30 9 C 2.275484 -0.788172 -1.065741 0
M  V30 10 C 2.107018 -0.641363 -2.439253 0
M  V30 11 C 1.187432 0.295754 -2.871878 0
M  V30 12 C 0.452501 1.068725 -1.967095 0
M  V30 13 C 0.661619 0.879666 -0.617246 0
M  V30 14 N -0.060045 1.640157 0.345767 0
M  V30 15 C 0.136193 1.465213 1.748646 0
M  V30 16 O 0.979048 0.606169 2.148676 0
M  V30 17 C -0.621165 2.263386 2.761865 0
M  V30 18 C -1.156758 1.374518 3.835884 0
M  V30 19 C -2.509890 0.799296 3.574800 0
M  V30 20 C -2.950535 1.233009 2.196090 0
M  V30 21 C -2.781959 2.721656 2.047434 0
M  V30 22 O -1.502302 3.159349 2.226679 0
M  V30 23 N 1.552520 -0.028075 -0.190601 0
M  V30 24 H -0.072801 -4.118258 -0.884898 0
M  V30 25 H 0.125649 -2.388073 -0.676485 0
M  V30 26 H 1.095058 -3.336790 -1.953992 0
M  V30 27 H 1.873769 -4.781420 0.039519 0
M  V30 28 H 2.138603 -3.540877 2.176572 0
M  V30 29 H 1.066814 -2.214428 1.528364 0
M  V30 30 H 0.444861 -3.907546 1.699298 0
M  V30 31 H 4.363897 -4.631280 0.424868 0
M  V30 32 H 2.667287 -1.231173 -3.157220 0
M  V30 33 H 1.025017 0.442329 -3.933774 0
M  V30 34 H -0.247074 1.780587 -2.350854 0
M  V30 35 H -0.752814 2.346208 0.016779 0
M  V30 36 H 0.179794 2.884320 3.262599 0
M  V30 37 H -0.416820 0.530910 3.953358 0
M  V30 38 H -1.180106 1.860912 4.840509 0
M  V30 39 H -2.465021 -0.328695 3.543044 0
M  V30 40 H -3.249242 1.100431 4.363934 0
M  V30 41 H -4.034698 1.007001 2.053371 0
M  V30 42 H -2.417372 0.626236 1.468240 0
M  V30 43 H -3.386131 3.168424 2.888211 0
M  V30 44 H -3.292862 3.086430 1.132842 0
M  V30 END ATOM
M  V30 BEGIN BOND
M  V30 1 1 1 2
M  V30 2 1 2 3
M  V30 3 1 2 4
M  V30 4 1 4 5
M  V30 5 2 5 6
M  V30 6 1 6 7
M  V30 7 2 7 8
M  V30 8 1 8 9
M  V30 9 2 9 10
M  V30 10 1 10 11
M  V30 11 2 11 12
M  V30 12 1 12 13
M  V30 13 1 13 14
M  V30 14 1 14 15
M  V30 15 2 15 16
M  V30 16 1 15 17
M  V30 17 1 17 18
M  V30 18 1 18 19
M  V30 19 1 19 20
M  V30 20 1 20 21
M  V30 21 1 21 22
M  V30 22 2 13 23
M  V30 23 1 8 4
M  V30 24 1 23 9
M  V30 25 1 22 17
M  V30 26 1 1 24
M  V30 27 1 1 25
M  V30 28 1 1 26
M  V30 29 1 2 27
M  V30 30 1 3 28
M  V30 31 1 3 29
M  V30 32 1 3 30
M  V30 33 1 5 31
M  V30 34 1 10 32
M  V30 35 1 11 33
M  V30 36 1 12 34
M  V30 37 1 14 35
M  V30 38 1 17 36
M  V30 39 1 18 37
M  V30 40 1 18 38
M  V30 41 1 19 39
M  V30 42 1 19 40
M  V30 43 1 20 41
M  V30 44 1 20 42
M  V30 45 1 21 43
M  V30 46 1 21 44
M  V30 END BOND
M  V30 END CTAB
M  END
>  <Dataset>  (351) 
ChEMBL_Kinases

>  <Ligand_Instance>  (351) 
nan

>  <PDB_ID>  (351) 
nan

>  <Standardized_SMILES>  (351) 
CC(C)n1cnnc1-c1cccc(NC(=O)C2CCCCO2)n1

>  <Name>  (351) 
nan

>  <Pocket>  (351) 
nan

>  <ATP_Site>  (351) 
nan

>  <Peripheral>  (351) 
nan

>  <Num_H_Atoms_ProtBoundConf>  (351) 
nan

>  <Num_Resolved_Atoms>  (351) 
nan

>  <Num_Not_Resolved_Atoms>  (351) 
nan

$$$$
CHEMBL4759406
     RDKit          3D

  0  0  0  0  0  0  0  0  0  0999 V3000
M  V30 BEGIN CTAB
M  V30 COUNTS 68 72 0 0 0
M  V30 BEGIN ATOM
M  V30 1 C 4.316159 2.744989 4.922661 0
M  V30 2 C 3.802973 1.392650 5.317045 0
M  V30 3 C 4.839730 0.521565 5.958887 0
M  V30 4 C 2.634990 1.503212 6.297839 0
M  V30 5 C 3.326546 0.716666 4.065739 0
M  V30 6 N 4.082772 -0.046620 3.264379 0
M  V30 7 O 3.346877 -0.448376 2.310122 0
M  V30 8 C 2.111416 -0.027017 2.368462 0
M  V30 9 C 0.916350 -0.194414 1.554387 0
M  V30 10 C -0.264582 0.409256 1.924067 0
M  V30 11 N -1.336444 0.222348 1.145730 0
M  V30 12 C -1.378208 -0.505445 0.023047 0
M  V30 13 N -2.493167 -0.722766 -0.822131 0
M  V30 14 C -3.798312 -0.204619 -0.654637 0
M  V30 15 C -4.209333 0.625483 0.361819 0
M  V30 16 C -5.483962 1.125863 0.519813 0
M  V30 17 C -6.422296 0.778804 -0.396847 0
M  V30 18 C -6.094656 -0.049692 -1.447700 0
M  V30 19 C -4.783062 -0.530367 -1.560906 0
M  V30 20 C -7.220427 -0.333435 -2.352125 0
M  V30 21 C -6.939677 0.299598 -3.714902 0
M  V30 22 C -7.510865 -1.805021 -2.485914 0
M  V30 23 O -8.288667 0.385315 -1.794482 0
M  V30 24 C -7.829043 1.027448 -0.662795 0
M  V30 25 O -8.561900 1.768350 0.081714 0
M  V30 26 N -0.205181 -1.068580 -0.288791 0
M  V30 27 C 0.932781 -0.956773 0.405993 0
M  V30 28 N 2.099945 -1.627285 -0.084899 0
M  V30 29 C 2.034244 -2.401930 -1.282075 0 CFG=2
M  V30 30 C 1.120051 -3.581267 -1.249413 0
M  V30 31 O 1.216874 -4.186382 -2.525227 0
M  V30 32 C 3.400715 -2.742676 -1.746337 0
M  V30 33 C 4.372589 -3.189269 -0.853836 0
M  V30 34 C 5.625505 -3.490534 -1.345510 0
M  V30 35 C 5.962414 -3.370939 -2.677439 0
M  V30 36 C 5.024790 -2.931486 -3.589609 0
M  V30 37 C 3.775458 -2.633240 -3.087532 0
M  V30 38 N 2.129286 0.708865 3.491703 0
M  V30 39 H 4.148110 3.450339 5.757436 0
M  V30 40 H 5.409745 2.623046 4.712751 0
M  V30 41 H 3.827224 3.068528 3.984529 0
M  V30 42 H 4.954135 0.709581 7.042206 0
M  V30 43 H 4.452888 -0.537004 5.899539 0
M  V30 44 H 5.817171 0.509129 5.467723 0
M  V30 45 H 3.054564 1.417838 7.312332 0
M  V30 46 H 1.982520 0.626495 6.088110 0
M  V30 47 H 2.092230 2.460131 6.162870 0
M  V30 48 H -0.342251 1.025454 2.822675 0
M  V30 49 H -2.328698 -1.333018 -1.659905 0
M  V30 50 H -3.519317 0.938913 1.119128 0
M  V30 51 H -5.771777 1.776886 1.332344 0
M  V30 52 H -4.520114 -1.182427 -2.385125 0
M  V30 53 H -7.706658 0.007199 -4.445350 0
M  V30 54 H -6.995755 1.402166 -3.600437 0
M  V30 55 H -5.900070 0.079808 -4.045058 0
M  V30 56 H -8.406022 -1.900637 -3.144759 0
M  V30 57 H -7.727241 -2.242993 -1.511329 0
M  V30 58 H -6.667739 -2.284728 -3.007656 0
M  V30 59 H 3.025401 -1.588905 0.387311 0
M  V30 60 H 1.624656 -1.714024 -2.080967 0
M  V30 61 H 1.482957 -4.384509 -0.558542 0
M  V30 62 H 0.092923 -3.285142 -1.061849 0
M  V30 63 H 1.089968 -5.147652 -2.508730 0
M  V30 64 H 4.165107 -3.301392 0.199214 0
M  V30 65 H 6.411403 -3.839892 -0.692960 0
M  V30 66 H 6.964651 -3.619978 -3.024475 0
M  V30 67 H 5.214138 -2.812803 -4.645606 0
M  V30 68 H 3.005945 -2.283553 -3.770951 0
M  V30 END ATOM
M  V30 BEGIN BOND
M  V30 1 1 1 2
M  V30 2 1 2 3
M  V30 3 1 2 4
M  V30 4 1 2 5
M  V30 5 2 5 6
M  V30 6 1 6 7
M  V30 7 1 7 8
M  V30 8 1 8 9
M  V30 9 2 9 10
M  V30 10 1 10 11
M  V30 11 2 11 12
M  V30 12 1 12 13
M  V30 13 1 13 14
M  V30 14 2 14 15
M  V30 15 1 15 16
M  V30 16 2 16 17
M  V30 17 1 17 18
M  V30 18 2 18 19
M  V30 19 1 18 20
M  V30 20 1 20 21
M  V30 21 1 20 22
M  V30 22 1 20 23
M  V30 23 1 23 24
M  V30 24 2 24 25
M  V30 25 1 12 26
M  V30 26 2 26 27
M  V30 27 1 27 28
M  V30 28 1 28 29
M  V30 29 1 29 30
M  V30 30 1 30 31
M  V30 31 1 29 32
M  V30 32 2 32 33
M  V30 33 1 33 34
M  V30 34 2 34 35
M  V30 35 1 35 36
M  V30 36 2 36 37
M  V30 37 2 8 38
M  V30 38 1 38 5
M  V30 39 1 27 9
M  V30 40 1 37 32
M  V30 41 1 19 14
M  V30 42 1 24 17
M  V30 43 1 1 39
M  V30 44 1 1 40
M  V30 45 1 1 41
M  V30 46 1 3 42
M  V30 47 1 3 43
M  V30 48 1 3 44
M  V30 49 1 4 45
M  V30 50 1 4 46
M  V30 51 1 4 47
M  V30 52 1 10 48
M  V30 53 1 13 49
M  V30 54 1 15 50
M  V30 55 1 16 51
M  V30 56 1 19 52
M  V30 57 1 21 53
M  V30 58 1 21 54
M  V30 59 1 21 55
M  V30 60 1 22 56
M  V30 61 1 22 57
M  V30 62 1 22 58
M  V30 63 1 28 59
M  V30 64 1 29 60 CFG=3
M  V30 65 1 30 61
M  V30 66 1 30 62
M  V30 67 1 31 63
M  V30 68 1 33 64
M  V30 69 1 34 65
M  V30 70 1 35 66
M  V30 71 1 36 67
M  V30 72 1 37 68
M  V30 END BOND
M  V30 END CTAB
M  END
>  <Dataset>  (352) 
ChEMBL_Kinases

>  <Ligand_Instance>  (352) 
nan

>  <PDB_ID>  (352) 
nan

>  <Standardized_SMILES>  (352) 
CC(C)(C)c1noc(-c2cnc(Nc3ccc4c(c3)C(C)(C)OC4=O)nc2N[C@H](CO)c2ccccc2)n1

>  <Name>  (352) 
nan

>  <Pocket>  (352) 
nan

>  <ATP_Site>  (352) 
nan

>  <Peripheral>  (352) 
nan

>  <Num_H_Atoms_ProtBoundConf>  (352) 
nan

>  <Num_Resolved_Atoms>  (352) 
nan

>  <Num_Not_Resolved_Atoms>  (352) 
nan

$$$$
CHEMBL186708
     RDKit          3D

  0  0  0  0  0  0  0  0  0  0999 V3000
M  V30 BEGIN CTAB
M  V30 COUNTS 43 47 0 0 0
M  V30 BEGIN ATOM
M  V30 1 C -0.601180 -2.895299 2.375963 0
M  V30 2 C -0.370364 -4.258383 2.581293 0
M  V30 3 N -0.156368 -5.067494 1.527343 0
M  V30 4 N -0.154628 -4.613682 0.267265 0
M  V30 5 N 0.049485 -5.266073 -0.868850 0
M  V30 6 C -0.037663 -4.369724 -1.876624 0
M  V30 7 C -0.301699 -3.120672 -1.376157 0
M  V30 8 C -0.457639 -1.818553 -2.067233 0
M  V30 9 C -0.168110 -1.702331 -3.407597 0
M  V30 10 C -0.294355 -0.458751 -4.008100 0
M  V30 11 N -0.690584 0.642710 -3.332289 0
M  V30 12 C -0.971858 0.518822 -2.022196 0
M  V30 13 N -1.407002 1.342802 -0.911811 0
M  V30 14 C -0.263060 1.684041 -0.109133 0
M  V30 15 C 0.994125 2.103233 -0.448219 0
M  V30 16 C 1.908649 2.233179 0.554831 0
M  V30 17 C 1.670468 1.970752 1.906599 0
M  V30 18 C 0.364330 1.543846 2.194916 0
M  V30 19 C -0.615992 1.396939 1.200873 0
M  V30 20 O 0.003412 1.239711 3.530723 0
M  V30 21 C 0.804335 0.485519 4.445503 0
M  V30 22 C 1.930658 1.408956 4.905681 0
M  V30 23 C 3.066978 1.439941 3.911798 0
M  V30 24 O 2.747329 2.170642 2.753225 0
M  V30 25 N -0.848929 -0.690089 -1.434575 0
M  V30 26 C -0.367980 -3.322817 -0.017826 0
M  V30 27 C -0.585090 -2.506070 1.051355 0
M  V30 28 H -0.779262 -2.197820 3.176078 0
M  V30 29 H -0.368002 -4.639751 3.601366 0
M  V30 30 H 0.079667 -4.591222 -2.929171 0
M  V30 31 H 0.157631 -2.546755 -4.006490 0
M  V30 32 H -0.094585 -0.244201 -5.047212 0
M  V30 33 H -2.375997 1.648552 -0.708713 0
M  V30 34 H 1.103383 2.282754 -1.487341 0
M  V30 35 H 2.901027 2.565577 0.265264 0
M  V30 36 H -1.566364 1.064013 1.605936 0
M  V30 37 H 0.178845 0.275566 5.321741 0
M  V30 38 H 1.225656 -0.427515 4.017710 0
M  V30 39 H 2.287000 1.162770 5.924517 0
M  V30 40 H 1.471724 2.416990 4.959839 0
M  V30 41 H 3.270769 0.384607 3.625702 0
M  V30 42 H 3.999566 1.843240 4.373508 0
M  V30 43 H -0.763356 -1.467341 0.869300 0
M  V30 END ATOM
M  V30 BEGIN BOND
M  V30 1 1 1 2
M  V30 2 2 2 3
M  V30 3 1 3 4
M  V30 4 1 4 5
M  V30 5 2 5 6
M  V30 6 1 6 7
M  V30 7 1 7 8
M  V30 8 2 8 9
M  V30 9 1 9 10
M  V30 10 2 10 11
M  V30 11 1 11 12
M  V30 12 1 12 13
M  V30 13 1 13 14
M  V30 14 2 14 15
M  V30 15 1 15 16
M  V30 16 2 16 17
M  V30 17 1 17 18
M  V30 18 2 18 19
M  V30 19 1 18 20
M  V30 20 1 20 21
M  V30 21 1 21 22
M  V30 22 1 22 23
M  V30 23 1 23 24
M  V30 24 2 12 25
M  V30 25 2 7 26
M  V30 26 1 26 27
M  V30 27 2 27 1
M  V30 28 1 26 4
M  V30 29 1 25 8
M  V30 30 1 19 14
M  V30 31 1 24 17
M  V30 32 1 1 28
M  V30 33 1 2 29
M  V30 34 1 6 30
M  V30 35 1 9 31
M  V30 36 1 10 32
M  V30 37 1 13 33
M  V30 38 1 15 34
M  V30 39 1 16 35
M  V30 40 1 19 36
M  V30 41 1 21 37
M  V30 42 1 21 38
M  V30 43 1 22 39
M  V30 44 1 22 40
M  V30 45 1 23 41
M  V30 46 1 23 42
M  V30 47 1 27 43
M  V30 END BOND
M  V30 END CTAB
M  END
>  <Dataset>  (353) 
ChEMBL_Kinases

>  <Ligand_Instance>  (353) 
nan

>  <PDB_ID>  (353) 
nan

>  <Standardized_SMILES>  (353) 
c1cnn2ncc(-c3ccnc(Nc4ccc5c(c4)OCCCO5)n3)c2c1

>  <Name>  (353) 
nan

>  <Pocket>  (353) 
nan

>  <ATP_Site>  (353) 
nan

>  <Peripheral>  (353) 
nan

>  <Num_H_Atoms_ProtBoundConf>  (353) 
nan

>  <Num_Resolved_Atoms>  (353) 
nan

>  <Num_Not_Resolved_Atoms>  (353) 
nan

$$$$
CHEMBL4759685
     RDKit          3D

  0  0  0  0  0  0  0  0  0  0999 V3000
M  V30 BEGIN CTAB
M  V30 COUNTS 43 45 0 0 0
M  V30 BEGIN ATOM
M  V30 1 C -0.749821 -2.493531 4.837811 0
M  V30 2 C -0.432838 -2.065569 3.429521 0
M  V30 3 C 0.828790 -1.869251 2.921768 0
M  V30 4 N 0.712879 -1.487783 1.617010 0
M  V30 5 C 1.735383 -1.165971 0.655138 0 CFG=1
M  V30 6 C 1.782857 -2.210502 -0.405660 0
M  V30 7 C 1.602079 0.235440 0.121075 0 CFG=1
M  V30 8 C 1.707564 1.231733 1.256581 0
M  V30 9 C 3.056408 1.910940 1.271747 0
M  V30 10 N 3.239085 2.645750 0.057565 0
M  V30 11 C 2.614088 2.076000 -1.101922 0
M  V30 12 C 2.568286 0.551344 -0.965521 0 CFG=1
M  V30 13 F 3.854644 0.158234 -0.721951 0
M  V30 14 C -0.600985 -1.448068 1.319877 0
M  V30 15 N -1.271180 -1.139032 0.191412 0
M  V30 16 C -2.627223 -1.175133 0.145470 0
M  V30 17 C -3.316821 -0.832925 -1.097474 0
M  V30 18 N -2.549803 -0.460863 -2.260790 0
M  V30 19 O -4.567344 -0.838113 -1.234992 0
M  V30 20 C -3.422210 -1.519863 1.213077 0
M  V30 21 C -2.741187 -1.843111 2.390960 0
M  V30 22 Cl -3.657871 -2.298656 3.818389 0
M  V30 23 C -1.360396 -1.804722 2.432237 0
M  V30 24 H 0.175075 -2.945487 5.280026 0
M  V30 25 H -1.174007 -1.683059 5.433777 0
M  V30 26 H -1.467215 -3.324448 4.755582 0
M  V30 27 H 1.777094 -1.986446 3.435689 0
M  V30 28 H 2.712667 -1.228192 1.204277 0
M  V30 29 H 1.441824 -3.183286 0.054279 0
M  V30 30 H 2.803907 -2.444186 -0.785531 0
M  V30 31 H 1.055488 -2.037244 -1.227529 0
M  V30 32 H 0.579366 0.379377 -0.312526 0
M  V30 33 H 0.959496 2.069319 1.143239 0
M  V30 34 H 1.500104 0.742295 2.210291 0
M  V30 35 H 3.026560 2.618897 2.121113 0
M  V30 36 H 3.817666 1.133303 1.459890 0
M  V30 37 H 4.258157 2.787306 -0.115873 0
M  V30 38 H 3.197554 2.338411 -2.002786 0
M  V30 39 H 1.560753 2.412243 -1.230648 0
M  V30 40 H 2.234594 0.171961 -1.958396 0
M  V30 41 H -2.176862 -1.232796 -2.865927 0
M  V30 42 H -2.212350 0.414502 -2.743104 0
M  V30 43 H -4.499284 -1.538196 1.141620 0
M  V30 END ATOM
M  V30 BEGIN BOND
M  V30 1 1 1 2
M  V30 2 2 2 3
M  V30 3 1 3 4
M  V30 4 1 4 5
M  V30 5 1 5 6
M  V30 6 1 5 7
M  V30 7 1 7 8
M  V30 8 1 8 9
M  V30 9 1 9 10
M  V30 10 1 10 11
M  V30 11 1 11 12
M  V30 12 1 12 13
M  V30 13 1 4 14
M  V30 14 2 14 15
M  V30 15 1 15 16
M  V30 16 1 16 17
M  V30 17 1 17 18
M  V30 18 2 17 19
M  V30 19 2 16 20
M  V30 20 1 20 21
M  V30 21 1 21 22
M  V30 22 2 21 23
M  V30 23 1 23 2
M  V30 24 1 12 7
M  V30 25 1 23 14
M  V30 26 1 1 24
M  V30 27 1 1 25
M  V30 28 1 1 26
M  V30 29 1 3 27
M  V30 30 1 5 28 CFG=1
M  V30 31 1 6 29
M  V30 32 1 6 30
M  V30 33 1 6 31
M  V30 34 1 7 32 CFG=3
M  V30 35 1 8 33
M  V30 36 1 8 34
M  V30 37 1 9 35
M  V30 38 1 9 36
M  V30 39 1 10 37
M  V30 40 1 11 38
M  V30 41 1 11 39
M  V30 42 1 12 40 CFG=3
M  V30 43 1 18 41
M  V30 44 1 18 42
M  V30 45 1 20 43
M  V30 END BOND
M  V30 END CTAB
M  END
>  <Dataset>  (354) 
ChEMBL_Kinases

>  <Ligand_Instance>  (354) 
nan

>  <PDB_ID>  (354) 
nan

>  <Standardized_SMILES>  (354) 
Cc1cn([C@@H](C)[C@H]2CCNC[C@H]2F)c2nc(C(N)=O)cc(Cl)c12

>  <Name>  (354) 
nan

>  <Pocket>  (354) 
nan

>  <ATP_Site>  (354) 
nan

>  <Peripheral>  (354) 
nan

>  <Num_H_Atoms_ProtBoundConf>  (354) 
nan

>  <Num_Resolved_Atoms>  (354) 
nan

>  <Num_Not_Resolved_Atoms>  (354) 
nan

$$$$
CHEMBL4759713
     RDKit          3D

  0  0  0  0  0  0  0  0  0  0999 V3000
M  V30 BEGIN CTAB
M  V30 COUNTS 56 59 0 0 0
M  V30 BEGIN ATOM
M  V30 1 C 5.109099 -2.394158 6.648092 0
M  V30 2 C 4.376167 -1.340104 5.830027 0
M  V30 3 N 4.688597 -1.527542 4.438019 0
M  V30 4 C 4.117356 -0.661309 3.471856 0
M  V30 5 O 3.374742 0.191211 4.044904 0
M  V30 6 C 4.303981 -0.682252 2.032536 0
M  V30 7 C 3.566217 0.258387 1.313428 0
M  V30 8 C 3.653593 0.329881 -0.060090 0
M  V30 9 C 2.860243 1.322707 -0.855314 0
M  V30 10 N 1.595773 0.755347 -1.290909 0
M  V30 11 C 0.412680 0.545458 -0.547098 0
M  V30 12 O 0.468347 0.907912 0.670651 0
M  V30 13 C -0.811102 -0.038837 -1.080939 0
M  V30 14 C -0.985393 -0.464035 -2.372662 0
M  V30 15 C -2.188721 -1.016599 -2.802920 0
M  V30 16 C -3.220397 -1.133193 -1.899589 0
M  V30 17 C -3.107048 -0.723480 -0.588121 0
M  V30 18 C -1.888984 -0.187050 -0.232755 0
M  V30 19 C -4.199612 -0.822136 0.406431 0
M  V30 20 C -4.481895 0.576997 0.916302 0
M  V30 21 C -4.903016 1.505638 -0.194713 0
M  V30 22 O -5.342573 -1.436928 -0.110410 0
M  V30 23 C -5.499969 -1.859804 -1.420878 0
M  V30 24 C -6.701406 -2.426506 -1.833555 0
M  V30 25 N -6.855724 -2.837682 -3.105979 0
M  V30 26 C -5.866860 -2.720541 -4.025486 0
M  V30 27 C -4.673892 -2.159086 -3.620721 0
M  V30 28 C -4.476909 -1.726712 -2.329406 0
M  V30 29 C 4.485154 -0.537345 -0.779786 0
M  V30 30 C 5.218457 -1.469826 -0.080504 0
M  V30 31 C 5.091138 -1.493639 1.274113 0
M  V30 32 F 5.819331 -2.414972 1.936900 0
M  V30 33 H 5.051075 -2.071276 7.714173 0
M  V30 34 H 4.544999 -3.342220 6.584337 0
M  V30 35 H 6.168581 -2.457815 6.379367 0
M  V30 36 H 4.736459 -0.344035 6.207981 0
M  V30 37 H 3.299563 -1.385386 6.022828 0
M  V30 38 H 5.315712 -2.272003 4.104164 0
M  V30 39 H 2.925388 0.939857 1.825424 0
M  V30 40 H 3.461198 1.553262 -1.757492 0
M  V30 41 H 2.681306 2.247004 -0.244618 0
M  V30 42 H 1.506192 0.440844 -2.303712 0
M  V30 43 H -0.166882 -0.364768 -3.067893 0
M  V30 44 H -2.216023 -1.317079 -3.836841 0
M  V30 45 H -1.779891 0.137218 0.792779 0
M  V30 46 H -3.861090 -1.404928 1.289668 0
M  V30 47 H -5.228197 0.590553 1.740818 0
M  V30 48 H -3.540705 0.967310 1.345314 0
M  V30 49 H -5.652150 2.216506 0.222566 0
M  V30 50 H -4.095995 2.101364 -0.628603 0
M  V30 51 H -5.426065 0.974417 -1.015618 0
M  V30 52 H -7.504717 -2.528532 -1.109861 0
M  V30 53 H -6.042925 -3.070392 -5.048276 0
M  V30 54 H -3.923857 -2.089745 -4.390787 0
M  V30 55 H 4.560278 -0.486795 -1.858840 0
M  V30 56 H 5.873874 -2.159029 -0.595459 0
M  V30 END ATOM
M  V30 BEGIN BOND
M  V30 1 1 1 2
M  V30 2 1 2 3
M  V30 3 1 3 4
M  V30 4 2 4 5
M  V30 5 1 4 6
M  V30 6 2 6 7
M  V30 7 1 7 8
M  V30 8 1 8 9
M  V30 9 1 9 10
M  V30 10 1 10 11
M  V30 11 2 11 12
M  V30 12 1 11 13
M  V30 13 2 13 14
M  V30 14 1 14 15
M  V30 15 2 15 16
M  V30 16 1 16 17
M  V30 17 2 17 18
M  V30 18 1 17 19
M  V30 19 1 19 20
M  V30 20 1 20 21
M  V30 21 1 19 22
M  V30 22 1 22 23
M  V30 23 2 23 24
M  V30 24 1 24 25
M  V30 25 2 25 26
M  V30 26 1 26 27
M  V30 27 2 27 28
M  V30 28 2 8 29
M  V30 29 1 29 30
M  V30 30 2 30 31
M  V30 31 1 31 32
M  V30 32 1 31 6
M  V30 33 1 18 13
M  V30 34 1 28 23
M  V30 35 1 28 16
M  V30 36 1 1 33
M  V30 37 1 1 34
M  V30 38 1 1 35
M  V30 39 1 2 36
M  V30 40 1 2 37
M  V30 41 1 3 38
M  V30 42 1 7 39
M  V30 43 1 9 40
M  V30 44 1 9 41
M  V30 45 1 10 42
M  V30 46 1 14 43
M  V30 47 1 15 44
M  V30 48 1 18 45
M  V30 49 1 19 46
M  V30 50 1 20 47
M  V30 51 1 20 48
M  V30 52 1 21 49
M  V30 53 1 21 50
M  V30 54 1 21 51
M  V30 55 1 24 52
M  V30 56 1 26 53
M  V30 57 1 27 54
M  V30 58 1 29 55
M  V30 59 1 30 56
M  V30 END BOND
M  V30 END CTAB
M  END
>  <Dataset>  (355) 
ChEMBL_Kinases

>  <Ligand_Instance>  (355) 
nan

>  <PDB_ID>  (355) 
nan

>  <Standardized_SMILES>  (355) 
CCNC(=O)c1cc(CNC(=O)c2ccc3c(c2)C(CC)Oc2cnccc2-3)ccc1F

>  <Name>  (355) 
nan

>  <Pocket>  (355) 
nan

>  <ATP_Site>  (355) 
nan

>  <Peripheral>  (355) 
nan

>  <Num_H_Atoms_ProtBoundConf>  (355) 
nan

>  <Num_Resolved_Atoms>  (355) 
nan

>  <Num_Not_Resolved_Atoms>  (355) 
nan

$$$$
CHEMBL186526
     RDKit          3D

  0  0  0  0  0  0  0  0  0  0999 V3000
M  V30 BEGIN CTAB
M  V30 COUNTS 52 54 0 0 0
M  V30 BEGIN ATOM
M  V30 1 C -4.712393 -1.417058 -0.447064 0
M  V30 2 C -3.429198 -0.776042 -0.109344 0
M  V30 3 C -3.384606 0.600849 -0.277574 0
M  V30 4 C -2.221900 1.315165 0.010707 0
M  V30 5 C -1.098426 0.623513 0.472848 0
M  V30 6 N 0.146950 1.228210 0.802942 0
M  V30 7 C 1.229167 1.434732 -0.094311 0
M  V30 8 O 1.145403 1.079587 -1.283955 0
M  V30 9 C 2.474515 2.065430 0.332318 0
M  V30 10 C 3.472869 2.224237 -0.612926 0
M  V30 11 C 4.685515 2.823059 -0.254347 0
M  V30 12 C 4.894479 3.257756 1.037933 0
M  V30 13 C 3.907977 3.105932 1.990877 0
M  V30 14 N 4.117535 3.552397 3.325934 0
M  V30 15 C 3.032152 3.365324 4.300133 0
M  V30 16 C 5.350458 4.166681 3.710671 0
M  V30 17 C 2.721712 2.512505 1.611768 0
M  V30 18 C -1.152095 -0.759967 0.638962 0
M  V30 19 C -2.306691 -1.436450 0.348328 0
M  V30 20 N -2.508065 -2.847982 0.469488 0
M  V30 21 C -2.204089 -3.633014 -0.670043 0
M  V30 22 O -1.787397 -2.918421 -1.644591 0
M  V30 23 C -2.346769 -5.076087 -0.729534 0
M  V30 24 C -2.797679 -5.842637 0.326982 0
M  V30 25 C -2.908876 -7.231866 0.193854 0
M  V30 26 C -2.552775 -7.786272 -1.020925 0
M  V30 27 O -2.684258 -9.171658 -1.093952 0
M  V30 28 C -2.095114 -7.060359 -2.110343 0
M  V30 29 C -1.998991 -5.674858 -1.934721 0
M  V30 30 H -5.531868 -0.771829 -0.017034 0
M  V30 31 H -4.831654 -1.367156 -1.555842 0
M  V30 32 H -4.820135 -2.448782 -0.067821 0
M  V30 33 H -4.189494 1.237987 -0.627482 0
M  V30 34 H -2.124891 2.387040 -0.099729 0
M  V30 35 H 0.206412 1.522093 1.802543 0
M  V30 36 H 3.383022 1.908589 -1.646433 0
M  V30 37 H 5.498111 2.968756 -0.962687 0
M  V30 38 H 5.834572 3.727815 1.337587 0
M  V30 39 H 3.275698 3.828601 5.258026 0
M  V30 40 H 2.123086 3.817008 3.832185 0
M  V30 41 H 2.841047 2.269929 4.376567 0
M  V30 42 H 5.314105 4.392994 4.810058 0
M  V30 43 H 6.228047 3.509053 3.559864 0
M  V30 44 H 5.549601 5.151230 3.233557 0
M  V30 45 H 1.965138 2.398244 2.350662 0
M  V30 46 H -0.325314 -1.367803 0.992188 0
M  V30 47 H -2.860960 -3.325078 1.336855 0
M  V30 48 H -3.062674 -5.353707 1.256045 0
M  V30 49 H -3.260644 -7.820380 1.021177 0
M  V30 50 H -3.357093 -9.639827 -1.697813 0
M  V30 51 H -1.834390 -7.563528 -3.031666 0
M  V30 52 H -1.644789 -5.080499 -2.767234 0
M  V30 END ATOM
M  V30 BEGIN BOND
M  V30 1 1 1 2
M  V30 2 2 2 3
M  V30 3 1 3 4
M  V30 4 2 4 5
M  V30 5 1 5 6
M  V30 6 1 6 7
M  V30 7 2 7 8
M  V30 8 1 7 9
M  V30 9 2 9 10
M  V30 10 1 10 11
M  V30 11 2 11 12
M  V30 12 1 12 13
M  V30 13 1 13 14
M  V30 14 1 14 15
M  V30 15 1 14 16
M  V30 16 2 13 17
M  V30 17 1 5 18
M  V30 18 2 18 19
M  V30 19 1 19 20
M  V30 20 1 20 21
M  V30 21 2 21 22
M  V30 22 1 21 23
M  V30 23 2 23 24
M  V30 24 1 24 25
M  V30 25 2 25 26
M  V30 26 1 26 27
M  V30 27 1 26 28
M  V30 28 2 28 29
M  V30 29 1 19 2
M  V30 30 1 29 23
M  V30 31 1 17 9
M  V30 32 1 1 30
M  V30 33 1 1 31
M  V30 34 1 1 32
M  V30 35 1 3 33
M  V30 36 1 4 34
M  V30 37 1 6 35
M  V30 38 1 10 36
M  V30 39 1 11 37
M  V30 40 1 12 38
M  V30 41 1 15 39
M  V30 42 1 15 40
M  V30 43 1 15 41
M  V30 44 1 16 42
M  V30 45 1 16 43
M  V30 46 1 16 44
M  V30 47 1 17 45
M  V30 48 1 18 46
M  V30 49 1 20 47
M  V30 50 1 24 48
M  V30 51 1 25 49
M  V30 52 1 27 50
M  V30 53 1 28 51
M  V30 54 1 29 52
M  V30 END BOND
M  V30 END CTAB
M  END
>  <Dataset>  (356) 
ChEMBL_Kinases

>  <Ligand_Instance>  (356) 
nan

>  <PDB_ID>  (356) 
nan

>  <Standardized_SMILES>  (356) 
Cc1ccc(NC(=O)c2cccc(N(C)C)c2)cc1NC(=O)c1ccc(O)cc1

>  <Name>  (356) 
nan

>  <Pocket>  (356) 
nan

>  <ATP_Site>  (356) 
nan

>  <Peripheral>  (356) 
nan

>  <Num_H_Atoms_ProtBoundConf>  (356) 
nan

>  <Num_Resolved_Atoms>  (356) 
nan

>  <Num_Not_Resolved_Atoms>  (356) 
nan

$$$$
CHEMBL4759771
     RDKit          3D

  0  0  0  0  0  0  0  0  0  0999 V3000
M  V30 BEGIN CTAB
M  V30 COUNTS 42 44 0 0 0
M  V30 BEGIN ATOM
M  V30 1 C -2.295662 -4.228259 0.497179 0
M  V30 2 N -0.997653 -4.305765 -0.091745 0
M  V30 3 C -0.157554 -5.288500 0.513086 0
M  V30 4 C -0.978847 -4.280410 -1.530379 0
M  V30 5 C -1.412803 -2.879572 -1.984478 0
M  V30 6 C -0.376153 -1.944931 -1.368874 0
M  V30 7 N -0.608798 -0.560442 -1.690740 0
M  V30 8 C 0.419905 0.190208 -1.055786 0
M  V30 9 N 1.619353 0.478028 -1.608907 0
M  V30 10 C 2.539031 1.207156 -0.917680 0
M  V30 11 C 2.298233 1.677624 0.352507 0
M  V30 12 C 3.203646 2.419300 1.085159 0
M  V30 13 C 2.862331 2.848700 2.363073 0
M  V30 14 C 3.728828 3.593238 3.139574 0
M  V30 15 N 3.408733 4.010481 4.369934 0
M  V30 16 C 2.201670 3.719422 4.923528 0
M  V30 17 C 1.269444 2.968842 4.198078 0
M  V30 18 C 1.620927 2.553142 2.940101 0
M  V30 19 C 0.731225 1.809423 2.188094 0
M  V30 20 N -0.562163 1.473310 2.723763 0
M  V30 21 C 1.050296 1.367714 0.905077 0
M  V30 22 N 0.190807 0.644343 0.167179 0
M  V30 23 H -3.053835 -4.348558 -0.322529 0
M  V30 24 H -2.468409 -3.216051 0.950603 0
M  V30 25 H -2.385782 -5.052029 1.250122 0
M  V30 26 H -0.536765 -6.293751 0.310376 0
M  V30 27 H 0.902351 -5.226581 0.165342 0
M  V30 28 H -0.147001 -5.131926 1.614819 0
M  V30 29 H -1.584173 -5.060077 -2.016613 0
M  V30 30 H 0.089514 -4.372519 -1.825397 0
M  V30 31 H -2.406334 -2.663284 -1.552000 0
M  V30 32 H -1.415283 -2.849863 -3.078416 0
M  V30 33 H 0.632317 -2.290603 -1.663047 0
M  V30 34 H -0.447945 -2.109311 -0.275383 0
M  V30 35 H -1.281024 0.023779 -2.229231 0
M  V30 36 H 3.495314 1.443135 -1.342548 0
M  V30 37 H 4.150416 2.653085 0.663845 0
M  V30 38 H 4.715374 3.854804 2.736886 0
M  V30 39 H 1.880975 4.025536 5.907901 0
M  V30 40 H 0.317606 2.735230 4.626426 0
M  V30 41 H -0.816986 1.082926 3.660788 0
M  V30 42 H -1.530235 1.530459 2.332025 0
M  V30 END ATOM
M  V30 BEGIN BOND
M  V30 1 1 1 2
M  V30 2 1 2 3
M  V30 3 1 2 4
M  V30 4 1 4 5
M  V30 5 1 5 6
M  V30 6 1 6 7
M  V30 7 1 7 8
M  V30 8 2 8 9
M  V30 9 1 9 10
M  V30 10 2 10 11
M  V30 11 1 11 12
M  V30 12 2 12 13
M  V30 13 1 13 14
M  V30 14 2 14 15
M  V30 15 1 15 16
M  V30 16 2 16 17
M  V30 17 1 17 18
M  V30 18 2 18 19
M  V30 19 1 19 20
M  V30 20 1 19 21
M  V30 21 2 21 22
M  V30 22 1 22 8
M  V30 23 1 21 11
M  V30 24 1 18 13
M  V30 25 1 1 23
M  V30 26 1 1 24
M  V30 27 1 1 25
M  V30 28 1 3 26
M  V30 29 1 3 27
M  V30 30 1 3 28
M  V30 31 1 4 29
M  V30 32 1 4 30
M  V30 33 1 5 31
M  V30 34 1 5 32
M  V30 35 1 6 33
M  V30 36 1 6 34
M  V30 37 1 7 35
M  V30 38 1 10 36
M  V30 39 1 12 37
M  V30 40 1 14 38
M  V30 41 1 16 39
M  V30 42 1 17 40
M  V30 43 1 20 41
M  V30 44 1 20 42
M  V30 END BOND
M  V30 END CTAB
M  END
>  <Dataset>  (357) 
ChEMBL_Kinases

>  <Ligand_Instance>  (357) 
nan

>  <PDB_ID>  (357) 
nan

>  <Standardized_SMILES>  (357) 
CN(C)CCCNc1ncc2cc3cnccc3c(N)c2n1

>  <Name>  (357) 
nan

>  <Pocket>  (357) 
nan

>  <ATP_Site>  (357) 
nan

>  <Peripheral>  (357) 
nan

>  <Num_H_Atoms_ProtBoundConf>  (357) 
nan

>  <Num_Resolved_Atoms>  (357) 
nan

>  <Num_Not_Resolved_Atoms>  (357) 
nan

$$$$
CHEMBL4759182
     RDKit          3D

  0  0  0  0  0  0  0  0  0  0999 V3000
M  V30 BEGIN CTAB
M  V30 COUNTS 43 46 0 0 0
M  V30 BEGIN ATOM
M  V30 1 C 3.626826 -1.845098 2.440447 0
M  V30 2 C 2.894611 -0.603064 1.976570 0
M  V30 3 C 1.636361 -0.510965 2.813157 0
M  V30 4 N 3.716956 0.584682 2.060155 0
M  V30 5 C 4.576680 0.671798 3.087921 0
M  V30 6 N 5.235441 1.851194 2.969257 0
M  V30 7 N 4.780360 2.459460 1.892268 0
M  V30 8 C 3.838316 1.694713 1.311191 0
M  V30 9 C 2.964333 1.761140 0.140147 0
M  V30 10 C 3.469512 1.898585 -1.137417 0
M  V30 11 C 2.668754 1.963932 -2.260316 0
M  V30 12 C 1.296780 1.890701 -2.125739 0
M  V30 13 C 0.800518 1.753320 -0.844458 0
M  V30 14 N -0.572822 1.655303 -0.434852 0
M  V30 15 C -1.257555 0.410232 -0.322094 0
M  V30 16 O -0.556491 -0.609250 -0.612955 0
M  V30 17 N -2.622881 0.382514 0.090441 0
M  V30 18 C -3.179071 -0.926734 0.159257 0
M  V30 19 N -3.804900 -1.550929 -0.876622 0
M  V30 20 C -4.311487 -2.789304 -0.753726 0
M  V30 21 C -4.171132 -3.409765 0.475848 0
M  V30 22 N -4.556327 -4.629931 0.934582 0
M  V30 23 C -4.195751 -4.795090 2.219635 0
M  V30 24 N -3.566855 -3.656866 2.590495 0
M  V30 25 C -3.534096 -2.795292 1.557681 0
M  V30 26 N -3.051420 -1.540262 1.342089 0
M  V30 27 N 1.602713 1.691902 0.235468 0
M  V30 28 H 4.513914 -2.084859 1.823717 0
M  V30 29 H 3.829446 -1.741393 3.508310 0
M  V30 30 H 2.876471 -2.677127 2.349256 0
M  V30 31 H 2.616883 -0.826064 0.904917 0
M  V30 32 H 0.922428 -1.220339 2.351467 0
M  V30 33 H 1.771292 -0.870728 3.854935 0
M  V30 34 H 1.254854 0.517092 2.871543 0
M  V30 35 H 4.835484 0.038101 3.934778 0
M  V30 36 H 4.542798 1.957701 -1.262998 0
M  V30 37 H 3.027998 2.071170 -3.274456 0
M  V30 38 H 0.541453 1.925593 -2.887604 0
M  V30 39 H -1.092753 2.554121 -0.208222 0
M  V30 40 H -3.166127 1.257375 0.322316 0
M  V30 41 H -4.805940 -3.270065 -1.588426 0
M  V30 42 H -5.065577 -5.367509 0.392840 0
M  V30 43 H -4.355028 -5.649376 2.867991 0
M  V30 END ATOM
M  V30 BEGIN BOND
M  V30 1 1 1 2
M  V30 2 1 2 3
M  V30 3 1 2 4
M  V30 4 1 4 5
M  V30 5 2 5 6
M  V30 6 1 6 7
M  V30 7 2 7 8
M  V30 8 1 8 9
M  V30 9 2 9 10
M  V30 10 1 10 11
M  V30 11 2 11 12
M  V30 12 1 12 13
M  V30 13 1 13 14
M  V30 14 1 14 15
M  V30 15 2 15 16
M  V30 16 1 15 17
M  V30 17 1 17 18
M  V30 18 2 18 19
M  V30 19 1 19 20
M  V30 20 2 20 21
M  V30 21 1 21 22
M  V30 22 1 22 23
M  V30 23 2 23 24
M  V30 24 1 24 25
M  V30 25 2 25 26
M  V30 26 2 13 27
M  V30 27 1 8 4
M  V30 28 1 27 9
M  V30 29 1 26 18
M  V30 30 1 25 21
M  V30 31 1 1 28
M  V30 32 1 1 29
M  V30 33 1 1 30
M  V30 34 1 2 31
M  V30 35 1 3 32
M  V30 36 1 3 33
M  V30 37 1 3 34
M  V30 38 1 5 35
M  V30 39 1 10 36
M  V30 40 1 11 37
M  V30 41 1 12 38
M  V30 42 1 14 39
M  V30 43 1 17 40
M  V30 44 1 20 41
M  V30 45 1 22 42
M  V30 46 1 23 43
M  V30 END BOND
M  V30 END CTAB
M  END
>  <Dataset>  (358) 
ChEMBL_Kinases

>  <Ligand_Instance>  (358) 
nan

>  <PDB_ID>  (358) 
nan

>  <Standardized_SMILES>  (358) 
CC(C)n1cnnc1-c1cccc(NC(=O)Nc2ncc3[nH]cnc3n2)n1

>  <Name>  (358) 
nan

>  <Pocket>  (358) 
nan

>  <ATP_Site>  (358) 
nan

>  <Peripheral>  (358) 
nan

>  <Num_H_Atoms_ProtBoundConf>  (358) 
nan

>  <Num_Resolved_Atoms>  (358) 
nan

>  <Num_Not_Resolved_Atoms>  (358) 
nan

$$$$
CHEMBL508861
     RDKit          3D

  0  0  0  0  0  0  0  0  0  0999 V3000
M  V30 BEGIN CTAB
M  V30 COUNTS 75 82 0 0 0
M  V30 BEGIN ATOM
M  V30 1 Cl 10.064975 1.467768 3.034431 0
M  V30 2 C 8.804383 0.678284 4.018756 0
M  V30 3 C 7.428215 1.043137 3.558841 0
M  V30 4 N 6.677107 2.073876 3.972770 0
M  V30 5 N 5.504780 2.105487 3.358613 0
M  V30 6 C 5.537949 1.030897 2.517980 0
M  V30 7 C 4.567769 0.595048 1.639871 0
M  V30 8 C 3.350250 1.257522 1.505954 0
M  V30 9 C 2.446569 0.749952 0.607737 0
M  V30 10 C 1.161820 1.437804 0.456785 0
M  V30 11 C 1.350955 2.752531 0.021334 0
M  V30 12 C 0.281418 3.614828 -0.197979 0
M  V30 13 C -0.986488 3.096002 0.040231 0
M  V30 14 C -1.189284 1.795493 0.471828 0
M  V30 15 C -0.119479 0.976802 0.676989 0
M  V30 16 C 2.668644 -0.374488 -0.170148 0
M  V30 17 C 1.684131 -0.890769 -1.117107 0
M  V30 18 C 1.184311 -0.246859 -2.229030 0
M  V30 19 C 0.251728 -0.852908 -3.045659 0
M  V30 20 C -0.153462 -2.124887 -2.697935 0
M  V30 21 C -1.152295 -2.862323 -3.508100 0
M  V30 22 N -2.496624 -2.640689 -3.086160 0
M  V30 23 C -2.959498 -1.294369 -3.128961 0
M  V30 24 C -4.470900 -1.289852 -3.107701 0
M  V30 25 C -5.019443 -2.369037 -2.201865 0
M  V30 26 C -4.407313 -2.147945 -0.848500 0
M  V30 27 N -3.118299 -2.250741 -0.481003 0
M  V30 28 N -3.024870 -1.968616 0.806226 0
M  V30 29 C -4.239498 -1.678683 1.300682 0
M  V30 30 C -4.546451 -1.317319 2.679396 0
M  V30 31 C -3.533239 -1.249620 3.611942 0
M  V30 32 C -3.696497 -0.920076 4.941927 0
M  V30 33 C -4.986793 -0.632765 5.378310 0
M  V30 34 C -5.997146 -0.702729 4.437177 0
M  V30 35 N -5.761486 -1.032504 3.151894 0
M  V30 36 N -5.098708 -1.789913 0.273037 0
M  V30 37 C -4.660073 -3.714452 -2.737735 0
M  V30 38 C -3.414018 -3.625865 -3.587935 0
M  V30 39 C 0.320917 -2.819386 -1.584334 0
M  V30 40 C 1.265046 -2.175477 -0.779092 0
M  V30 41 N 3.854429 -0.995026 -0.020030 0
M  V30 42 C 4.779410 -0.538761 0.848746 0
M  V30 43 C 5.996788 -1.191222 0.991465 0
M  V30 44 C 6.941488 -0.726199 1.878980 0
M  V30 45 N 6.717032 0.368792 2.631984 0
M  V30 46 H 8.965253 -0.416254 3.914380 0
M  V30 47 H 8.881706 0.987212 5.091152 0
M  V30 48 H 3.128220 2.125597 2.078757 0
M  V30 49 H 2.312726 3.232491 -0.187336 0
M  V30 50 H 0.393890 4.629979 -0.532381 0
M  V30 51 H -1.865097 3.717676 -0.112180 0
M  V30 52 H -2.163900 1.371154 0.663167 0
M  V30 53 H -0.122848 -0.063960 1.013466 0
M  V30 54 H 1.573461 0.746728 -2.403921 0
M  V30 55 H -0.130586 -0.344084 -3.908403 0
M  V30 56 H -1.030152 -2.588156 -4.567980 0
M  V30 57 H -0.981269 -3.968383 -3.462790 0
M  V30 58 H -2.668041 -0.873807 -4.131581 0
M  V30 59 H -2.539342 -0.661143 -2.322593 0
M  V30 60 H -4.855964 -0.308141 -2.704766 0
M  V30 61 H -4.870318 -1.362392 -4.138637 0
M  V30 62 H -6.116085 -2.205624 -2.125771 0
M  V30 63 H -2.107419 -1.978477 1.343930 0
M  V30 64 H -2.507854 -1.474463 3.280577 0
M  V30 65 H -2.865230 -0.881972 5.633406 0
M  V30 66 H -5.211328 -0.365361 6.397987 0
M  V30 67 H -7.045724 -0.494291 4.681700 0
M  V30 68 H -4.451462 -4.401632 -1.889153 0
M  V30 69 H -5.458759 -4.206019 -3.329601 0
M  V30 70 H -2.917916 -4.612368 -3.552143 0
M  V30 71 H -3.681327 -3.455640 -4.655256 0
M  V30 72 H -0.012017 -3.811915 -1.335476 0
M  V30 73 H 1.615074 -2.746784 0.083200 0
M  V30 74 H 6.180620 -2.077034 0.383228 0
M  V30 75 H 7.899551 -1.214792 2.011251 0
M  V30 END ATOM
M  V30 BEGIN BOND
M  V30 1 1 1 2
M  V30 2 1 2 3
M  V30 3 2 3 4
M  V30 4 1 4 5
M  V30 5 2 5 6
M  V30 6 1 6 7
M  V30 7 2 7 8
M  V30 8 1 8 9
M  V30 9 1 9 10
M  V30 10 2 10 11
M  V30 11 1 11 12
M  V30 12 2 12 13
M  V30 13 1 13 14
M  V30 14 2 14 15
M  V30 15 2 9 16
M  V30 16 1 16 17
M  V30 17 2 17 18
M  V30 18 1 18 19
M  V30 19 2 19 20
M  V30 20 1 20 21
M  V30 21 1 21 22
M  V30 22 1 22 23
M  V30 23 1 23 24
M  V30 24 1 24 25
M  V30 25 1 25 26
M  V30 26 2 26 27
M  V30 27 1 27 28
M  V30 28 1 28 29
M  V30 29 1 29 30
M  V30 30 2 30 31
M  V30 31 1 31 32
M  V30 32 2 32 33
M  V30 33 1 33 34
M  V30 34 2 34 35
M  V30 35 2 29 36
M  V30 36 1 25 37
M  V30 37 1 37 38
M  V30 38 1 20 39
M  V30 39 2 39 40
M  V30 40 1 16 41
M  V30 41 2 41 42
M  V30 42 1 42 43
M  V30 43 2 43 44
M  V30 44 1 44 45
M  V30 45 1 45 3
M  V30 46 1 45 6
M  V30 47 1 42 7
M  V30 48 1 15 10
M  V30 49 1 40 17
M  V30 50 1 38 22
M  V30 51 1 36 26
M  V30 52 1 35 30
M  V30 53 1 2 46
M  V30 54 1 2 47
M  V30 55 1 8 48
M  V30 56 1 11 49
M  V30 57 1 12 50
M  V30 58 1 13 51
M  V30 59 1 14 52
M  V30 60 1 15 53
M  V30 61 1 18 54
M  V30 62 1 19 55
M  V30 63 1 21 56
M  V30 64 1 21 57
M  V30 65 1 23 58
M  V30 66 1 23 59
M  V30 67 1 24 60
M  V30 68 1 24 61
M  V30 69 1 25 62
M  V30 70 1 28 63
M  V30 71 1 31 64
M  V30 72 1 32 65
M  V30 73 1 33 66
M  V30 74 1 34 67
M  V30 75 1 37 68
M  V30 76 1 37 69
M  V30 77 1 38 70
M  V30 78 1 38 71
M  V30 79 1 39 72
M  V30 80 1 40 73
M  V30 81 1 43 74
M  V30 82 1 44 75
M  V30 END BOND
M  V30 END CTAB
M  END
>  <Dataset>  (359) 
ChEMBL_Kinases

>  <Ligand_Instance>  (359) 
nan

>  <PDB_ID>  (359) 
nan

>  <Standardized_SMILES>  (359) 
ClCc1nnc2c3cc(-c4ccccc4)c(-c4ccc(CN5CCC(c6n[nH]c(-c7ccccn7)n6)CC5)cc4)nc3ccn12

>  <Name>  (359) 
nan

>  <Pocket>  (359) 
nan

>  <ATP_Site>  (359) 
nan

>  <Peripheral>  (359) 
nan

>  <Num_H_Atoms_ProtBoundConf>  (359) 
nan

>  <Num_Resolved_Atoms>  (359) 
nan

>  <Num_Not_Resolved_Atoms>  (359) 
nan

$$$$
CHEMBL5088553
     RDKit          3D

  0  0  0  0  0  0  0  0  0  0999 V3000
M  V30 BEGIN CTAB
M  V30 COUNTS 33 35 0 0 0
M  V30 BEGIN ATOM
M  V30 1 C -3.274766 -4.382905 2.625499 0
M  V30 2 C -2.206909 -3.394894 2.310947 0
M  V30 3 N -1.153543 -3.161933 3.137560 0
M  V30 4 C -0.358600 -2.211359 2.573700 0
M  V30 5 C 0.817080 -1.607938 2.969866 0
M  V30 6 C 1.372972 -0.654624 2.133167 0
M  V30 7 C 0.786365 -0.303274 0.935358 0
M  V30 8 C 1.333698 0.694752 0.020497 0
M  V30 9 C 0.638641 0.945105 -1.144364 0
M  V30 10 C 1.092757 1.886038 -2.076463 0
M  V30 11 N 0.360098 2.129993 -3.273768 0
M  V30 12 N 2.246611 2.567319 -1.824188 0
M  V30 13 C 2.939732 2.325743 -0.674956 0
M  V30 14 N 4.142405 3.069322 -0.463342 0
M  V30 15 C 2.496781 1.400262 0.246003 0
M  V30 16 N -0.359990 -0.908862 0.575472 0
M  V30 17 C -0.942636 -1.854782 1.370770 0
M  V30 18 N -2.060845 -2.594166 1.247611 0
M  V30 19 C -2.991818 -2.551655 0.136277 0
M  V30 20 H -2.881871 -5.183441 3.264675 0
M  V30 21 H -4.111933 -3.897031 3.177821 0
M  V30 22 H -3.719443 -4.760722 1.672870 0
M  V30 23 H 1.238017 -1.906339 3.900330 0
M  V30 24 H 2.293062 -0.172752 2.428433 0
M  V30 25 H -0.286077 0.443329 -1.414326 0
M  V30 26 H -0.608391 2.534265 -3.247452 0
M  V30 27 H 0.851151 1.880614 -4.160494 0
M  V30 28 H 3.765475 3.964523 -0.102728 0
M  V30 29 H 5.151218 2.911678 -0.581516 0
M  V30 30 H 3.048142 1.216785 1.146873 0
M  V30 31 H -3.964665 -2.992728 0.405631 0
M  V30 32 H -3.157562 -1.455933 -0.082048 0
M  V30 33 H -2.554176 -2.956462 -0.798608 0
M  V30 END ATOM
M  V30 BEGIN BOND
M  V30 1 1 1 2
M  V30 2 2 2 3
M  V30 3 1 3 4
M  V30 4 2 4 5
M  V30 5 1 5 6
M  V30 6 2 6 7
M  V30 7 1 7 8
M  V30 8 2 8 9
M  V30 9 1 9 10
M  V30 10 1 10 11
M  V30 11 2 10 12
M  V30 12 1 12 13
M  V30 13 1 13 14
M  V30 14 2 13 15
M  V30 15 1 7 16
M  V30 16 2 16 17
M  V30 17 1 17 18
M  V30 18 1 18 19
M  V30 19 1 18 2
M  V30 20 1 17 4
M  V30 21 1 15 8
M  V30 22 1 1 20
M  V30 23 1 1 21
M  V30 24 1 1 22
M  V30 25 1 5 23
M  V30 26 1 6 24
M  V30 27 1 9 25
M  V30 28 1 11 26
M  V30 29 1 11 27
M  V30 30 1 14 28
M  V30 31 1 14 29
M  V30 32 1 15 30
M  V30 33 1 19 31
M  V30 34 1 19 32
M  V30 35 1 19 33
M  V30 END BOND
M  V30 END CTAB
M  END
>  <Dataset>  (360) 
ChEMBL_Kinases

>  <Ligand_Instance>  (360) 
nan

>  <PDB_ID>  (360) 
nan

>  <Standardized_SMILES>  (360) 
Cc1nc2ccc(-c3cc(N)nc(N)c3)nc2n1C

>  <Name>  (360) 
nan

>  <Pocket>  (360) 
nan

>  <ATP_Site>  (360) 
nan

>  <Peripheral>  (360) 
nan

>  <Num_H_Atoms_ProtBoundConf>  (360) 
nan

>  <Num_Resolved_Atoms>  (360) 
nan

>  <Num_Not_Resolved_Atoms>  (360) 
nan

$$$$
CHEMBL4758113
     RDKit          3D

  0  0  0  0  0  0  0  0  0  0999 V3000
M  V30 BEGIN CTAB
M  V30 COUNTS 47 50 0 0 0
M  V30 BEGIN ATOM
M  V30 1 C -3.847929 -3.783626 0.824418 0
M  V30 2 C -2.688674 -4.751736 1.039433 0
M  V30 3 N -1.407574 -4.141511 0.871156 0
M  V30 4 C -0.234365 -4.893104 1.033194 0
M  V30 5 O -0.193186 -6.101425 1.323990 0
M  V30 6 C 1.026625 -4.201779 0.845732 0
M  V30 7 C 1.316961 -2.944778 0.537722 0
M  V30 8 C 2.620580 -2.535804 0.417653 0
M  V30 9 N 3.057506 -1.219977 0.093037 0
M  V30 10 C 2.902048 -0.189840 0.969255 0
M  V30 11 C 3.416870 0.970148 0.388510 0
M  V30 12 N 3.403781 2.246163 1.066105 0
M  V30 13 C 2.206695 2.968197 0.783244 0
M  V30 14 O 1.445415 2.313248 0.005335 0
M  V30 15 N 1.930487 4.250811 1.317018 0
M  V30 16 C 0.703638 4.939812 0.999755 0
M  V30 17 C 0.568187 5.790442 -0.076952 0
M  V30 18 C -0.660568 6.384654 -0.265781 0
M  V30 19 C -1.736305 6.155171 0.577149 0
M  V30 20 C -1.584137 5.301462 1.649695 0
M  V30 21 C -0.356683 4.699369 1.849768 0
M  V30 22 Cl -0.275515 3.634522 3.241536 0
M  V30 23 C 3.882072 0.577746 -0.867669 0
M  V30 24 N 3.643394 -0.742178 -0.995531 0
M  V30 25 C 3.587193 -3.483912 0.630505 0
M  V30 26 S 2.599051 -5.047651 1.023972 0
M  V30 27 C -2.996256 -6.063259 0.460298 0
M  V30 28 O -3.862045 -6.283522 1.557274 0
M  V30 29 C -2.929066 -5.532907 2.307153 0
M  V30 30 H -4.075491 -3.199154 1.722309 0
M  V30 31 H -4.795597 -4.342422 0.581343 0
M  V30 32 H -3.645568 -3.160841 -0.082418 0
M  V30 33 H -1.360088 -3.107488 0.620918 0
M  V30 34 H 0.482795 -2.248322 0.383408 0
M  V30 35 H 2.453069 -0.241614 1.963063 0
M  V30 36 H 4.125762 2.687356 1.707264 0
M  V30 37 H 2.644242 4.696886 1.956202 0
M  V30 38 H 1.423144 5.950226 -0.716485 0
M  V30 39 H -0.731015 7.043074 -1.116287 0
M  V30 40 H -2.691556 6.649475 0.386839 0
M  V30 41 H -2.443620 5.130486 2.306531 0
M  V30 42 H 4.325258 1.303083 -1.506336 0
M  V30 43 H 4.665867 -3.443095 0.602944 0
M  V30 44 H -2.252454 -6.863202 0.476659 0
M  V30 45 H -3.507352 -6.057480 -0.531422 0
M  V30 46 H -3.473235 -4.937044 3.074614 0
M  V30 47 H -2.092274 -6.118930 2.685476 0
M  V30 END ATOM
M  V30 BEGIN BOND
M  V30 1 1 1 2
M  V30 2 1 2 3
M  V30 3 1 3 4
M  V30 4 2 4 5
M  V30 5 1 4 6
M  V30 6 2 6 7
M  V30 7 1 7 8
M  V30 8 1 8 9
M  V30 9 1 9 10
M  V30 10 2 10 11
M  V30 11 1 11 12
M  V30 12 1 12 13
M  V30 13 2 13 14
M  V30 14 1 13 15
M  V30 15 1 15 16
M  V30 16 2 16 17
M  V30 17 1 17 18
M  V30 18 2 18 19
M  V30 19 1 19 20
M  V30 20 2 20 21
M  V30 21 1 21 22
M  V30 22 1 11 23
M  V30 23 2 23 24
M  V30 24 2 8 25
M  V30 25 1 25 26
M  V30 26 1 2 27
M  V30 27 1 27 28
M  V30 28 1 28 29
M  V30 29 1 29 2
M  V30 30 1 26 6
M  V30 31 1 24 9
M  V30 32 1 21 16
M  V30 33 1 1 30
M  V30 34 1 1 31
M  V30 35 1 1 32
M  V30 36 1 3 33
M  V30 37 1 7 34
M  V30 38 1 10 35
M  V30 39 1 12 36
M  V30 40 1 15 37
M  V30 41 1 17 38
M  V30 42 1 18 39
M  V30 43 1 19 40
M  V30 44 1 20 41
M  V30 45 1 23 42
M  V30 46 1 25 43
M  V30 47 1 27 44
M  V30 48 1 27 45
M  V30 49 1 29 46
M  V30 50 1 29 47
M  V30 END BOND
M  V30 END CTAB
M  END
>  <Dataset>  (361) 
ChEMBL_Kinases

>  <Ligand_Instance>  (361) 
nan

>  <PDB_ID>  (361) 
nan

>  <Standardized_SMILES>  (361) 
CC1(NC(=O)c2cc(-n3cc(NC(=O)Nc4ccccc4Cl)cn3)cs2)COC1

>  <Name>  (361) 
nan

>  <Pocket>  (361) 
nan

>  <ATP_Site>  (361) 
nan

>  <Peripheral>  (361) 
nan

>  <Num_H_Atoms_ProtBoundConf>  (361) 
nan

>  <Num_Resolved_Atoms>  (361) 
nan

>  <Num_Not_Resolved_Atoms>  (361) 
nan

$$$$
CHEMBL189937
     RDKit          3D

  0  0  0  0  0  0  0  0  0  0999 V3000
M  V30 BEGIN CTAB
M  V30 COUNTS 58 62 0 0 0
M  V30 BEGIN ATOM
M  V30 1 C -0.183466 2.809338 5.595415 0
M  V30 2 C 0.743950 1.948058 4.805687 0
M  V30 3 C 1.732017 1.146350 5.383568 0
M  V30 4 Br 1.838416 1.210378 7.289444 0
M  V30 5 C 2.533436 0.391529 4.571034 0
M  V30 6 O 3.375086 -0.275717 5.253887 0
M  V30 7 N 2.412906 0.385855 3.233469 0
M  V30 8 C 3.321465 -0.449731 2.533532 0
M  V30 9 C 3.290416 -1.837678 3.169039 0
M  V30 10 C 3.401438 -2.826973 2.036203 0
M  V30 11 C 3.912851 -1.966630 0.899535 0
M  V30 12 C 3.020771 -0.730483 1.103218 0
M  V30 13 C 1.494148 1.125486 2.625629 0
M  V30 14 N 1.367297 1.125866 1.285944 0
M  V30 15 C 0.408329 1.903495 0.705712 0
M  V30 16 N 0.348078 1.838013 -0.714820 0
M  V30 17 C -0.524260 0.873107 -1.290217 0
M  V30 18 C -1.295095 0.037938 -0.512532 0
M  V30 19 C -2.137186 -0.892361 -1.080838 0
M  V30 20 C -2.263829 -1.048242 -2.433626 0
M  V30 21 N -3.132551 -2.003944 -3.019568 0
M  V30 22 C -4.016812 -2.886806 -2.290545 0
M  V30 23 C -3.601267 -4.335020 -2.443234 0
M  V30 24 N -2.698776 -4.517658 -3.561584 0
M  V30 25 C -3.055550 -3.738729 -4.718124 0
M  V30 26 C -3.294078 -2.273885 -4.415110 0
M  V30 27 C -1.494897 -0.215033 -3.210668 0
M  V30 28 C -0.643885 0.724670 -2.667693 0
M  V30 29 N -0.414638 2.671457 1.449397 0
M  V30 30 C -0.310051 2.691854 2.810983 0
M  V30 31 C 0.659324 1.908480 3.429970 0
M  V30 32 H -1.232464 2.591174 5.276017 0
M  V30 33 H -0.140040 2.461515 6.656950 0
M  V30 34 H 0.063273 3.871132 5.573743 0
M  V30 35 H 4.373348 -0.047068 2.567957 0
M  V30 36 H 4.145474 -1.985435 3.862387 0
M  V30 37 H 2.341862 -2.018647 3.704333 0
M  V30 38 H 4.083845 -3.666743 2.272576 0
M  V30 39 H 2.387426 -3.182768 1.742226 0
M  V30 40 H 3.767709 -2.420060 -0.099996 0
M  V30 41 H 4.958537 -1.722759 1.120124 0
M  V30 42 H 1.987052 -1.149233 0.974595 0
M  V30 43 H 3.286063 0.048806 0.384220 0
M  V30 44 H 0.900364 2.449210 -1.335194 0
M  V30 45 H -1.200579 0.155251 0.570591 0
M  V30 46 H -2.679065 -1.478015 -0.377320 0
M  V30 47 H -4.071654 -2.675456 -1.204307 0
M  V30 48 H -5.062464 -2.760145 -2.670960 0
M  V30 49 H -4.516181 -4.956911 -2.525353 0
M  V30 50 H -3.062254 -4.687694 -1.530881 0
M  V30 51 H -1.696903 -4.496537 -3.318042 0
M  V30 52 H -2.174899 -3.783941 -5.405812 0
M  V30 53 H -3.904487 -4.192445 -5.277055 0
M  V30 54 H -4.372785 -2.071143 -4.675736 0
M  V30 55 H -2.703135 -1.619936 -5.060185 0
M  V30 56 H -1.488517 -0.221135 -4.269184 0
M  V30 57 H -0.029451 1.390496 -3.253813 0
M  V30 58 H -1.009055 3.337652 3.362276 0
M  V30 END ATOM
M  V30 BEGIN BOND
M  V30 1 1 1 2
M  V30 2 2 2 3
M  V30 3 1 3 4
M  V30 4 1 3 5
M  V30 5 2 5 6
M  V30 6 1 5 7
M  V30 7 1 7 8
M  V30 8 1 8 9
M  V30 9 1 9 10
M  V30 10 1 10 11
M  V30 11 1 11 12
M  V30 12 1 7 13
M  V30 13 2 13 14
M  V30 14 1 14 15
M  V30 15 1 15 16
M  V30 16 1 16 17
M  V30 17 2 17 18
M  V30 18 1 18 19
M  V30 19 2 19 20
M  V30 20 1 20 21
M  V30 21 1 21 22
M  V30 22 1 22 23
M  V30 23 1 23 24
M  V30 24 1 24 25
M  V30 25 1 25 26
M  V30 26 1 20 27
M  V30 27 2 27 28
M  V30 28 2 15 29
M  V30 29 1 29 30
M  V30 30 2 30 31
M  V30 31 1 31 2
M  V30 32 1 12 8
M  V30 33 1 31 13
M  V30 34 1 28 17
M  V30 35 1 26 21
M  V30 36 1 1 32
M  V30 37 1 1 33
M  V30 38 1 1 34
M  V30 39 1 8 35
M  V30 40 1 9 36
M  V30 41 1 9 37
M  V30 42 1 10 38
M  V30 43 1 10 39
M  V30 44 1 11 40
M  V30 45 1 11 41
M  V30 46 1 12 42
M  V30 47 1 12 43
M  V30 48 1 16 44
M  V30 49 1 18 45
M  V30 50 1 19 46
M  V30 51 1 22 47
M  V30 52 1 22 48
M  V30 53 1 23 49
M  V30 54 1 23 50
M  V30 55 1 24 51
M  V30 56 1 25 52
M  V30 57 1 25 53
M  V30 58 1 26 54
M  V30 59 1 26 55
M  V30 60 1 27 56
M  V30 61 1 28 57
M  V30 62 1 30 58
M  V30 END BOND
M  V30 END CTAB
M  END
>  <Dataset>  (362) 
ChEMBL_Kinases

>  <Ligand_Instance>  (362) 
nan

>  <PDB_ID>  (362) 
nan

>  <Standardized_SMILES>  (362) 
Cc1c(Br)c(=O)n(C2CCCC2)c2nc(Nc3ccc(N4CCNCC4)cc3)ncc12

>  <Name>  (362) 
nan

>  <Pocket>  (362) 
nan

>  <ATP_Site>  (362) 
nan

>  <Peripheral>  (362) 
nan

>  <Num_H_Atoms_ProtBoundConf>  (362) 
nan

>  <Num_Resolved_Atoms>  (362) 
nan

>  <Num_Not_Resolved_Atoms>  (362) 
nan

$$$$
CHEMBL4758114
     RDKit          3D

  0  0  0  0  0  0  0  0  0  0999 V3000
M  V30 BEGIN CTAB
M  V30 COUNTS 62 66 0 0 0
M  V30 BEGIN ATOM
M  V30 1 C 3.684655 -5.723256 3.213986 0
M  V30 2 C 4.160501 -4.780095 4.298462 0
M  V30 3 C 3.822099 -3.383582 3.915635 0
M  V30 4 N 4.032849 -2.209884 4.537927 0
M  V30 5 O 3.558864 -1.242171 3.815727 0
M  V30 6 C 3.018489 -1.682258 2.702627 0
M  V30 7 C 2.427286 -0.755343 1.749439 0
M  V30 8 C 2.413775 0.604658 1.977141 0
M  V30 9 N 1.879207 1.459488 1.117059 0
M  V30 10 C 1.315052 1.054665 -0.034146 0
M  V30 11 N 0.765007 2.003270 -0.907767 0
M  V30 12 C -0.560643 2.517460 -0.935717 0
M  V30 13 C -0.931200 3.451377 -1.880147 0
M  V30 14 C -2.216471 3.940022 -1.893182 0
M  V30 15 C -3.188010 3.554026 -1.007037 0
M  V30 16 C -2.802575 2.606143 -0.052589 0
M  V30 17 C -1.518856 2.118716 -0.040357 0
M  V30 18 C -3.964980 2.292258 0.832735 0
M  V30 19 C -3.699149 2.547672 2.279479 0
M  V30 20 C -4.386621 0.849525 0.548972 0
M  V30 21 O -5.016158 3.096734 0.341751 0
M  V30 22 C -4.579400 3.846389 -0.740134 0
M  V30 23 O -5.162717 4.689993 -1.483476 0
M  V30 24 N 1.328901 -0.266978 -0.254068 0
M  V30 25 C 1.852575 -1.185638 0.573313 0
M  V30 26 N 1.789437 -2.567518 0.206825 0
M  V30 27 C 1.165671 -2.935026 -1.060997 0 CFG=2
M  V30 28 C 1.881894 -2.367447 -2.237743 0
M  V30 29 O 1.288125 -2.731282 -3.467848 0
M  V30 30 C -0.293175 -2.666357 -1.028360 0
M  V30 31 C -0.810640 -3.173390 0.172576 0
M  V30 32 C -2.165836 -3.058422 0.473291 0
M  V30 33 C -3.030977 -2.441729 -0.405720 0
M  V30 34 C -2.490962 -1.953703 -1.577688 0
M  V30 35 C -1.152467 -2.059691 -1.889508 0
M  V30 36 N 3.198323 -3.000593 2.797988 0
M  V30 37 H 4.322394 -6.630259 3.124461 0
M  V30 38 H 3.711361 -5.214616 2.213038 0
M  V30 39 H 2.649472 -6.063675 3.372152 0
M  V30 40 H 3.640499 -5.079909 5.249853 0
M  V30 41 H 5.256225 -4.910474 4.413823 0
M  V30 42 H 2.851846 1.025050 2.890966 0
M  V30 43 H 1.457908 2.344867 -1.608829 0
M  V30 44 H -0.235983 3.828253 -2.633706 0
M  V30 45 H -2.511366 4.685309 -2.647156 0
M  V30 46 H -1.228173 1.376519 0.711834 0
M  V30 47 H -4.310101 3.368139 2.718681 0
M  V30 48 H -2.621258 2.662065 2.537205 0
M  V30 49 H -4.020690 1.621251 2.838695 0
M  V30 50 H -4.550243 0.835676 -0.566853 0
M  V30 51 H -5.320461 0.600310 1.084908 0
M  V30 52 H -3.542094 0.170302 0.741954 0
M  V30 53 H 2.164457 -3.335949 0.794754 0
M  V30 54 H 1.251969 -4.047058 -1.148129 0
M  V30 55 H 2.881671 -2.897021 -2.271651 0
M  V30 56 H 2.127183 -1.309532 -2.206033 0
M  V30 57 H 1.354993 -3.702042 -3.611345 0
M  V30 58 H -0.281311 -3.691761 0.988320 0
M  V30 59 H -2.629651 -3.425911 1.378121 0
M  V30 60 H -4.092111 -2.326494 -0.220039 0
M  V30 61 H -3.083278 -1.444447 -2.351162 0
M  V30 62 H -0.656310 -1.708869 -2.768599 0
M  V30 END ATOM
M  V30 BEGIN BOND
M  V30 1 1 1 2
M  V30 2 1 2 3
M  V30 3 2 3 4
M  V30 4 1 4 5
M  V30 5 1 5 6
M  V30 6 1 6 7
M  V30 7 2 7 8
M  V30 8 1 8 9
M  V30 9 2 9 10
M  V30 10 1 10 11
M  V30 11 1 11 12
M  V30 12 2 12 13
M  V30 13 1 13 14
M  V30 14 2 14 15
M  V30 15 1 15 16
M  V30 16 2 16 17
M  V30 17 1 16 18
M  V30 18 1 18 19
M  V30 19 1 18 20
M  V30 20 1 18 21
M  V30 21 1 21 22
M  V30 22 2 22 23
M  V30 23 1 10 24
M  V30 24 2 24 25
M  V30 25 1 25 26
M  V30 26 1 26 27
M  V30 27 1 27 28
M  V30 28 1 28 29
M  V30 29 1 27 30
M  V30 30 2 30 31
M  V30 31 1 31 32
M  V30 32 2 32 33
M  V30 33 1 33 34
M  V30 34 2 34 35
M  V30 35 2 6 36
M  V30 36 1 36 3
M  V30 37 1 25 7
M  V30 38 1 35 30
M  V30 39 1 17 12
M  V30 40 1 22 15
M  V30 41 1 1 37
M  V30 42 1 1 38
M  V30 43 1 1 39
M  V30 44 1 2 40
M  V30 45 1 2 41
M  V30 46 1 8 42
M  V30 47 1 11 43
M  V30 48 1 13 44
M  V30 49 1 14 45
M  V30 50 1 17 46
M  V30 51 1 19 47
M  V30 52 1 19 48
M  V30 53 1 19 49
M  V30 54 1 20 50
M  V30 55 1 20 51
M  V30 56 1 20 52
M  V30 57 1 26 53
M  V30 58 1 27 54 CFG=3
M  V30 59 1 28 55
M  V30 60 1 28 56
M  V30 61 1 29 57
M  V30 62 1 31 58
M  V30 63 1 32 59
M  V30 64 1 33 60
M  V30 65 1 34 61
M  V30 66 1 35 62
M  V30 END BOND
M  V30 END CTAB
M  END
>  <Dataset>  (363) 
ChEMBL_Kinases

>  <Ligand_Instance>  (363) 
nan

>  <PDB_ID>  (363) 
nan

>  <Standardized_SMILES>  (363) 
CCc1noc(-c2cnc(Nc3ccc4c(c3)C(C)(C)OC4=O)nc2N[C@H](CO)c2ccccc2)n1

>  <Name>  (363) 
nan

>  <Pocket>  (363) 
nan

>  <ATP_Site>  (363) 
nan

>  <Peripheral>  (363) 
nan

>  <Num_H_Atoms_ProtBoundConf>  (363) 
nan

>  <Num_Resolved_Atoms>  (363) 
nan

>  <Num_Not_Resolved_Atoms>  (363) 
nan

$$$$
CHEMBL4758151
     RDKit          3D

  0  0  0  0  0  0  0  0  0  0999 V3000
M  V30 BEGIN CTAB
M  V30 COUNTS 53 56 0 0 0
M  V30 BEGIN ATOM
M  V30 1 C 4.703680 -2.852915 5.559242 0
M  V30 2 C 5.587278 -2.076277 4.607838 0
M  V30 3 N 4.817805 -1.154141 3.805067 0
M  V30 4 C 4.046592 -0.111785 4.382173 0
M  V30 5 O 3.986693 0.074086 5.642994 0
M  V30 6 C 3.272847 0.812956 3.563042 0
M  V30 7 C 2.540218 1.810918 4.191053 0
M  V30 8 C 1.778821 2.731093 3.501802 0
M  V30 9 C 1.759347 2.636664 2.131925 0
M  V30 10 C 2.457928 1.675904 1.430505 0
M  V30 11 C 2.484566 1.509176 -0.037133 0
M  V30 12 N 1.467174 0.606062 -0.525874 0
M  V30 13 C 0.081249 0.853620 -0.686074 0
M  V30 14 O -0.269132 2.032919 -0.344876 0
M  V30 15 C -0.877385 -0.121680 -1.188709 0
M  V30 16 C -0.573615 -1.408847 -1.581835 0
M  V30 17 C -1.548153 -2.268768 -2.047263 0
M  V30 18 C -2.829281 -1.809687 -2.108938 0
M  V30 19 C -3.203205 -0.538255 -1.733212 0
M  V30 20 C -2.210925 0.297756 -1.273016 0
M  V30 21 C -4.572592 0.012404 -1.778392 0
M  V30 22 C -5.022848 0.374279 -0.361935 0
M  V30 23 O -5.538353 -0.900600 -2.259274 0
M  V30 24 C -5.187052 -2.186854 -2.643830 0
M  V30 25 C -6.183145 -3.037143 -3.108767 0
M  V30 26 N -5.890755 -4.301599 -3.496008 0
M  V30 27 C -4.631645 -4.784366 -3.447015 0
M  V30 28 C -3.613420 -3.953860 -2.985095 0
M  V30 29 C -3.896331 -2.672604 -2.590447 0
M  V30 30 C 3.198314 0.790415 2.205234 0
M  V30 31 H 5.303209 -3.314317 6.365752 0
M  V30 32 H 4.235882 -3.723726 5.017700 0
M  V30 33 H 3.956330 -2.218530 6.034728 0
M  V30 34 H 6.264850 -1.446144 5.257102 0
M  V30 35 H 6.213897 -2.746402 4.020794 0
M  V30 36 H 4.863320 -1.300469 2.773713 0
M  V30 37 H 2.525867 1.923202 5.269456 0
M  V30 38 H 1.212890 3.504427 4.015125 0
M  V30 39 H 1.181823 3.335044 1.569533 0
M  V30 40 H 3.475022 1.138989 -0.321333 0
M  V30 41 H 2.392047 2.514696 -0.501141 0
M  V30 42 H 1.774203 -0.372403 -0.805889 0
M  V30 43 H 0.447320 -1.723457 -1.514861 0
M  V30 44 H -1.216000 -3.233365 -2.323990 0
M  V30 45 H -2.460311 1.318828 -0.962641 0
M  V30 46 H -4.663776 0.909766 -2.449657 0
M  V30 47 H -6.102956 0.146923 -0.205025 0
M  V30 48 H -4.832259 1.419126 -0.099281 0
M  V30 49 H -4.488480 -0.325419 0.328306 0
M  V30 50 H -7.211297 -2.643891 -3.148925 0
M  V30 51 H -4.530950 -5.821233 -3.788094 0
M  V30 52 H -2.652315 -4.413512 -2.979190 0
M  V30 53 H 3.763076 0.019012 1.692242 0
M  V30 END ATOM
M  V30 BEGIN BOND
M  V30 1 1 1 2
M  V30 2 1 2 3
M  V30 3 1 3 4
M  V30 4 2 4 5
M  V30 5 1 4 6
M  V30 6 2 6 7
M  V30 7 1 7 8
M  V30 8 2 8 9
M  V30 9 1 9 10
M  V30 10 1 10 11
M  V30 11 1 11 12
M  V30 12 1 12 13
M  V30 13 2 13 14
M  V30 14 1 13 15
M  V30 15 2 15 16
M  V30 16 1 16 17
M  V30 17 2 17 18
M  V30 18 1 18 19
M  V30 19 2 19 20
M  V30 20 1 19 21
M  V30 21 1 21 22
M  V30 22 1 21 23
M  V30 23 1 23 24
M  V30 24 2 24 25
M  V30 25 1 25 26
M  V30 26 2 26 27
M  V30 27 1 27 28
M  V30 28 2 28 29
M  V30 29 2 10 30
M  V30 30 1 30 6
M  V30 31 1 20 15
M  V30 32 1 29 24
M  V30 33 1 29 18
M  V30 34 1 1 31
M  V30 35 1 1 32
M  V30 36 1 1 33
M  V30 37 1 2 34
M  V30 38 1 2 35
M  V30 39 1 3 36
M  V30 40 1 7 37
M  V30 41 1 8 38
M  V30 42 1 9 39
M  V30 43 1 11 40
M  V30 44 1 11 41
M  V30 45 1 12 42
M  V30 46 1 16 43
M  V30 47 1 17 44
M  V30 48 1 20 45
M  V30 49 1 21 46
M  V30 50 1 22 47
M  V30 51 1 22 48
M  V30 52 1 22 49
M  V30 53 1 25 50
M  V30 54 1 27 51
M  V30 55 1 28 52
M  V30 56 1 30 53
M  V30 END BOND
M  V30 END CTAB
M  END
>  <Dataset>  (364) 
ChEMBL_Kinases

>  <Ligand_Instance>  (364) 
nan

>  <PDB_ID>  (364) 
nan

>  <Standardized_SMILES>  (364) 
CCNC(=O)c1cccc(CNC(=O)c2ccc3c(c2)C(C)Oc2cnccc2-3)c1

>  <Name>  (364) 
nan

>  <Pocket>  (364) 
nan

>  <ATP_Site>  (364) 
nan

>  <Peripheral>  (364) 
nan

>  <Num_H_Atoms_ProtBoundConf>  (364) 
nan

>  <Num_Resolved_Atoms>  (364) 
nan

>  <Num_Not_Resolved_Atoms>  (364) 
nan

$$$$
CHEMBL189617
     RDKit          3D

  0  0  0  0  0  0  0  0  0  0999 V3000
M  V30 BEGIN CTAB
M  V30 COUNTS 56 61 0 0 0
M  V30 BEGIN ATOM
M  V30 1 C 2.542474 -3.199877 5.426038 0
M  V30 2 C 2.342500 -2.655733 4.049229 0
M  V30 3 C 2.269510 -1.283919 3.847784 0
M  V30 4 C 2.083736 -0.843284 2.550015 0
M  V30 5 C 1.974791 -1.736220 1.492683 0
M  V30 6 C 1.788706 -1.600108 0.113623 0
M  V30 7 C 1.665151 -0.282113 -0.498604 0
M  V30 8 C 2.599486 0.123679 -1.408034 0
M  V30 9 C 2.470513 1.370526 -1.977562 0
M  V30 10 N 1.438439 2.141148 -1.623168 0
M  V30 11 C 0.510211 1.790755 -0.747834 0
M  V30 12 N -0.550557 2.680405 -0.434774 0
M  V30 13 C -1.630477 2.498922 0.460961 0
M  V30 14 C -2.588294 3.480201 0.653732 0
M  V30 15 C -3.645710 3.331224 1.515251 0
M  V30 16 C -3.816969 2.185419 2.245056 0
M  V30 17 C -2.896772 1.185603 2.089817 0
M  V30 18 C -1.850555 1.373038 1.216488 0
M  V30 19 O -3.089953 0.037466 2.836859 0
M  V30 20 C -4.353351 -0.348658 3.341255 0
M  V30 21 C -5.219870 0.814812 3.750196 0
M  V30 22 O -4.876641 2.029396 3.111844 0
M  V30 23 N 0.685516 0.589525 -0.237147 0
M  V30 24 C 1.764606 -2.895048 -0.401755 0
M  V30 25 C 1.583483 -3.090064 -1.819208 0
M  V30 26 C 2.483584 -3.686647 -2.669236 0
M  V30 27 C 2.259644 -3.849609 -4.024684 0
M  V30 28 C 1.069793 -3.390695 -4.560244 0
M  V30 29 C 0.135726 -2.785195 -3.747131 0
M  V30 30 C -1.115292 -2.317986 -4.384660 0
M  V30 31 F -1.698440 -3.393261 -5.064235 0
M  V30 32 F -2.035502 -1.852075 -3.481015 0
M  V30 33 F -0.849453 -1.318276 -5.308118 0
M  V30 34 C 0.399372 -2.639579 -2.383848 0
M  V30 35 N 1.929802 -3.755131 0.631829 0
M  V30 36 N 2.055592 -3.073451 1.762316 0
M  V30 37 N 2.235473 -3.516513 3.014768 0
M  V30 38 H 3.055936 -2.456048 6.055989 0
M  V30 39 H 3.100887 -4.159825 5.406888 0
M  V30 40 H 1.578272 -3.434193 5.934581 0
M  V30 41 H 2.353058 -0.581303 4.663005 0
M  V30 42 H 2.021976 0.226567 2.355952 0
M  V30 43 H 3.410733 -0.543671 -1.653823 0
M  V30 44 H 3.201552 1.725231 -2.708318 0
M  V30 45 H -0.547538 3.612423 -0.932003 0
M  V30 46 H -2.498358 4.416325 0.094677 0
M  V30 47 H -4.352022 4.150636 1.606705 0
M  V30 48 H -1.173886 0.535258 1.156205 0
M  V30 49 H -4.232624 -1.057344 4.185231 0
M  V30 50 H -4.879720 -0.910346 2.533405 0
M  V30 51 H -5.071395 0.979621 4.849547 0
M  V30 52 H -6.287671 0.600661 3.619814 0
M  V30 53 H 3.409808 -4.043419 -2.250835 0
M  V30 54 H 2.965828 -4.315401 -4.679474 0
M  V30 55 H 0.882029 -3.511175 -5.616668 0
M  V30 56 H -0.383633 -2.158543 -1.836524 0
M  V30 END ATOM
M  V30 BEGIN BOND
M  V30 1 1 1 2
M  V30 2 1 2 3
M  V30 3 2 3 4
M  V30 4 1 4 5
M  V30 5 2 5 6
M  V30 6 1 6 7
M  V30 7 2 7 8
M  V30 8 1 8 9
M  V30 9 2 9 10
M  V30 10 1 10 11
M  V30 11 1 11 12
M  V30 12 1 12 13
M  V30 13 2 13 14
M  V30 14 1 14 15
M  V30 15 2 15 16
M  V30 16 1 16 17
M  V30 17 2 17 18
M  V30 18 1 17 19
M  V30 19 1 19 20
M  V30 20 1 20 21
M  V30 21 1 21 22
M  V30 22 2 11 23
M  V30 23 1 6 24
M  V30 24 1 24 25
M  V30 25 2 25 26
M  V30 26 1 26 27
M  V30 27 2 27 28
M  V30 28 1 28 29
M  V30 29 1 29 30
M  V30 30 1 30 31
M  V30 31 1 30 32
M  V30 32 1 30 33
M  V30 33 2 29 34
M  V30 34 2 24 35
M  V30 35 1 35 36
M  V30 36 1 36 37
M  V30 37 2 37 2
M  V30 38 1 36 5
M  V30 39 1 23 7
M  V30 40 1 34 25
M  V30 41 1 18 13
M  V30 42 1 22 16
M  V30 43 1 1 38
M  V30 44 1 1 39
M  V30 45 1 1 40
M  V30 46 1 3 41
M  V30 47 1 4 42
M  V30 48 1 8 43
M  V30 49 1 9 44
M  V30 50 1 12 45
M  V30 51 1 14 46
M  V30 52 1 15 47
M  V30 53 1 18 48
M  V30 54 1 20 49
M  V30 55 1 20 50
M  V30 56 1 21 51
M  V30 57 1 21 52
M  V30 58 1 26 53
M  V30 59 1 27 54
M  V30 60 1 28 55
M  V30 61 1 34 56
M  V30 END BOND
M  V30 END CTAB
M  END
>  <Dataset>  (365) 
ChEMBL_Kinases

>  <Ligand_Instance>  (365) 
nan

>  <PDB_ID>  (365) 
nan

>  <Standardized_SMILES>  (365) 
Cc1ccc2c(-c3ccnc(Nc4ccc5c(c4)OCCO5)n3)c(-c3cccc(C(F)(F)F)c3)nn2n1

>  <Name>  (365) 
nan

>  <Pocket>  (365) 
nan

>  <ATP_Site>  (365) 
nan

>  <Peripheral>  (365) 
nan

>  <Num_H_Atoms_ProtBoundConf>  (365) 
nan

>  <Num_Resolved_Atoms>  (365) 
nan

>  <Num_Not_Resolved_Atoms>  (365) 
nan

$$$$
CHEMBL1894742
     RDKit          3D

  0  0  0  0  0  0  0  0  0  0999 V3000
M  V30 BEGIN CTAB
M  V30 COUNTS 37 40 0 0 0
M  V30 BEGIN ATOM
M  V30 1 C 1.419393 -2.210783 3.505805 0
M  V30 2 C 0.399145 -2.829625 2.791223 0
M  V30 3 N 0.551747 -3.131413 1.484353 0
M  V30 4 C 1.690673 -2.851362 0.809388 0
M  V30 5 C 2.723535 -2.234471 1.498389 0
M  V30 6 C 3.965297 -1.945939 0.702053 0
M  V30 7 N 3.860763 -0.625012 0.102873 0
M  V30 8 C 2.728006 -0.568652 -0.759147 0
M  V30 9 N 2.731281 -0.873321 -2.088812 0
M  V30 10 C 1.597825 -0.783558 -2.805275 0
M  V30 11 C 0.401466 -0.384417 -2.229823 0
M  V30 12 C 0.418888 -0.080965 -0.885243 0
M  V30 13 C -0.774281 0.351547 -0.160561 0
M  V30 14 C -0.655292 0.632373 1.184651 0
M  V30 15 C -1.717953 1.051649 1.979243 0
M  V30 16 C -2.975402 1.198819 1.392573 0
M  V30 17 C -4.223420 1.589471 1.880498 0
M  V30 18 N -5.035322 1.531949 0.834216 0
M  V30 19 N -4.389050 1.139269 -0.251506 0
M  V30 20 C -3.088087 0.915811 0.043964 0
M  V30 21 C -2.017322 0.501797 -0.719662 0
M  V30 22 N 1.564219 -0.177171 -0.185341 0
M  V30 23 C 2.605475 -1.906826 2.847063 0
M  V30 24 H 1.325218 -1.954675 4.562714 0
M  V30 25 H -0.531842 -3.066778 3.313459 0
M  V30 26 H 1.767842 -3.110067 -0.231848 0
M  V30 27 H 4.128080 -2.724740 -0.069171 0
M  V30 28 H 4.836660 -1.934429 1.391571 0
M  V30 29 H 4.335684 0.304625 0.087811 0
M  V30 30 H 1.629559 -1.032696 -3.864148 0
M  V30 31 H -0.506285 -0.311116 -2.797413 0
M  V30 32 H 0.297884 0.543585 1.728980 0
M  V30 33 H -1.605290 1.268092 3.036483 0
M  V30 34 H -4.326420 1.848270 2.912116 0
M  V30 35 H -4.849096 1.029418 -1.182380 0
M  V30 36 H -2.145104 0.294803 -1.750464 0
M  V30 37 H 3.459175 -1.419885 3.334338 0
M  V30 END ATOM
M  V30 BEGIN BOND
M  V30 1 2 1 2
M  V30 2 1 2 3
M  V30 3 2 3 4
M  V30 4 1 4 5
M  V30 5 1 5 6
M  V30 6 1 6 7
M  V30 7 1 7 8
M  V30 8 2 8 9
M  V30 9 1 9 10
M  V30 10 2 10 11
M  V30 11 1 11 12
M  V30 12 1 12 13
M  V30 13 2 13 14
M  V30 14 1 14 15
M  V30 15 2 15 16
M  V30 16 1 16 17
M  V30 17 2 17 18
M  V30 18 1 18 19
M  V30 19 1 19 20
M  V30 20 2 20 21
M  V30 21 2 12 22
M  V30 22 2 5 23
M  V30 23 1 23 1
M  V30 24 1 22 8
M  V30 25 1 21 13
M  V30 26 1 20 16
M  V30 27 1 1 24
M  V30 28 1 2 25
M  V30 29 1 4 26
M  V30 30 1 6 27
M  V30 31 1 6 28
M  V30 32 1 7 29
M  V30 33 1 10 30
M  V30 34 1 11 31
M  V30 35 1 14 32
M  V30 36 1 15 33
M  V30 37 1 17 34
M  V30 38 1 19 35
M  V30 39 1 21 36
M  V30 40 1 23 37
M  V30 END BOND
M  V30 END CTAB
M  END
>  <Dataset>  (366) 
ChEMBL_Kinases

>  <Ligand_Instance>  (366) 
nan

>  <PDB_ID>  (366) 
nan

>  <Standardized_SMILES>  (366) 
c1cncc(CNc2nccc(-c3ccc4cn[nH]c4c3)n2)c1

>  <Name>  (366) 
nan

>  <Pocket>  (366) 
nan

>  <ATP_Site>  (366) 
nan

>  <Peripheral>  (366) 
nan

>  <Num_H_Atoms_ProtBoundConf>  (366) 
nan

>  <Num_Resolved_Atoms>  (366) 
nan

>  <Num_Not_Resolved_Atoms>  (366) 
nan

$$$$
CHEMBL189455
     RDKit          3D

  0  0  0  0  0  0  0  0  0  0999 V3000
M  V30 BEGIN CTAB
M  V30 COUNTS 37 41 0 0 0
M  V30 BEGIN ATOM
M  V30 1 C 1.224766 -6.219849 -1.763649 0
M  V30 2 C 1.837683 -6.929090 -0.733413 0
M  V30 3 N 2.246912 -6.236502 0.344206 0
M  V30 4 N 2.090709 -4.932617 0.456982 0
M  V30 5 N 2.393180 -4.045860 1.378437 0
M  V30 6 C 2.021341 -2.824048 1.017737 0
M  V30 7 C 1.418577 -2.876503 -0.245876 0
M  V30 8 C 0.923968 -1.682372 -0.870278 0
M  V30 9 C 0.308134 -1.464403 -2.066043 0
M  V30 10 C -0.144040 -0.284351 -2.607556 0
M  V30 11 N 0.064968 0.808987 -1.816645 0
M  V30 12 C 0.666648 0.682795 -0.619728 0
M  V30 13 N 0.899266 1.805030 0.228830 0
M  V30 14 C -0.059093 2.221552 1.196613 0
M  V30 15 C -1.237479 1.510089 1.303666 0
M  V30 16 C -2.156749 1.926254 2.246328 0
M  V30 17 C -1.908632 3.017265 3.056427 0
M  V30 18 C -0.696560 3.698595 2.901658 0
M  V30 19 C 0.248744 3.319038 1.975104 0
M  V30 20 O -0.675562 4.754327 3.822479 0
M  V30 21 C -1.581748 4.386853 4.874445 0
M  V30 22 O -2.572409 3.711308 4.085224 0
M  V30 23 N 1.062611 -0.523052 -0.202416 0
M  V30 24 C 1.506535 -4.210861 -0.509664 0
M  V30 25 C 1.073098 -4.861232 -1.623211 0
M  V30 26 H 0.906013 -6.792326 -2.614052 0
M  V30 27 H 2.010257 -8.009674 -0.737690 0
M  V30 28 H 2.239909 -2.026357 1.735936 0
M  V30 29 H 0.134867 -2.309931 -2.701188 0
M  V30 30 H -0.618942 -0.248600 -3.573360 0
M  V30 31 H 1.806510 2.292751 0.093894 0
M  V30 32 H -1.483785 0.649906 0.696717 0
M  V30 33 H -3.119839 1.420440 2.400712 0
M  V30 34 H 1.187681 3.825431 1.836282 0
M  V30 35 H -1.035845 3.640570 5.489787 0
M  V30 36 H -1.990406 5.235872 5.415933 0
M  V30 37 H 0.606361 -4.385862 -2.429660 0
M  V30 END ATOM
M  V30 BEGIN BOND
M  V30 1 1 1 2
M  V30 2 2 2 3
M  V30 3 1 3 4
M  V30 4 1 4 5
M  V30 5 2 5 6
M  V30 6 1 6 7
M  V30 7 1 7 8
M  V30 8 2 8 9
M  V30 9 1 9 10
M  V30 10 2 10 11
M  V30 11 1 11 12
M  V30 12 1 12 13
M  V30 13 1 13 14
M  V30 14 2 14 15
M  V30 15 1 15 16
M  V30 16 2 16 17
M  V30 17 1 17 18
M  V30 18 2 18 19
M  V30 19 1 18 20
M  V30 20 1 20 21
M  V30 21 1 21 22
M  V30 22 2 12 23
M  V30 23 2 7 24
M  V30 24 1 24 25
M  V30 25 2 25 1
M  V30 26 1 24 4
M  V30 27 1 23 8
M  V30 28 1 19 14
M  V30 29 1 22 17
M  V30 30 1 1 26
M  V30 31 1 2 27
M  V30 32 1 6 28
M  V30 33 1 9 29
M  V30 34 1 10 30
M  V30 35 1 13 31
M  V30 36 1 15 32
M  V30 37 1 16 33
M  V30 38 1 19 34
M  V30 39 1 21 35
M  V30 40 1 21 36
M  V30 41 1 25 37
M  V30 END BOND
M  V30 END CTAB
M  END
>  <Dataset>  (367) 
ChEMBL_Kinases

>  <Ligand_Instance>  (367) 
nan

>  <PDB_ID>  (367) 
nan

>  <Standardized_SMILES>  (367) 
c1cnn2ncc(-c3ccnc(Nc4ccc5c(c4)OCO5)n3)c2c1

>  <Name>  (367) 
nan

>  <Pocket>  (367) 
nan

>  <ATP_Site>  (367) 
nan

>  <Peripheral>  (367) 
nan

>  <Num_H_Atoms_ProtBoundConf>  (367) 
nan

>  <Num_Resolved_Atoms>  (367) 
nan

>  <Num_Not_Resolved_Atoms>  (367) 
nan

$$$$
CHEMBL5086482
     RDKit          3D

  0  0  0  0  0  0  0  0  0  0999 V3000
M  V30 BEGIN CTAB
M  V30 COUNTS 65 69 0 0 0
M  V30 BEGIN ATOM
M  V30 1 C 2.565793 1.990789 5.316192 0
M  V30 2 O 1.773162 1.591249 4.274179 0
M  V30 3 C 1.928774 1.647108 2.923266 0
M  V30 4 C 1.079396 1.221341 1.877260 0
M  V30 5 C 1.676698 1.491951 0.677232 0
M  V30 6 N 2.840525 2.061121 1.114101 0
M  V30 7 N 3.024328 2.168649 2.388496 0
M  V30 8 C 4.254474 2.770618 2.958129 0
M  V30 9 C 1.710813 1.482742 -0.752894 0
M  V30 10 N 1.015404 0.528688 -1.562119 0
M  V30 11 C -0.123590 1.011981 -2.264935 0
M  V30 12 C -1.322148 0.129337 -1.995529 0
M  V30 13 C 0.036237 1.077903 -3.754492 0
M  V30 14 C 1.340286 -0.758071 -2.060137 0
M  V30 15 O 2.013127 -0.967548 -1.044102 0
M  V30 16 C 1.247751 -1.768373 -3.058698 0
M  V30 17 C 0.491186 -2.985700 -3.069336 0
M  V30 18 C 0.511707 -3.855687 -1.878409 0
M  V30 19 N -0.379974 -3.422285 -0.804654 0
M  V30 20 C -0.427136 -3.189175 0.509468 0
M  V30 21 C -1.700408 -2.768123 0.740788 0
M  V30 22 C -2.470223 -2.729288 -0.388223 0
M  V30 23 C -3.861045 -2.389551 -0.841120 0
M  V30 24 F -4.846097 -3.185862 -0.337049 0
M  V30 25 F -4.115242 -1.037871 -0.560325 0
M  V30 26 F -3.984743 -2.468564 -2.213641 0
M  V30 27 N -1.584020 -3.154765 -1.345269 0
M  V30 28 C -2.400846 -2.278249 1.880208 0
M  V30 29 C -3.466045 -2.494993 2.683797 0
M  V30 30 C -4.314746 -3.694968 2.535939 0
M  V30 31 N -3.536818 -1.479407 3.598961 0
M  V30 32 C -2.519281 -0.628898 3.375019 0
M  V30 33 N -2.027725 0.500277 3.901692 0
M  V30 34 C -0.921981 1.063036 3.395408 0
M  V30 35 C -0.177051 0.600947 2.335279 0
M  V30 36 C -0.689500 -0.543545 1.804349 0
M  V30 37 C -1.805886 -1.116147 2.310980 0
M  V30 38 H 3.381537 1.281060 5.580607 0
M  V30 39 H 2.916011 3.026216 5.172704 0
M  V30 40 H 1.891047 2.029430 6.233375 0
M  V30 41 H 5.062100 2.745115 2.172764 0
M  V30 42 H 4.058825 3.812972 3.268314 0
M  V30 43 H 4.618338 2.133521 3.772697 0
M  V30 44 H 1.408992 2.540977 -1.089066 0
M  V30 45 H 2.763452 1.450392 -1.230544 0
M  V30 46 H -0.441732 2.033124 -1.919058 0
M  V30 47 H -1.263436 -0.730489 -2.678326 0
M  V30 48 H -2.236785 0.748560 -2.251278 0
M  V30 49 H -1.396932 -0.126467 -0.928604 0
M  V30 50 H 1.077268 1.106166 -4.114404 0
M  V30 51 H -0.399475 2.041308 -4.090965 0
M  V30 52 H -0.600675 0.311963 -4.287396 0
M  V30 53 H 1.160325 -1.283721 -4.119489 0
M  V30 54 H 2.370662 -2.115046 -3.193605 0
M  V30 55 H 0.928293 -3.625095 -3.928701 0
M  V30 56 H -0.575166 -2.865968 -3.471180 0
M  V30 57 H 0.271677 -4.897779 -2.143966 0
M  V30 58 H 1.531926 -3.893442 -1.441506 0
M  V30 59 H 0.564135 -3.436834 0.810545 0
M  V30 60 H -5.341863 -3.352434 2.296741 0
M  V30 61 H -3.902717 -4.428300 1.822561 0
M  V30 62 H -4.415176 -4.254585 3.492629 0
M  V30 63 H -4.248766 -1.380288 4.336840 0
M  V30 64 H -0.576753 1.992628 3.881132 0
M  V30 65 H -0.121336 -0.891455 0.982161 0
M  V30 END ATOM
M  V30 BEGIN BOND
M  V30 1 1 1 2
M  V30 2 1 2 3
M  V30 3 2 3 4
M  V30 4 1 4 5
M  V30 5 2 5 6
M  V30 6 1 6 7
M  V30 7 1 7 8
M  V30 8 1 5 9
M  V30 9 1 9 10
M  V30 10 1 10 11
M  V30 11 1 11 12
M  V30 12 1 11 13
M  V30 13 1 10 14
M  V30 14 2 14 15
M  V30 15 1 14 16
M  V30 16 1 16 17
M  V30 17 1 17 18
M  V30 18 1 18 19
M  V30 19 1 19 20
M  V30 20 2 20 21
M  V30 21 1 21 22
M  V30 22 1 22 23
M  V30 23 1 23 24
M  V30 24 1 23 25
M  V30 25 1 23 26
M  V30 26 2 22 27
M  V30 27 1 21 28
M  V30 28 2 28 29
M  V30 29 1 29 30
M  V30 30 1 29 31
M  V30 31 1 31 32
M  V30 32 2 32 33
M  V30 33 1 33 34
M  V30 34 2 34 35
M  V30 35 1 35 36
M  V30 36 2 36 37
M  V30 37 1 7 3
M  V30 38 1 27 19
M  V30 39 1 37 28
M  V30 40 1 35 4
M  V30 41 1 37 32
M  V30 42 1 1 38
M  V30 43 1 1 39
M  V30 44 1 1 40
M  V30 45 1 8 41
M  V30 46 1 8 42
M  V30 47 1 8 43
M  V30 48 1 9 44
M  V30 49 1 9 45
M  V30 50 1 11 46
M  V30 51 1 12 47
M  V30 52 1 12 48
M  V30 53 1 12 49
M  V30 54 1 13 50
M  V30 55 1 13 51
M  V30 56 1 13 52
M  V30 57 1 16 53
M  V30 58 1 16 54
M  V30 59 1 17 55
M  V30 60 1 17 56
M  V30 61 1 18 57
M  V30 62 1 18 58
M  V30 63 1 20 59
M  V30 64 1 30 60
M  V30 65 1 30 61
M  V30 66 1 30 62
M  V30 67 1 31 63
M  V30 68 1 34 64
M  V30 69 1 36 65
M  V30 END BOND
M  V30 END CTAB
M  END
>  <Dataset>  (368) 
ChEMBL_Kinases

>  <Ligand_Instance>  (368) 
nan

>  <PDB_ID>  (368) 
nan

>  <Standardized_SMILES>  (368) 
COc1c2c(nn1C)CN(C(C)C)C(=O)CCCn1cc(c(C(F)(F)F)n1)-c1c(C)[nH]c3ncc-2cc13

>  <Name>  (368) 
nan

>  <Pocket>  (368) 
nan

>  <ATP_Site>  (368) 
nan

>  <Peripheral>  (368) 
nan

>  <Num_H_Atoms_ProtBoundConf>  (368) 
nan

>  <Num_Resolved_Atoms>  (368) 
nan

>  <Num_Not_Resolved_Atoms>  (368) 
nan

$$$$
CHEMBL189343
     RDKit          3D

  0  0  0  0  0  0  0  0  0  0999 V3000
M  V30 BEGIN CTAB
M  V30 COUNTS 47 51 0 0 0
M  V30 BEGIN ATOM
M  V30 1 F -1.028356 0.317449 6.433808 0
M  V30 2 C -0.363200 0.605574 5.298824 0
M  V30 3 C 0.528608 -0.327333 4.809249 0
M  V30 4 C 1.277485 -0.168970 3.662803 0
M  V30 5 C 1.091318 1.019983 2.988727 0
M  V30 6 C 1.745149 1.486596 1.744128 0
M  V30 7 N 3.019612 1.813207 1.629135 0
M  V30 8 N 3.310196 2.218584 0.382119 0
M  V30 9 N 4.404075 2.646438 -0.261437 0
M  V30 10 C 4.289086 2.969268 -1.561133 0
M  V30 11 C 3.148810 2.910094 -2.328691 0
M  V30 12 C 2.030528 2.469093 -1.655233 0
M  V30 13 C 2.132791 2.129028 -0.302563 0
M  V30 14 C 1.132998 1.672904 0.525010 0
M  V30 15 C -0.282886 1.381980 0.331198 0
M  V30 16 C -1.293491 2.296764 0.208956 0
M  V30 17 C -2.600887 1.910254 0.024679 0
M  V30 18 N -2.850877 0.614775 -0.031819 0
M  V30 19 C -1.899029 -0.355178 0.080976 0
M  V30 20 N -2.285064 -1.718841 -0.012233 0
M  V30 21 C -1.462013 -2.865297 0.087599 0
M  V30 22 C -0.158690 -2.833072 0.514936 0
M  V30 23 C 0.562056 -4.000085 0.556041 0
M  V30 24 C 0.028100 -5.232278 0.179752 0
M  V30 25 C -1.294056 -5.280521 -0.256522 0
M  V30 26 C -1.957481 -6.555870 -0.687216 0
M  V30 27 F -1.292604 -7.001943 -1.820063 0
M  V30 28 F -1.775036 -7.499737 0.300464 0
M  V30 29 F -3.262620 -6.294057 -0.961879 0
M  V30 30 C -1.977072 -4.095756 -0.281978 0
M  V30 31 N -0.646941 0.093300 0.259381 0
M  V30 32 C 0.212776 1.990568 3.430028 0
M  V30 33 C -0.520323 1.779155 4.595734 0
M  V30 34 H 0.704212 -1.285316 5.314830 0
M  V30 35 H 1.985290 -0.806543 3.193347 0
M  V30 36 H 5.224976 3.307948 -2.011080 0
M  V30 37 H 3.119689 3.182087 -3.366507 0
M  V30 38 H 1.082103 2.386725 -2.171590 0
M  V30 39 H -1.013571 3.343738 0.267353 0
M  V30 40 H -3.406927 2.616571 -0.074892 0
M  V30 41 H -3.321189 -1.894110 -0.171900 0
M  V30 42 H 0.323388 -1.940685 0.820826 0
M  V30 43 H 1.603214 -4.078237 0.880772 0
M  V30 44 H 0.568406 -6.159508 0.202941 0
M  V30 45 H -3.002362 -4.159043 -0.627256 0
M  V30 46 H -0.009079 2.945288 2.985220 0
M  V30 47 H -1.231022 2.500740 4.996751 0
M  V30 END ATOM
M  V30 BEGIN BOND
M  V30 1 1 1 2
M  V30 2 2 2 3
M  V30 3 1 3 4
M  V30 4 2 4 5
M  V30 5 1 5 6
M  V30 6 2 6 7
M  V30 7 1 7 8
M  V30 8 1 8 9
M  V30 9 2 9 10
M  V30 10 1 10 11
M  V30 11 2 11 12
M  V30 12 1 12 13
M  V30 13 2 13 14
M  V30 14 1 14 15
M  V30 15 2 15 16
M  V30 16 1 16 17
M  V30 17 2 17 18
M  V30 18 1 18 19
M  V30 19 1 19 20
M  V30 20 1 20 21
M  V30 21 2 21 22
M  V30 22 1 22 23
M  V30 23 2 23 24
M  V30 24 1 24 25
M  V30 25 1 25 26
M  V30 26 1 26 27
M  V30 27 1 26 28
M  V30 28 1 26 29
M  V30 29 2 25 30
M  V30 30 2 19 31
M  V30 31 1 5 32
M  V30 32 2 32 33
M  V30 33 1 33 2
M  V30 34 1 14 6
M  V30 35 1 31 15
M  V30 36 1 13 8
M  V30 37 1 30 21
M  V30 38 1 3 34
M  V30 39 1 4 35
M  V30 40 1 10 36
M  V30 41 1 11 37
M  V30 42 1 12 38
M  V30 43 1 16 39
M  V30 44 1 17 40
M  V30 45 1 20 41
M  V30 46 1 22 42
M  V30 47 1 23 43
M  V30 48 1 24 44
M  V30 49 1 30 45
M  V30 50 1 32 46
M  V30 51 1 33 47
M  V30 END BOND
M  V30 END CTAB
M  END
>  <Dataset>  (369) 
ChEMBL_Kinases

>  <Ligand_Instance>  (369) 
nan

>  <PDB_ID>  (369) 
nan

>  <Standardized_SMILES>  (369) 
Fc1ccc(-c2nn3ncccc3c2-c2ccnc(Nc3cccc(C(F)(F)F)c3)n2)cc1

>  <Name>  (369) 
nan

>  <Pocket>  (369) 
nan

>  <ATP_Site>  (369) 
nan

>  <Peripheral>  (369) 
nan

>  <Num_H_Atoms_ProtBoundConf>  (369) 
nan

>  <Num_Resolved_Atoms>  (369) 
nan

>  <Num_Not_Resolved_Atoms>  (369) 
nan

$$$$
CHEMBL4758261
     RDKit          3D

  0  0  0  0  0  0  0  0  0  0999 V3000
M  V30 BEGIN CTAB
M  V30 COUNTS 56 60 0 0 0
M  V30 BEGIN ATOM
M  V30 1 O 2.739674 -4.166286 -3.794974 0
M  V30 2 C 1.909922 -4.938693 -3.248774 0
M  V30 3 N 2.112858 -5.135419 -1.856224 0
M  V30 4 C 3.091795 -4.610658 -0.970545 0
M  V30 5 C 4.324394 -5.152563 -0.672153 0
M  V30 6 N 4.962468 -4.362439 0.209272 0
M  V30 7 N 4.154703 -3.333902 0.471039 0
M  V30 8 C 3.013732 -3.452528 -0.226218 0
M  V30 9 C 1.915109 -2.493368 -0.164499 0
M  V30 10 N 1.850179 -1.362058 0.567536 0
M  V30 11 C 0.713956 -0.705501 0.406211 0
M  V30 12 C 0.281553 0.546965 1.023964 0
M  V30 13 C -0.959987 1.087384 0.727597 0
M  V30 14 C -1.348570 2.278322 1.326574 0
M  V30 15 C -0.519147 2.956230 2.227905 0
M  V30 16 C -1.015353 4.211155 2.812592 0
M  V30 17 N -1.731861 4.138962 4.003537 0
M  V30 18 C -2.924936 3.403590 4.086503 0
M  V30 19 C -4.058208 4.399853 3.926473 0
M  V30 20 O -4.040177 5.244600 5.015559 0
M  V30 21 C -2.893241 5.223572 5.765299 0
M  V30 22 C -1.612073 5.157985 4.959291 0
M  V30 23 C 0.723461 2.392117 2.508821 0
M  V30 24 C 1.123301 1.196322 1.912543 0
M  V30 25 C -0.029640 -1.444159 -0.491095 0
M  V30 26 N 0.734144 -2.505530 -0.802816 0
M  V30 27 C 0.804334 -5.617403 -3.907674 0
M  V30 28 C -0.118448 -6.468289 -3.336030 0
M  V30 29 C -1.120124 -7.043599 -4.088403 0
M  V30 30 C -1.237929 -6.789037 -5.446868 0
M  V30 31 C -0.317763 -5.942423 -6.009608 0
M  V30 32 Cl -0.504214 -5.645612 -7.740962 0
M  V30 33 C 0.702860 -5.349954 -5.267692 0
M  V30 34 H 1.521548 -5.741271 -1.248139 0
M  V30 35 H 4.696081 -6.074735 -1.097451 0
M  V30 36 H 5.928635 -4.557696 0.599004 0
M  V30 37 H -1.607134 0.567306 0.030272 0
M  V30 38 H -2.327679 2.624168 1.038535 0
M  V30 39 H -1.644712 4.709931 2.031554 0
M  V30 40 H -0.158961 4.903068 2.954960 0
M  V30 41 H -3.021128 2.995592 5.120914 0
M  V30 42 H -3.012492 2.545932 3.422601 0
M  V30 43 H -3.898044 5.046494 3.016123 0
M  V30 44 H -5.034761 3.892679 3.789580 0
M  V30 45 H -2.843225 6.181603 6.356208 0
M  V30 46 H -2.889758 4.428922 6.566324 0
M  V30 47 H -1.352739 6.150366 4.561184 0
M  V30 48 H -0.813737 4.841849 5.690921 0
M  V30 49 H 1.364218 2.914979 3.204638 0
M  V30 50 H 2.094652 0.784283 2.151650 0
M  V30 51 H -1.018928 -1.192360 -0.848397 0
M  V30 52 H 0.400411 -3.230867 -1.471526 0
M  V30 53 H 0.011576 -6.634784 -2.287405 0
M  V30 54 H -1.806785 -7.704543 -3.553376 0
M  V30 55 H -2.043561 -7.266094 -5.995802 0
M  V30 56 H 1.353260 -4.708321 -5.835708 0
M  V30 END ATOM
M  V30 BEGIN BOND
M  V30 1 2 1 2
M  V30 2 1 2 3
M  V30 3 1 3 4
M  V30 4 2 4 5
M  V30 5 1 5 6
M  V30 6 1 6 7
M  V30 7 2 7 8
M  V30 8 1 8 9
M  V30 9 2 9 10
M  V30 10 1 10 11
M  V30 11 1 11 12
M  V30 12 2 12 13
M  V30 13 1 13 14
M  V30 14 2 14 15
M  V30 15 1 15 16
M  V30 16 1 16 17
M  V30 17 1 17 18
M  V30 18 1 18 19
M  V30 19 1 19 20
M  V30 20 1 20 21
M  V30 21 1 21 22
M  V30 22 1 15 23
M  V30 23 2 23 24
M  V30 24 2 11 25
M  V30 25 1 25 26
M  V30 26 1 2 27
M  V30 27 2 27 28
M  V30 28 1 28 29
M  V30 29 2 29 30
M  V30 30 1 30 31
M  V30 31 1 31 32
M  V30 32 2 31 33
M  V30 33 1 8 4
M  V30 34 1 26 9
M  V30 35 1 33 27
M  V30 36 1 24 12
M  V30 37 1 22 17
M  V30 38 1 3 34
M  V30 39 1 5 35
M  V30 40 1 6 36
M  V30 41 1 13 37
M  V30 42 1 14 38
M  V30 43 1 16 39
M  V30 44 1 16 40
M  V30 45 1 18 41
M  V30 46 1 18 42
M  V30 47 1 19 43
M  V30 48 1 19 44
M  V30 49 1 21 45
M  V30 50 1 21 46
M  V30 51 1 22 47
M  V30 52 1 22 48
M  V30 53 1 23 49
M  V30 54 1 24 50
M  V30 55 1 25 51
M  V30 56 1 26 52
M  V30 57 1 28 53
M  V30 58 1 29 54
M  V30 59 1 30 55
M  V30 60 1 33 56
M  V30 END BOND
M  V30 END CTAB
M  END
>  <Dataset>  (370) 
ChEMBL_Kinases

>  <Ligand_Instance>  (370) 
nan

>  <PDB_ID>  (370) 
nan

>  <Standardized_SMILES>  (370) 
O=C(Nc1c[nH]nc1-c1nc(-c2ccc(CN3CCOCC3)cc2)c[nH]1)c1cccc(Cl)c1

>  <Name>  (370) 
nan

>  <Pocket>  (370) 
nan

>  <ATP_Site>  (370) 
nan

>  <Peripheral>  (370) 
nan

>  <Num_H_Atoms_ProtBoundConf>  (370) 
nan

>  <Num_Resolved_Atoms>  (370) 
nan

>  <Num_Not_Resolved_Atoms>  (370) 
nan

$$$$
CHEMBL4758308
     RDKit          3D

  0  0  0  0  0  0  0  0  0  0999 V3000
M  V30 BEGIN CTAB
M  V30 COUNTS 50 55 0 0 0
M  V30 BEGIN ATOM
M  V30 1 O 0.874401 -1.419446 -3.661556 0
M  V30 2 C 0.585299 -2.399876 -2.929796 0
M  V30 3 N 1.424173 -2.531199 -1.794076 0
M  V30 4 C 2.492606 -1.616591 -1.531926 0
M  V30 5 C 3.814148 -1.723905 -1.969162 0
M  V30 6 N 4.688674 -0.761810 -1.622719 0
M  V30 7 C 4.334169 0.297046 -0.871480 0
M  V30 8 C 3.026405 0.469055 -0.398265 0
M  V30 9 C 2.630451 1.616433 0.419407 0
M  V30 10 C 3.231700 2.867732 0.261387 0
M  V30 11 N 2.810746 3.871104 1.053304 0
M  V30 12 C 1.844458 3.701089 1.974749 0
M  V30 13 N 1.247302 4.503336 2.873251 0
M  V30 14 N 0.340225 3.828253 3.551558 0
M  V30 15 C 0.270776 2.547331 3.157766 0
M  V30 16 C -0.628960 1.566157 3.718119 0
M  V30 17 C -0.909381 0.242771 3.524381 0
M  V30 18 C -1.890293 -0.232442 4.351313 0
M  V30 19 C -2.473403 -1.477597 4.494434 0
M  V30 20 C -3.460892 -1.659614 5.434605 0
M  V30 21 C -3.775223 -0.527705 6.164776 0
M  V30 22 N -3.213786 0.679957 6.030138 0
M  V30 23 C -2.247225 0.860230 5.110625 0
M  V30 24 N -1.486211 1.888164 4.707907 0
M  V30 25 C 1.219408 2.488385 2.170984 0
M  V30 26 C 1.642308 1.458819 1.367542 0
M  V30 27 C 2.141236 -0.520448 -0.758633 0
M  V30 28 C -0.509825 -3.329512 -3.207019 0
M  V30 29 C -0.836785 -4.406722 -2.409537 0
M  V30 30 C -1.879242 -5.261656 -2.707051 0
M  V30 31 C -2.603281 -5.000644 -3.854784 0
M  V30 32 C -2.287833 -3.928155 -4.660725 0
M  V30 33 C -1.245447 -3.071829 -4.364853 0
M  V30 34 H 1.282635 -3.307868 -1.111172 0
M  V30 35 H 4.018814 -2.601324 -2.566718 0
M  V30 36 H 5.064261 1.056162 -0.609428 0
M  V30 37 H 3.995089 3.016624 -0.461465 0
M  V30 38 H 1.436145 5.510955 3.046352 0
M  V30 39 H -0.418710 -0.379616 2.798926 0
M  V30 40 H -2.143035 -2.291364 3.863222 0
M  V30 41 H -3.943868 -2.605008 5.584386 0
M  V30 42 H -4.558225 -0.635165 6.923592 0
M  V30 43 H -1.640589 2.817041 5.201503 0
M  V30 44 H 1.195572 0.494645 1.472303 0
M  V30 45 H 1.119682 -0.373219 -0.381148 0
M  V30 46 H -0.253331 -4.583578 -1.521402 0
M  V30 47 H -2.080239 -6.094129 -2.029580 0
M  V30 48 H -3.428440 -5.658584 -4.110674 0
M  V30 49 H -2.903855 -3.791223 -5.543600 0
M  V30 50 H -1.011081 -2.232499 -5.010497 0
M  V30 END ATOM
M  V30 BEGIN BOND
M  V30 1 2 1 2
M  V30 2 1 2 3
M  V30 3 1 3 4
M  V30 4 2 4 5
M  V30 5 1 5 6
M  V30 6 2 6 7
M  V30 7 1 7 8
M  V30 8 1 8 9
M  V30 9 2 9 10
M  V30 10 1 10 11
M  V30 11 2 11 12
M  V30 12 1 12 13
M  V30 13 1 13 14
M  V30 14 2 14 15
M  V30 15 1 15 16
M  V30 16 2 16 17
M  V30 17 1 17 18
M  V30 18 2 18 19
M  V30 19 1 19 20
M  V30 20 2 20 21
M  V30 21 1 21 22
M  V30 22 2 22 23
M  V30 23 1 23 24
M  V30 24 1 15 25
M  V30 25 2 25 26
M  V30 26 2 8 27
M  V30 27 1 2 28
M  V30 28 2 28 29
M  V30 29 1 29 30
M  V30 30 2 30 31
M  V30 31 1 31 32
M  V30 32 2 32 33
M  V30 33 1 27 4
M  V30 34 1 33 28
M  V30 35 1 26 9
M  V30 36 1 25 12
M  V30 37 1 24 16
M  V30 38 1 23 18
M  V30 39 1 3 34
M  V30 40 1 5 35
M  V30 41 1 7 36
M  V30 42 1 10 37
M  V30 43 1 13 38
M  V30 44 1 17 39
M  V30 45 1 19 40
M  V30 46 1 20 41
M  V30 47 1 21 42
M  V30 48 1 24 43
M  V30 49 1 26 44
M  V30 50 1 27 45
M  V30 51 1 29 46
M  V30 52 1 30 47
M  V30 53 1 31 48
M  V30 54 1 32 49
M  V30 55 1 33 50
M  V30 END BOND
M  V30 END CTAB
M  END
>  <Dataset>  (371) 
ChEMBL_Kinases

>  <Ligand_Instance>  (371) 
nan

>  <PDB_ID>  (371) 
nan

>  <Standardized_SMILES>  (371) 
O=C(Nc1cncc(-c2cnc3[nH]nc(-c4cc5cccnc5[nH]4)c3c2)c1)c1ccccc1

>  <Name>  (371) 
nan

>  <Pocket>  (371) 
nan

>  <ATP_Site>  (371) 
nan

>  <Peripheral>  (371) 
nan

>  <Num_H_Atoms_ProtBoundConf>  (371) 
nan

>  <Num_Resolved_Atoms>  (371) 
nan

>  <Num_Not_Resolved_Atoms>  (371) 
nan

$$$$
CHEMBL189235
     RDKit          3D

  0  0  0  0  0  0  0  0  0  0999 V3000
M  V30 BEGIN CTAB
M  V30 COUNTS 41 44 0 0 0
M  V30 BEGIN ATOM
M  V30 1 C -1.866674 -5.141477 5.091964 0
M  V30 2 O -1.898425 -3.972577 4.290338 0
M  V30 3 C -0.853224 -3.581029 3.454939 0
M  V30 4 C -1.034330 -2.410401 2.732581 0
M  V30 5 C 0.021164 -2.058482 1.919104 0
M  V30 6 C 1.184195 -2.783010 1.802316 0
M  V30 7 C 2.311376 -2.564618 1.039986 0
M  V30 8 C 2.656656 -1.509336 0.104482 0
M  V30 9 C 3.870127 -1.659846 -0.582155 0
M  V30 10 C 4.304345 -0.744161 -1.506691 0
M  V30 11 N 3.524114 0.316171 -1.739603 0
M  V30 12 C 2.349137 0.503678 -1.104345 0
M  V30 13 N 1.573661 1.645762 -1.430849 0
M  V30 14 C 0.383646 2.129908 -0.829067 0
M  V30 15 C -0.070054 1.744810 0.415465 0
M  V30 16 C -1.229336 2.167546 1.025702 0
M  V30 17 C -2.008846 3.066574 0.315216 0
M  V30 18 C -1.595711 3.477039 -0.924593 0
M  V30 19 C -2.515270 4.435338 -1.591940 0
M  V30 20 F -1.931576 4.866007 -2.751603 0
M  V30 21 F -3.730328 3.835399 -1.888648 0
M  V30 22 F -2.754369 5.500197 -0.725014 0
M  V30 23 C -0.425080 3.017420 -1.481454 0
M  V30 24 N 1.961750 -0.416808 -0.206501 0
M  V30 25 C 3.103730 -3.652404 1.372529 0
M  V30 26 N 2.439110 -4.407660 2.261387 0
M  V30 27 N 1.255042 -3.897247 2.544338 0
M  V30 28 N 0.281583 -4.293694 3.344204 0
M  V30 29 H -2.095113 -4.892106 6.141354 0
M  V30 30 H -0.831703 -5.584793 5.059806 0
M  V30 31 H -2.583429 -5.875313 4.657413 0
M  V30 32 H -1.925582 -1.793795 2.779836 0
M  V30 33 H -0.092679 -1.163505 1.343124 0
M  V30 34 H 4.564444 -2.504668 -0.444209 0
M  V30 35 H 5.237758 -0.853237 -2.038889 0
M  V30 36 H 1.923591 2.238721 -2.243849 0
M  V30 37 H 0.542345 1.055665 0.970401 0
M  V30 38 H -1.485468 1.788597 2.021277 0
M  V30 39 H -2.925907 3.394819 0.808787 0
M  V30 40 H -0.172499 3.398544 -2.475760 0
M  V30 41 H 4.090666 -3.918079 1.023704 0
M  V30 END ATOM
M  V30 BEGIN BOND
M  V30 1 1 1 2
M  V30 2 1 2 3
M  V30 3 1 3 4
M  V30 4 2 4 5
M  V30 5 1 5 6
M  V30 6 2 6 7
M  V30 7 1 7 8
M  V30 8 2 8 9
M  V30 9 1 9 10
M  V30 10 2 10 11
M  V30 11 1 11 12
M  V30 12 1 12 13
M  V30 13 1 13 14
M  V30 14 2 14 15
M  V30 15 1 15 16
M  V30 16 2 16 17
M  V30 17 1 17 18
M  V30 18 1 18 19
M  V30 19 1 19 20
M  V30 20 1 19 21
M  V30 21 1 19 22
M  V30 22 2 18 23
M  V30 23 2 12 24
M  V30 24 1 7 25
M  V30 25 2 25 26
M  V30 26 1 26 27
M  V30 27 1 27 28
M  V30 28 2 28 3
M  V30 29 1 27 6
M  V30 30 1 24 8
M  V30 31 1 23 14
M  V30 32 1 1 29
M  V30 33 1 1 30
M  V30 34 1 1 31
M  V30 35 1 4 32
M  V30 36 1 5 33
M  V30 37 1 9 34
M  V30 38 1 10 35
M  V30 39 1 13 36
M  V30 40 1 15 37
M  V30 41 1 16 38
M  V30 42 1 17 39
M  V30 43 1 23 40
M  V30 44 1 25 41
M  V30 END BOND
M  V30 END CTAB
M  END
>  <Dataset>  (372) 
ChEMBL_Kinases

>  <Ligand_Instance>  (372) 
nan

>  <PDB_ID>  (372) 
nan

>  <Standardized_SMILES>  (372) 
COc1ccc2c(-c3ccnc(Nc4cccc(C(F)(F)F)c4)n3)cnn2n1

>  <Name>  (372) 
nan

>  <Pocket>  (372) 
nan

>  <ATP_Site>  (372) 
nan

>  <Peripheral>  (372) 
nan

>  <Num_H_Atoms_ProtBoundConf>  (372) 
nan

>  <Num_Resolved_Atoms>  (372) 
nan

>  <Num_Not_Resolved_Atoms>  (372) 
nan

$$$$
CHEMBL5088208
     RDKit          3D

  0  0  0  0  0  0  0  0  0  0999 V3000
M  V30 BEGIN CTAB
M  V30 COUNTS 52 56 0 0 0
M  V30 BEGIN ATOM
M  V30 1 C 3.350894 -1.460471 1.814561 0
M  V30 2 N 2.018860 -0.925957 1.912250 0
M  V30 3 C 2.067358 0.504924 1.775767 0
M  V30 4 C 2.010512 1.031135 0.398826 0
M  V30 5 N 3.250341 1.088334 -0.180041 0
M  V30 6 N 3.194737 1.557398 -1.394553 0
M  V30 7 C 4.371121 1.737156 -2.275070 0
M  V30 8 C 1.903355 1.823607 -1.648686 0
M  V30 9 C 1.547065 2.366548 -2.939884 0
M  V30 10 N 1.241431 2.804478 -3.971534 0
M  V30 11 C 1.154352 1.497772 -0.534897 0
M  V30 12 C -0.277250 1.695746 -0.611969 0
M  V30 13 C -1.073152 0.662782 -0.211727 0
M  V30 14 C -2.416238 0.703353 -0.243742 0
M  V30 15 C -3.268765 -0.298311 0.151074 0
M  V30 16 C -4.512064 0.233724 -0.075971 0
M  V30 17 N -4.360183 1.485463 -0.576567 0
M  V30 18 C -3.052963 1.831973 -0.701312 0
M  V30 19 N -2.274379 2.845875 -1.094755 0
M  V30 20 N -0.958294 2.763208 -1.044788 0
M  V30 21 C -2.645445 -1.488868 0.670979 0
M  V30 22 C -1.745441 -2.388443 0.164177 0
M  V30 23 N -1.522002 -3.268196 1.152389 0
M  V30 24 N -2.227545 -2.965800 2.228485 0
M  V30 25 C -2.965546 -1.841688 1.986445 0
M  V30 26 C -3.892312 -1.222289 3.004168 0
M  V30 27 F -3.438234 0.072247 3.190101 0
M  V30 28 F -5.192496 -1.221206 2.626417 0
M  V30 29 F -3.689183 -1.861504 4.221662 0
M  V30 30 C -0.687098 -4.434399 1.226310 0
M  V30 31 C 0.400800 -4.431893 2.239230 0
M  V30 32 C 1.532125 -3.490219 2.074381 0
M  V30 33 C 1.199064 -2.064443 2.113060 0
M  V30 34 O 0.318015 -1.223563 2.289092 0
M  V30 35 H 4.155580 -0.716303 1.651949 0
M  V30 36 H 3.461839 -2.279968 1.065768 0
M  V30 37 H 3.595042 -1.879072 2.841854 0
M  V30 38 H 1.115559 0.827848 2.336594 0
M  V30 39 H 2.842060 0.971572 2.404944 0
M  V30 40 H 4.069081 1.210789 -3.221374 0
M  V30 41 H 4.594888 2.794569 -2.445760 0
M  V30 42 H 5.218932 1.152417 -1.866428 0
M  V30 43 H -0.662353 -0.257927 0.136480 0
M  V30 44 H -5.400247 -0.332920 0.139418 0
M  V30 45 H -5.134513 2.141516 -0.848307 0
M  V30 46 H -1.307626 -2.392489 -0.817810 0
M  V30 47 H -0.277880 -4.695108 0.201848 0
M  V30 48 H -1.335106 -5.343300 1.443971 0
M  V30 49 H -0.106373 -4.333735 3.236582 0
M  V30 50 H 0.857760 -5.469649 2.203275 0
M  V30 51 H 1.937244 -3.669530 1.022538 0
M  V30 52 H 2.379012 -3.743725 2.764273 0
M  V30 END ATOM
M  V30 BEGIN BOND
M  V30 1 1 1 2
M  V30 2 1 2 3
M  V30 3 1 3 4
M  V30 4 2 4 5
M  V30 5 1 5 6
M  V30 6 1 6 7
M  V30 7 1 6 8
M  V30 8 1 8 9
M  V30 9 3 9 10
M  V30 10 2 8 11
M  V30 11 1 11 12
M  V30 12 2 12 13
M  V30 13 1 13 14
M  V30 14 1 14 15
M  V30 15 2 15 16
M  V30 16 1 16 17
M  V30 17 1 17 18
M  V30 18 1 18 19
M  V30 19 2 19 20
M  V30 20 1 15 21
M  V30 21 2 21 22
M  V30 22 1 22 23
M  V30 23 1 23 24
M  V30 24 2 24 25
M  V30 25 1 25 26
M  V30 26 1 26 27
M  V30 27 1 26 28
M  V30 28 1 26 29
M  V30 29 1 23 30
M  V30 30 1 30 31
M  V30 31 1 31 32
M  V30 32 1 32 33
M  V30 33 2 33 34
M  V30 34 1 33 2
M  V30 35 1 11 4
M  V30 36 1 20 12
M  V30 37 1 25 21
M  V30 38 2 18 14
M  V30 39 1 1 35
M  V30 40 1 1 36
M  V30 41 1 1 37
M  V30 42 1 3 38
M  V30 43 1 3 39
M  V30 44 1 7 40
M  V30 45 1 7 41
M  V30 46 1 7 42
M  V30 47 1 13 43
M  V30 48 1 16 44
M  V30 49 1 17 45
M  V30 50 1 22 46
M  V30 51 1 30 47
M  V30 52 1 30 48
M  V30 53 1 31 49
M  V30 54 1 31 50
M  V30 55 1 32 51
M  V30 56 1 32 52
M  V30 END BOND
M  V30 END CTAB
M  END
>  <Dataset>  (373) 
ChEMBL_Kinases

>  <Ligand_Instance>  (373) 
nan

>  <PDB_ID>  (373) 
nan

>  <Standardized_SMILES>  (373) 
CN1Cc2nn(C)c(C#N)c2-c2cc3c(c[nH]c3nn2)-c2cn(nc2C(F)(F)F)CCCC1=O

>  <Name>  (373) 
nan

>  <Pocket>  (373) 
nan

>  <ATP_Site>  (373) 
nan

>  <Peripheral>  (373) 
nan

>  <Num_H_Atoms_ProtBoundConf>  (373) 
nan

>  <Num_Resolved_Atoms>  (373) 
nan

>  <Num_Not_Resolved_Atoms>  (373) 
nan

$$$$
CHEMBL508794
     RDKit          3D

  0  0  0  0  0  0  0  0  0  0999 V3000
M  V30 BEGIN CTAB
M  V30 COUNTS 75 82 0 0 0
M  V30 BEGIN ATOM
M  V30 1 N 6.287688 6.421303 1.419809 0
M  V30 2 C 6.168889 5.144730 0.807778 0
M  V30 3 N 7.120118 4.296280 0.318253 0
M  V30 4 N 6.521127 3.209052 -0.162887 0
M  V30 5 C 5.194748 3.337470 0.006302 0
M  V30 6 C 4.114138 2.533292 -0.298372 0
M  V30 7 C 4.389518 1.326577 -0.907713 0
M  V30 8 C 3.359451 0.468019 -1.242708 0
M  V30 9 C 3.463303 -0.838576 -1.886867 0
M  V30 10 C 4.000826 -1.035415 -3.159813 0
M  V30 11 C 4.075344 -2.297850 -3.723757 0
M  V30 12 C 3.611731 -3.400546 -3.025034 0
M  V30 13 C 3.072563 -3.233510 -1.757871 0
M  V30 14 C 3.012040 -1.963074 -1.222913 0
M  V30 15 C 2.061777 0.845355 -0.954812 0
M  V30 16 C 0.818049 0.113009 -1.210522 0
M  V30 17 C 0.332158 -0.245806 -2.451382 0
M  V30 18 C -0.859733 -0.937949 -2.555299 0
M  V30 19 C -1.600756 -1.293086 -1.444047 0
M  V30 20 C -2.869821 -2.020359 -1.416733 0
M  V30 21 N -2.830062 -3.416355 -1.338139 0
M  V30 22 C -4.038383 -4.146505 -1.305962 0
M  V30 23 C -4.398197 -4.754687 0.002404 0
M  V30 24 C -3.251217 -4.844185 0.972580 0
M  V30 25 N -3.284843 -3.701760 1.865854 0
M  V30 26 C -2.251769 -3.675453 2.757958 0
M  V30 27 N -2.375844 -2.576444 3.539646 0
M  V30 28 C -3.479540 -1.901937 3.153186 0
M  V30 29 C -4.080214 -0.666195 3.643176 0
M  V30 30 C -5.230847 -0.105232 3.125597 0
M  V30 31 C -5.705467 1.080673 3.681729 0
M  V30 32 C -5.009712 1.650954 4.728098 0
M  V30 33 C -3.863937 1.082740 5.235725 0
M  V30 34 N -3.432176 -0.076112 4.665293 0
M  V30 35 C -4.025530 -2.621578 2.112612 0
M  V30 36 C -1.906057 -4.991378 0.300786 0
M  V30 37 C -1.672445 -4.055094 -0.831938 0
M  V30 38 C -1.080279 -0.914132 -0.199203 0
M  V30 39 C 0.114324 -0.218533 -0.066098 0
M  V30 40 N 1.817274 2.042417 -0.352668 0
M  V30 41 C 2.808360 2.887035 -0.021274 0
M  V30 42 C 2.619822 4.110767 0.589541 0
M  V30 43 C 3.700125 4.913809 0.893739 0
M  V30 44 N 4.966869 4.538644 0.609364 0
M  V30 45 H 6.706788 6.745652 2.328583 0
M  V30 46 H 6.778669 6.238432 2.315351 0
M  V30 47 H 5.372156 0.940852 -1.174246 0
M  V30 48 H 4.338113 -0.116242 -3.631233 0
M  V30 49 H 4.513150 -2.336826 -4.722567 0
M  V30 50 H 3.709770 -4.362650 -3.547548 0
M  V30 51 H 2.723787 -4.126523 -1.251908 0
M  V30 52 H 2.579419 -1.888920 -0.224924 0
M  V30 53 H 0.913171 0.034909 -3.294220 0
M  V30 54 H -1.259591 -1.228061 -3.495736 0
M  V30 55 H -3.501782 -1.641540 -0.563995 0
M  V30 56 H -3.473080 -1.732815 -2.322816 0
M  V30 57 H -4.864209 -3.473774 -1.618675 0
M  V30 58 H -3.980037 -4.915258 -2.130918 0
M  V30 59 H -5.255163 -4.227443 0.466150 0
M  V30 60 H -4.777737 -5.785041 -0.200226 0
M  V30 61 H -3.375076 -5.740517 1.623597 0
M  V30 62 H -1.360088 -4.248412 3.047768 0
M  V30 63 H -5.723934 -0.594384 2.315595 0
M  V30 64 H -6.600048 1.529930 3.289748 0
M  V30 65 H -5.323755 2.564845 5.200189 0
M  V30 66 H -3.283440 1.498152 6.060000 0
M  V30 67 H -4.892702 -2.496528 1.482581 0
M  V30 68 H -1.861980 -6.061605 -0.041614 0
M  V30 69 H -1.149307 -4.838308 1.103779 0
M  V30 70 H -1.231978 -4.650451 -1.677841 0
M  V30 71 H -0.876500 -3.342695 -0.555586 0
M  V30 72 H -1.613775 -1.161959 0.722284 0
M  V30 73 H 0.457937 0.043518 0.940304 0
M  V30 74 H 1.584265 4.363843 0.796057 0
M  V30 75 H 3.499662 5.858328 1.369498 0
M  V30 END ATOM
M  V30 BEGIN BOND
M  V30 1 1 1 2
M  V30 2 2 2 3
M  V30 3 1 3 4
M  V30 4 2 4 5
M  V30 5 1 5 6
M  V30 6 2 6 7
M  V30 7 1 7 8
M  V30 8 1 8 9
M  V30 9 2 9 10
M  V30 10 1 10 11
M  V30 11 2 11 12
M  V30 12 1 12 13
M  V30 13 2 13 14
M  V30 14 2 8 15
M  V30 15 1 15 16
M  V30 16 2 16 17
M  V30 17 1 17 18
M  V30 18 2 18 19
M  V30 19 1 19 20
M  V30 20 1 20 21
M  V30 21 1 21 22
M  V30 22 1 22 23
M  V30 23 1 23 24
M  V30 24 1 24 25
M  V30 25 1 25 26
M  V30 26 2 26 27
M  V30 27 1 27 28
M  V30 28 1 28 29
M  V30 29 2 29 30
M  V30 30 1 30 31
M  V30 31 2 31 32
M  V30 32 1 32 33
M  V30 33 2 33 34
M  V30 34 2 28 35
M  V30 35 1 24 36
M  V30 36 1 36 37
M  V30 37 1 19 38
M  V30 38 2 38 39
M  V30 39 1 15 40
M  V30 40 2 40 41
M  V30 41 1 41 42
M  V30 42 2 42 43
M  V30 43 1 43 44
M  V30 44 1 44 2
M  V30 45 1 44 5
M  V30 46 1 41 6
M  V30 47 1 14 9
M  V30 48 1 39 16
M  V30 49 1 37 21
M  V30 50 1 35 25
M  V30 51 1 34 29
M  V30 52 1 1 45
M  V30 53 1 1 46
M  V30 54 1 7 47
M  V30 55 1 10 48
M  V30 56 1 11 49
M  V30 57 1 12 50
M  V30 58 1 13 51
M  V30 59 1 14 52
M  V30 60 1 17 53
M  V30 61 1 18 54
M  V30 62 1 20 55
M  V30 63 1 20 56
M  V30 64 1 22 57
M  V30 65 1 22 58
M  V30 66 1 23 59
M  V30 67 1 23 60
M  V30 68 1 24 61
M  V30 69 1 26 62
M  V30 70 1 30 63
M  V30 71 1 31 64
M  V30 72 1 32 65
M  V30 73 1 33 66
M  V30 74 1 35 67
M  V30 75 1 36 68
M  V30 76 1 36 69
M  V30 77 1 37 70
M  V30 78 1 37 71
M  V30 79 1 38 72
M  V30 80 1 39 73
M  V30 81 1 42 74
M  V30 82 1 43 75
M  V30 END BOND
M  V30 END CTAB
M  END
>  <Dataset>  (374) 
ChEMBL_Kinases

>  <Ligand_Instance>  (374) 
nan

>  <PDB_ID>  (374) 
nan

>  <Standardized_SMILES>  (374) 
Nc1nnc2c3cc(-c4ccccc4)c(-c4ccc(CN5CCC(n6cnc(-c7ccccn7)c6)CC5)cc4)nc3ccn12

>  <Name>  (374) 
nan

>  <Pocket>  (374) 
nan

>  <ATP_Site>  (374) 
nan

>  <Peripheral>  (374) 
nan

>  <Num_H_Atoms_ProtBoundConf>  (374) 
nan

>  <Num_Resolved_Atoms>  (374) 
nan

>  <Num_Not_Resolved_Atoms>  (374) 
nan

$$$$
CHEMBL188938
     RDKit          3D

  0  0  0  0  0  0  0  0  0  0999 V3000
M  V30 BEGIN CTAB
M  V30 COUNTS 36 39 0 0 0
M  V30 BEGIN ATOM
M  V30 1 O 4.673516 -5.116836 3.785792 0
M  V30 2 N 3.577375 -4.594893 3.535632 0 CHG=1 VAL=4
M  V30 3 O 2.516839 -5.075957 4.264726 0 CHG=-1 VAL=1
M  V30 4 C 3.430219 -3.569745 2.561491 0
M  V30 5 C 2.211298 -3.022949 2.315815 0
M  V30 6 C 2.084827 -2.037816 1.375358 0
M  V30 7 C 3.128393 -1.534346 0.628420 0
M  V30 8 N 3.025972 -0.511685 -0.352101 0
M  V30 9 C 1.896640 0.254263 -0.741908 0
M  V30 10 N 2.074419 1.142848 -1.746785 0
M  V30 11 C 1.062586 1.909293 -2.179828 0
M  V30 12 C -0.140108 1.729869 -1.542715 0
M  V30 13 C -0.405800 0.860551 -0.526114 0
M  V30 14 C -1.620195 0.626281 0.212462 0
M  V30 15 C -1.610273 -0.107887 1.395292 0
M  V30 16 N -2.852214 -0.208659 1.888748 0
M  V30 17 N -3.698461 0.417948 1.100933 0
M  V30 18 N -5.006481 0.584182 1.164806 0
M  V30 19 C -5.595078 1.278407 0.180398 0
M  V30 20 C -4.919996 1.839263 -0.910025 0
M  V30 21 C -3.560344 1.621667 -0.902536 0
M  V30 22 C -2.954296 0.913510 0.101668 0
M  V30 23 N 0.689522 0.161241 -0.194258 0
M  V30 24 C 4.342685 -2.120156 0.914132 0
M  V30 25 C 4.494304 -3.111255 1.854228 0
M  V30 26 H 1.356792 -3.375739 2.869413 0
M  V30 27 H 1.105884 -1.650794 1.224893 0
M  V30 28 H 3.945823 -0.310920 -0.853297 0
M  V30 29 H 1.183522 2.623224 -2.979000 0
M  V30 30 H -0.912981 2.366564 -1.902404 0
M  V30 31 H -0.871397 -0.605580 2.007186 0
M  V30 32 H -6.686354 1.419360 0.229294 0
M  V30 33 H -5.430574 2.381762 -1.665903 0
M  V30 34 H -3.047120 2.040126 -1.741875 0
M  V30 35 H 5.256589 -1.807885 0.386735 0
M  V30 36 H 5.468135 -3.534130 2.036313 0
M  V30 END ATOM
M  V30 BEGIN BOND
M  V30 1 2 1 2
M  V30 2 1 2 3
M  V30 3 1 2 4
M  V30 4 2 4 5
M  V30 5 1 5 6
M  V30 6 2 6 7
M  V30 7 1 7 8
M  V30 8 1 8 9
M  V30 9 2 9 10
M  V30 10 1 10 11
M  V30 11 2 11 12
M  V30 12 1 12 13
M  V30 13 1 13 14
M  V30 14 1 14 15
M  V30 15 2 15 16
M  V30 16 1 16 17
M  V30 17 1 17 18
M  V30 18 2 18 19
M  V30 19 1 19 20
M  V30 20 2 20 21
M  V30 21 1 21 22
M  V30 22 2 13 23
M  V30 23 1 7 24
M  V30 24 2 24 25
M  V30 25 1 25 4
M  V30 26 1 23 9
M  V30 27 2 22 14
M  V30 28 1 22 17
M  V30 29 1 5 26
M  V30 30 1 6 27
M  V30 31 1 8 28
M  V30 32 1 11 29
M  V30 33 1 12 30
M  V30 34 1 15 31
M  V30 35 1 19 32
M  V30 36 1 20 33
M  V30 37 1 21 34
M  V30 38 1 24 35
M  V30 39 1 25 36
M  V30 END BOND
M  V30 END CTAB
M  END
>  <Dataset>  (375) 
ChEMBL_Kinases

>  <Ligand_Instance>  (375) 
nan

>  <PDB_ID>  (375) 
nan

>  <Standardized_SMILES>  (375) 
O=[N+]([O-])c1ccc(Nc2nccc(-c3cnn4ncccc34)n2)cc1

>  <Name>  (375) 
nan

>  <Pocket>  (375) 
nan

>  <ATP_Site>  (375) 
nan

>  <Peripheral>  (375) 
nan

>  <Num_H_Atoms_ProtBoundConf>  (375) 
nan

>  <Num_Resolved_Atoms>  (375) 
nan

>  <Num_Not_Resolved_Atoms>  (375) 
nan

$$$$
CHEMBL5087568
     RDKit          3D

  0  0  0  0  0  0  0  0  0  0999 V3000
M  V30 BEGIN CTAB
M  V30 COUNTS 43 46 0 0 0
M  V30 BEGIN ATOM
M  V30 1 C 0.409640 -4.283629 -0.043700 0
M  V30 2 C 0.627107 -3.521673 1.248703 0
M  V30 3 O 0.516191 -4.451599 2.282079 0
M  V30 4 C -0.493870 -2.543997 1.392056 0
M  V30 5 C -0.540153 -1.558625 0.274295 0
M  V30 6 N 0.820438 -1.126705 0.022605 0
M  V30 7 C 1.031466 -0.012261 -0.791936 0
M  V30 8 N 1.559833 -0.378075 -2.002215 0
M  V30 9 C 1.811267 0.556392 -2.967076 0
M  V30 10 N 1.567179 1.869823 -2.809154 0
M  V30 11 C 1.048841 2.266043 -1.632890 0
M  V30 12 N 0.674412 3.439004 -1.091750 0
M  V30 13 C 0.206789 3.260376 0.162715 0
M  V30 14 C 0.270585 1.895775 0.481278 0
M  V30 15 C -0.141361 1.433928 1.794582 0
M  V30 16 C 0.505013 0.680461 2.748880 0
M  V30 17 C -0.111522 0.363419 3.939615 0
M  V30 18 C -1.391807 0.775517 4.240873 0
M  V30 19 C -2.077883 1.532190 3.315367 0
M  V30 20 Cl -3.694818 2.050210 3.700741 0
M  V30 21 C -1.442576 1.837121 2.132529 0
M  V30 22 C 0.793697 1.333675 -0.658077 0
M  V30 23 C 2.090613 -1.646944 0.442628 0
M  V30 24 C 1.988365 -2.897365 1.257830 0
M  V30 25 H -0.620858 -4.635255 -0.157859 0
M  V30 26 H 0.633572 -3.593933 -0.909323 0
M  V30 27 H 1.174704 -5.107007 -0.128237 0
M  V30 28 H 1.431255 -4.682491 2.583892 0
M  V30 29 H -0.365477 -2.025396 2.356281 0
M  V30 30 H -1.468985 -3.082449 1.420787 0
M  V30 31 H -1.263964 -0.754494 0.408999 0
M  V30 32 H -0.822311 -2.123031 -0.681412 0
M  V30 33 H 2.229001 0.275274 -3.927031 0
M  V30 34 H 0.752315 4.361591 -1.615080 0
M  V30 35 H -0.144993 4.064202 0.775499 0
M  V30 36 H 1.495511 0.403482 2.443215 0
M  V30 37 H 0.492250 -0.231842 4.610868 0
M  V30 38 H -1.847135 0.508901 5.186073 0
M  V30 39 H -2.073462 2.441574 1.466817 0
M  V30 40 H 2.721666 -0.870362 0.893754 0
M  V30 41 H 2.642654 -1.917299 -0.510061 0
M  V30 42 H 2.737930 -3.641313 0.924812 0
M  V30 43 H 2.243847 -2.642595 2.306818 0
M  V30 END ATOM
M  V30 BEGIN BOND
M  V30 1 1 1 2
M  V30 2 1 2 3
M  V30 3 1 2 4
M  V30 4 1 4 5
M  V30 5 1 5 6
M  V30 6 1 6 7
M  V30 7 2 7 8
M  V30 8 1 8 9
M  V30 9 2 9 10
M  V30 10 1 10 11
M  V30 11 1 11 12
M  V30 12 1 12 13
M  V30 13 2 13 14
M  V30 14 1 14 15
M  V30 15 2 15 16
M  V30 16 1 16 17
M  V30 17 2 17 18
M  V30 18 1 18 19
M  V30 19 1 19 20
M  V30 20 2 19 21
M  V30 21 1 14 22
M  V30 22 1 6 23
M  V30 23 1 23 24
M  V30 24 1 24 2
M  V30 25 1 22 7
M  V30 26 2 22 11
M  V30 27 1 21 15
M  V30 28 1 1 25
M  V30 29 1 1 26
M  V30 30 1 1 27
M  V30 31 1 3 28
M  V30 32 1 4 29
M  V30 33 1 4 30
M  V30 34 1 5 31
M  V30 35 1 5 32
M  V30 36 1 9 33
M  V30 37 1 12 34
M  V30 38 1 13 35
M  V30 39 1 16 36
M  V30 40 1 17 37
M  V30 41 1 18 38
M  V30 42 1 21 39
M  V30 43 1 23 40
M  V30 44 1 23 41
M  V30 45 1 24 42
M  V30 46 1 24 43
M  V30 END BOND
M  V30 END CTAB
M  END
>  <Dataset>  (376) 
ChEMBL_Kinases

>  <Ligand_Instance>  (376) 
nan

>  <PDB_ID>  (376) 
nan

>  <Standardized_SMILES>  (376) 
CC1(O)CCN(c2ncnc3[nH]cc(-c4cccc(Cl)c4)c23)CC1

>  <Name>  (376) 
nan

>  <Pocket>  (376) 
nan

>  <ATP_Site>  (376) 
nan

>  <Peripheral>  (376) 
nan

>  <Num_H_Atoms_ProtBoundConf>  (376) 
nan

>  <Num_Resolved_Atoms>  (376) 
nan

>  <Num_Not_Resolved_Atoms>  (376) 
nan

$$$$
CHEMBL5087454
     RDKit          3D

  0  0  0  0  0  0  0  0  0  0999 V3000
M  V30 BEGIN CTAB
M  V30 COUNTS 32 34 0 0 0
M  V30 BEGIN ATOM
M  V30 1 C -1.929552 -1.217822 1.049098 0
M  V30 2 N -0.786013 -2.054968 1.452049 0
M  V30 3 C -0.734096 -2.318974 2.899297 0
M  V30 4 C 0.075439 -2.480166 0.404556 0
M  V30 5 N 0.051436 -3.821451 0.141790 0
M  V30 6 C 0.804148 -4.337758 -0.856418 0
M  V30 7 N 1.598399 -3.561763 -1.623078 0
M  V30 8 C 1.657525 -2.249399 -1.406906 0
M  V30 9 N 2.301621 -1.172398 -1.931014 0
M  V30 10 C 1.966017 -0.038863 -1.286681 0
M  V30 11 C 1.050633 -0.364228 -0.277397 0
M  V30 12 C 0.554390 0.686398 0.597690 0
M  V30 13 C -0.011853 1.783051 -0.070833 0
M  V30 14 C -0.522312 2.891423 0.540745 0
M  V30 15 C -0.486060 2.951537 1.904647 0
M  V30 16 C 0.059030 1.902478 2.612834 0
M  V30 17 Cl 0.154228 1.881222 4.378416 0
M  V30 18 C 0.574352 0.783831 1.996067 0
M  V30 19 C 0.895595 -1.716706 -0.393315 0
M  V30 20 H -2.046986 -0.421282 1.811503 0
M  V30 21 H -1.827396 -0.852472 0.028768 0
M  V30 22 H -2.846522 -1.853686 1.172891 0
M  V30 23 H 0.242637 -2.776105 3.175534 0
M  V30 24 H -0.833259 -1.396566 3.472314 0
M  V30 25 H -1.498335 -3.078253 3.165919 0
M  V30 26 H 0.755144 -5.400441 -1.029326 0
M  V30 27 H 2.965154 -1.256931 -2.732523 0
M  V30 28 H 2.374592 0.936372 -1.555434 0
M  V30 29 H -0.077339 1.809095 -1.170011 0
M  V30 30 H -0.948630 3.713498 0.001367 0
M  V30 31 H -0.858725 3.774286 2.490263 0
M  V30 32 H 1.024625 -0.087258 2.444560 0
M  V30 END ATOM
M  V30 BEGIN BOND
M  V30 1 1 1 2
M  V30 2 1 2 3
M  V30 3 1 2 4
M  V30 4 2 4 5
M  V30 5 1 5 6
M  V30 6 2 6 7
M  V30 7 1 7 8
M  V30 8 1 8 9
M  V30 9 1 9 10
M  V30 10 2 10 11
M  V30 11 1 11 12
M  V30 12 2 12 13
M  V30 13 1 13 14
M  V30 14 2 14 15
M  V30 15 1 15 16
M  V30 16 1 16 17
M  V30 17 2 16 18
M  V30 18 1 11 19
M  V30 19 1 19 4
M  V30 20 2 19 8
M  V30 21 1 18 12
M  V30 22 1 1 20
M  V30 23 1 1 21
M  V30 24 1 1 22
M  V30 25 1 3 23
M  V30 26 1 3 24
M  V30 27 1 3 25
M  V30 28 1 6 26
M  V30 29 1 9 27
M  V30 30 1 10 28
M  V30 31 1 13 29
M  V30 32 1 14 30
M  V30 33 1 15 31
M  V30 34 1 18 32
M  V30 END BOND
M  V30 END CTAB
M  END
>  <Dataset>  (377) 
ChEMBL_Kinases

>  <Ligand_Instance>  (377) 
nan

>  <PDB_ID>  (377) 
nan

>  <Standardized_SMILES>  (377) 
CN(C)c1ncnc2[nH]cc(-c3cccc(Cl)c3)c12

>  <Name>  (377) 
nan

>  <Pocket>  (377) 
nan

>  <ATP_Site>  (377) 
nan

>  <Peripheral>  (377) 
nan

>  <Num_H_Atoms_ProtBoundConf>  (377) 
nan

>  <Num_Resolved_Atoms>  (377) 
nan

>  <Num_Not_Resolved_Atoms>  (377) 
nan

$$$$
CHEMBL1885200
     RDKit          3D

  0  0  0  0  0  0  0  0  0  0999 V3000
M  V30 BEGIN CTAB
M  V30 COUNTS 24 25 0 0 0
M  V30 BEGIN ATOM
M  V30 1 C 1.473745 -0.004158 3.457557 0
M  V30 2 C 1.165001 -1.122972 2.523969 0
M  V30 3 N 1.331943 -2.421997 2.806791 0
M  V30 4 N 0.952039 -3.136005 1.735314 0
M  V30 5 C 0.538142 -2.298109 0.756335 0
M  V30 6 N 0.072035 -2.725819 -0.506052 0
M  V30 7 C 0.670782 -1.027898 1.249453 0
M  V30 8 C 0.336163 0.190530 0.521105 0
M  V30 9 C -0.900181 0.797821 0.535953 0
M  V30 10 C -1.112430 1.950430 -0.189887 0
M  V30 11 C -0.062606 2.445963 -0.905073 0
M  V30 12 Cl -0.350321 3.920263 -1.827775 0
M  V30 13 C 1.218906 1.903140 -0.980670 0
M  V30 14 C 1.368538 0.737412 -0.223597 0
M  V30 15 H 0.914171 -0.157301 4.421062 0
M  V30 16 H 1.151315 0.963821 3.059852 0
M  V30 17 H 2.562327 0.071487 3.670755 0
M  V30 18 H 1.012408 -4.171725 1.771660 0
M  V30 19 H -0.662816 -3.480986 -0.571502 0
M  V30 20 H 0.534720 -2.216047 -1.280918 0
M  V30 21 H -1.654933 0.313130 1.139313 0
M  V30 22 H -2.073810 2.421106 -0.177267 0
M  V30 23 H 1.998602 2.346464 -1.564157 0
M  V30 24 H 2.368398 0.293196 -0.268211 0
M  V30 END ATOM
M  V30 BEGIN BOND
M  V30 1 1 1 2
M  V30 2 2 2 3
M  V30 3 1 3 4
M  V30 4 1 4 5
M  V30 5 1 5 6
M  V30 6 2 5 7
M  V30 7 1 7 8
M  V30 8 2 8 9
M  V30 9 1 9 10
M  V30 10 2 10 11
M  V30 11 1 11 12
M  V30 12 1 11 13
M  V30 13 2 13 14
M  V30 14 1 7 2
M  V30 15 1 14 8
M  V30 16 1 1 15
M  V30 17 1 1 16
M  V30 18 1 1 17
M  V30 19 1 4 18
M  V30 20 1 6 19
M  V30 21 1 6 20
M  V30 22 1 9 21
M  V30 23 1 10 22
M  V30 24 1 13 23
M  V30 25 1 14 24
M  V30 END BOND
M  V30 END CTAB
M  END
>  <Dataset>  (378) 
ChEMBL_Kinases

>  <Ligand_Instance>  (378) 
nan

>  <PDB_ID>  (378) 
nan

>  <Standardized_SMILES>  (378) 
Cc1n[nH]c(N)c1-c1ccc(Cl)cc1

>  <Name>  (378) 
nan

>  <Pocket>  (378) 
nan

>  <ATP_Site>  (378) 
nan

>  <Peripheral>  (378) 
nan

>  <Num_H_Atoms_ProtBoundConf>  (378) 
nan

>  <Num_Resolved_Atoms>  (378) 
nan

>  <Num_Not_Resolved_Atoms>  (378) 
nan

$$$$
CHEMBL189415
     RDKit          3D

  0  0  0  0  0  0  0  0  0  0999 V3000
M  V30 BEGIN CTAB
M  V30 COUNTS 47 51 0 0 0
M  V30 BEGIN ATOM
M  V30 1 F 2.709385 -1.164914 1.854811 0
M  V30 2 C 3.464984 -0.977664 0.689595 0
M  V30 3 F 2.793170 -1.609385 -0.326514 0
M  V30 4 F 4.689228 -1.601004 0.836909 0
M  V30 5 C 3.690278 0.470149 0.444063 0
M  V30 6 C 4.832389 0.853052 -0.225561 0
M  V30 7 C 5.017832 2.201401 -0.441696 0
M  V30 8 C 4.133400 3.156765 -0.028212 0
M  V30 9 C 2.971432 2.801477 0.649597 0
M  V30 10 N 1.990443 3.702955 1.140102 0
M  V30 11 C 0.671062 3.526883 1.621790 0
M  V30 12 N 0.064319 4.622302 2.139152 0
M  V30 13 C -1.186293 4.574765 2.609161 0
M  V30 14 C -1.821612 3.356607 2.538910 0
M  V30 15 C -1.244179 2.204302 2.017886 0
M  V30 16 C -2.048363 0.997244 1.995396 0
M  V30 17 C -3.319615 0.866387 2.537364 0
M  V30 18 N -3.750910 -0.382597 2.321068 0
M  V30 19 N -2.851315 -1.098739 1.668847 0
M  V30 20 N -2.848778 -2.352033 1.248104 0
M  V30 21 C -1.827184 -2.914681 0.586115 0
M  V30 22 C -1.915434 -4.305711 0.161517 0
M  V30 23 C -3.085895 -4.972264 0.479165 0
M  V30 24 C -3.223178 -6.289708 0.102424 0
M  V30 25 C -2.232476 -6.970003 -0.582128 0
M  V30 26 C -1.071296 -6.274961 -0.886011 0
M  V30 27 C -0.898053 -4.937699 -0.519237 0
M  V30 28 C -0.750130 -2.082086 0.365428 0
M  V30 29 C -0.742595 -0.771641 0.800888 0
M  V30 30 C -1.831702 -0.249608 1.480961 0
M  V30 31 N 0.011304 2.369336 1.576700 0
M  V30 32 C 2.817275 1.444863 0.849857 0
M  V30 33 H 5.554237 0.126839 -0.567847 0
M  V30 34 H 5.893078 2.583769 -0.962783 0
M  V30 35 H 4.287974 4.215139 -0.202904 0
M  V30 36 H 2.387146 4.686030 1.114503 0
M  V30 37 H -1.639291 5.446679 3.009787 0
M  V30 38 H -2.839350 3.338208 2.927263 0
M  V30 39 H -3.925309 1.613441 3.064633 0
M  V30 40 H -3.919636 -4.537111 1.008850 0
M  V30 41 H -4.105787 -6.904245 0.305155 0
M  V30 42 H -2.258300 -7.998777 -0.913825 0
M  V30 43 H -0.226423 -6.719651 -1.424149 0
M  V30 44 H 0.009355 -4.426359 -0.766748 0
M  V30 45 H 0.103823 -2.486956 -0.166989 0
M  V30 46 H 0.103147 -0.137750 0.614586 0
M  V30 47 H 1.957932 1.062683 1.375610 0
M  V30 END ATOM
M  V30 BEGIN BOND
M  V30 1 1 1 2
M  V30 2 1 2 3
M  V30 3 1 2 4
M  V30 4 1 2 5
M  V30 5 2 5 6
M  V30 6 1 6 7
M  V30 7 2 7 8
M  V30 8 1 8 9
M  V30 9 1 9 10
M  V30 10 1 10 11
M  V30 11 2 11 12
M  V30 12 1 12 13
M  V30 13 2 13 14
M  V30 14 1 14 15
M  V30 15 1 15 16
M  V30 16 1 16 17
M  V30 17 2 17 18
M  V30 18 1 18 19
M  V30 19 1 19 20
M  V30 20 2 20 21
M  V30 21 1 21 22
M  V30 22 2 22 23
M  V30 23 1 23 24
M  V30 24 2 24 25
M  V30 25 1 25 26
M  V30 26 2 26 27
M  V30 27 1 21 28
M  V30 28 2 28 29
M  V30 29 1 29 30
M  V30 30 2 15 31
M  V30 31 2 9 32
M  V30 32 1 32 5
M  V30 33 1 31 11
M  V30 34 2 30 16
M  V30 35 1 30 19
M  V30 36 1 27 22
M  V30 37 1 6 33
M  V30 38 1 7 34
M  V30 39 1 8 35
M  V30 40 1 10 36
M  V30 41 1 13 37
M  V30 42 1 14 38
M  V30 43 1 17 39
M  V30 44 1 23 40
M  V30 45 1 24 41
M  V30 46 1 25 42
M  V30 47 1 26 43
M  V30 48 1 27 44
M  V30 49 1 28 45
M  V30 50 1 29 46
M  V30 51 1 32 47
M  V30 END BOND
M  V30 END CTAB
M  END
>  <Dataset>  (379) 
ChEMBL_Kinases

>  <Ligand_Instance>  (379) 
nan

>  <PDB_ID>  (379) 
nan

>  <Standardized_SMILES>  (379) 
FC(F)(F)c1cccc(Nc2nccc(-c3cnn4nc(-c5ccccc5)ccc34)n2)c1

>  <Name>  (379) 
GW819077X

>  <Pocket>  (379) 
nan

>  <ATP_Site>  (379) 
nan

>  <Peripheral>  (379) 
nan

>  <Num_H_Atoms_ProtBoundConf>  (379) 
nan

>  <Num_Resolved_Atoms>  (379) 
nan

>  <Num_Not_Resolved_Atoms>  (379) 
nan

$$$$
CHEMBL129396
     RDKit          3D

  0  0  0  0  0  0  0  0  0  0999 V3000
M  V30 BEGIN CTAB
M  V30 COUNTS 40 42 0 0 0
M  V30 BEGIN ATOM
M  V30 1 C -0.637926 -5.509596 1.510643 0
M  V30 2 C 0.540860 -4.587870 1.471341 0
M  V30 3 C 0.822716 -4.049197 0.139458 0
M  V30 4 C 1.924615 -3.182132 0.072733 0
M  V30 5 N 2.068231 -2.766468 -1.190378 0
M  V30 6 C 1.067906 -3.367498 -1.900859 0
M  V30 7 C 0.891137 -3.145935 -3.375968 0
M  V30 8 S -0.248080 -1.733048 -3.639167 0
M  V30 9 C 0.535205 -0.250193 -3.009605 0
M  V30 10 C 1.313870 0.852394 -3.244778 0
M  V30 11 N 1.582530 1.659700 -2.247978 0
M  V30 12 C 1.223249 1.552867 -1.122257 0
M  V30 13 N 1.276154 2.158578 0.169622 0
M  V30 14 C 0.428413 3.060689 0.809879 0
M  V30 15 O -0.635516 3.590861 0.405336 0
M  V30 16 C 0.755459 3.519278 2.186581 0
M  V30 17 C -0.397647 3.122928 3.040917 0
M  V30 18 C -0.274530 1.928537 3.716275 0
M  V30 19 C -1.240840 1.371056 4.566938 0
M  V30 20 C -2.391006 2.130669 4.696943 0
M  V30 21 N -2.530250 3.304079 4.042446 0
M  V30 22 C -1.573127 3.805509 3.232188 0
M  V30 23 S 0.202208 -0.046112 -1.201118 0
M  V30 24 O 0.349651 -4.120733 -1.079808 0
M  V30 25 H -1.067738 -5.417814 2.553933 0
M  V30 26 H -1.432164 -5.217481 0.804648 0
M  V30 27 H -0.301024 -6.548686 1.337207 0
M  V30 28 H 1.449731 -5.139629 1.810775 0
M  V30 29 H 0.441895 -3.744371 2.196401 0
M  V30 30 H 2.664383 -2.779762 0.778330 0
M  V30 31 H 1.865934 -2.850412 -3.807550 0
M  V30 32 H 0.521586 -4.035013 -3.887180 0
M  V30 33 H 1.560109 0.815760 -4.295349 0
M  V30 34 H 2.127054 1.811941 0.654518 0
M  V30 35 H 0.882620 4.634022 2.216130 0
M  V30 36 H 1.704203 3.087982 2.565755 0
M  V30 37 H 0.628286 1.323745 3.623448 0
M  V30 38 H -1.059269 0.427162 5.061737 0
M  V30 39 H -3.171505 1.742816 5.344699 0
M  V30 40 H -1.663905 4.742929 2.698943 0
M  V30 END ATOM
M  V30 BEGIN BOND
M  V30 1 1 1 2
M  V30 2 1 2 3
M  V30 3 2 3 4
M  V30 4 1 4 5
M  V30 5 2 5 6
M  V30 6 1 6 7
M  V30 7 1 7 8
M  V30 8 1 8 9
M  V30 9 2 9 10
M  V30 10 1 10 11
M  V30 11 2 11 12
M  V30 12 1 12 13
M  V30 13 1 13 14
M  V30 14 2 14 15
M  V30 15 1 14 16
M  V30 16 1 16 17
M  V30 17 2 17 18
M  V30 18 1 18 19
M  V30 19 2 19 20
M  V30 20 1 20 21
M  V30 21 2 21 22
M  V30 22 1 12 23
M  V30 23 1 6 24
M  V30 24 1 24 3
M  V30 25 1 23 9
M  V30 26 1 22 17
M  V30 27 1 1 25
M  V30 28 1 1 26
M  V30 29 1 1 27
M  V30 30 1 2 28
M  V30 31 1 2 29
M  V30 32 1 4 30
M  V30 33 1 7 31
M  V30 34 1 7 32
M  V30 35 1 10 33
M  V30 36 1 13 34
M  V30 37 1 16 35
M  V30 38 1 16 36
M  V30 39 1 18 37
M  V30 40 1 19 38
M  V30 41 1 20 39
M  V30 42 1 22 40
M  V30 END BOND
M  V30 END CTAB
M  END
>  <Dataset>  (380) 
ChEMBL_Kinases

>  <Ligand_Instance>  (380) 
nan

>  <PDB_ID>  (380) 
nan

>  <Standardized_SMILES>  (380) 
CCc1cnc(CSc2cnc(NC(=O)Cc3cccnc3)s2)o1

>  <Name>  (380) 
nan

>  <Pocket>  (380) 
nan

>  <ATP_Site>  (380) 
nan

>  <Peripheral>  (380) 
nan

>  <Num_H_Atoms_ProtBoundConf>  (380) 
nan

>  <Num_Resolved_Atoms>  (380) 
nan

>  <Num_Not_Resolved_Atoms>  (380) 
nan

$$$$
CHEMBL563962
     RDKit          3D

  0  0  0  0  0  0  0  0  0  0999 V3000
M  V30 BEGIN CTAB
M  V30 COUNTS 38 41 0 0 0
M  V30 BEGIN ATOM
M  V30 1 C -1.350579 -4.050564 -0.221975 0
M  V30 2 N -0.829014 -2.857085 0.425787 0
M  V30 3 C 0.351406 -2.244802 0.204943 0
M  V30 4 C 0.496229 -1.116882 1.025036 0
M  V30 5 C 1.693151 -0.282857 0.971330 0
M  V30 6 N 2.714510 -0.710285 1.762371 0
M  V30 7 C 3.892663 -0.054185 1.824065 0
M  V30 8 N 4.940134 -0.521643 2.663223 0
M  V30 9 N 4.066030 1.054770 1.082753 0
M  V30 10 C 3.091419 1.526385 0.281320 0
M  V30 11 C 1.880192 0.848340 0.220990 0
M  V30 12 C 0.755376 1.272437 -0.607310 0
M  V30 13 C 0.899494 1.028405 -1.959192 0
M  V30 14 C -0.132056 1.411579 -2.797233 0
M  V30 15 N -1.227734 2.000133 -2.290332 0
M  V30 16 C -1.393203 2.248880 -0.978758 0
M  V30 17 C -0.391774 1.885119 -0.099396 0
M  V30 18 C -0.678061 -1.094036 1.752992 0
M  V30 19 C -1.004324 -0.147756 2.712043 0
M  V30 20 C -2.233907 -0.315200 3.321641 0
M  V30 21 C -3.061089 -1.370466 2.972685 0
M  V30 22 C -2.701183 -2.296720 2.008462 0
M  V30 23 C -1.472739 -2.155311 1.378908 0
M  V30 24 H -0.493063 -4.766903 -0.373007 0
M  V30 25 H -1.861501 -3.849275 -1.176260 0
M  V30 26 H -2.065589 -4.589927 0.436955 0
M  V30 27 H 1.038967 -2.654114 -0.538163 0
M  V30 28 H 5.962936 -0.442750 2.492209 0
M  V30 29 H 4.720290 -1.001222 3.559972 0
M  V30 30 H 3.151320 2.412093 -0.343854 0
M  V30 31 H 1.775800 0.552983 -2.388739 0
M  V30 32 H -0.046029 1.231491 -3.877043 0
M  V30 33 H -2.286900 2.730273 -0.559368 0
M  V30 34 H -0.452497 2.049541 0.944533 0
M  V30 35 H -0.362307 0.662386 2.973116 0
M  V30 36 H -2.568297 0.382018 4.085856 0
M  V30 37 H -4.021319 -1.475174 3.469847 0
M  V30 38 H -3.322032 -3.120809 1.721774 0
M  V30 END ATOM
M  V30 BEGIN BOND
M  V30 1 1 1 2
M  V30 2 1 2 3
M  V30 3 2 3 4
M  V30 4 1 4 5
M  V30 5 2 5 6
M  V30 6 1 6 7
M  V30 7 1 7 8
M  V30 8 2 7 9
M  V30 9 1 9 10
M  V30 10 2 10 11
M  V30 11 1 11 12
M  V30 12 2 12 13
M  V30 13 1 13 14
M  V30 14 2 14 15
M  V30 15 1 15 16
M  V30 16 2 16 17
M  V30 17 1 4 18
M  V30 18 2 18 19
M  V30 19 1 19 20
M  V30 20 2 20 21
M  V30 21 1 21 22
M  V30 22 2 22 23
M  V30 23 1 23 2
M  V30 24 1 11 5
M  V30 25 1 17 12
M  V30 26 1 23 18
M  V30 27 1 1 24
M  V30 28 1 1 25
M  V30 29 1 1 26
M  V30 30 1 3 27
M  V30 31 1 8 28
M  V30 32 1 8 29
M  V30 33 1 10 30
M  V30 34 1 13 31
M  V30 35 1 14 32
M  V30 36 1 16 33
M  V30 37 1 17 34
M  V30 38 1 19 35
M  V30 39 1 20 36
M  V30 40 1 21 37
M  V30 41 1 22 38
M  V30 END BOND
M  V30 END CTAB
M  END
>  <Dataset>  (381) 
ChEMBL_Kinases

>  <Ligand_Instance>  (381) 
nan

>  <PDB_ID>  (381) 
nan

>  <Standardized_SMILES>  (381) 
Cn1cc(-c2nc(N)ncc2-c2ccncc2)c2ccccc21

>  <Name>  (381) 
nan

>  <Pocket>  (381) 
nan

>  <ATP_Site>  (381) 
nan

>  <Peripheral>  (381) 
nan

>  <Num_H_Atoms_ProtBoundConf>  (381) 
nan

>  <Num_Resolved_Atoms>  (381) 
nan

>  <Num_Not_Resolved_Atoms>  (381) 
nan

$$$$
CHEMBL562648
     RDKit          3D

  0  0  0  0  0  0  0  0  0  0999 V3000
M  V30 BEGIN CTAB
M  V30 COUNTS 40 43 0 0 0
M  V30 BEGIN ATOM
M  V30 1 N 2.555419 -4.489206 3.566179 0
M  V30 2 C 2.347639 -3.399596 2.674911 0
M  V30 3 N 3.412032 -2.669656 2.286787 0
M  V30 4 C 3.261353 -1.619237 1.435958 0
M  V30 5 C 1.981068 -1.357724 1.008304 0
M  V30 6 C 1.737919 -0.239132 0.088149 0
M  V30 7 C 2.264910 -0.131786 -1.161638 0
M  V30 8 C 1.967830 0.966584 -1.941871 0
M  V30 9 C 1.131131 1.966240 -1.456612 0
M  V30 10 O 0.804304 3.092481 -2.209765 0
M  V30 11 C 1.650477 4.231337 -2.091278 0
M  V30 12 F 1.221314 5.264938 -2.879387 0
M  V30 13 F 1.666727 4.609525 -0.760361 0
M  V30 14 F 2.912155 3.804810 -2.522699 0
M  V30 15 C 0.589477 1.876164 -0.198077 0
M  V30 16 C 0.895173 0.760159 0.586556 0
M  V30 17 C 0.867895 -2.085242 1.386077 0
M  V30 18 C -0.482460 -1.787250 0.917506 0
M  V30 19 C -0.814192 -1.864600 -0.419188 0
M  V30 20 N -2.123562 -1.531211 -0.511893 0
M  V30 21 C -2.615560 -1.249790 0.720734 0
M  V30 22 C -3.867275 -0.865684 1.164071 0
M  V30 23 C -4.025066 -0.655344 2.534831 0
M  V30 24 C -3.012901 -0.804881 3.484391 0
M  V30 25 C -1.786344 -1.189369 2.984058 0
M  V30 26 C -1.594538 -1.405275 1.640595 0
M  V30 27 N 1.108051 -3.115170 2.236322 0
M  V30 28 H 3.488739 -4.775591 3.877561 0
M  V30 29 H 1.750535 -5.040715 3.937555 0
M  V30 30 H 4.109864 -1.029464 1.120302 0
M  V30 31 H 2.903715 -0.922987 -1.496330 0
M  V30 32 H 2.375474 1.073089 -2.938554 0
M  V30 33 H -0.075387 2.646715 0.217972 0
M  V30 34 H 0.440066 0.729444 1.586306 0
M  V30 35 H -0.209263 -2.131482 -1.292532 0
M  V30 36 H -2.733153 -1.476994 -1.374488 0
M  V30 37 H -4.675155 -0.736613 0.484754 0
M  V30 38 H -5.026130 -0.355762 2.828404 0
M  V30 39 H -3.232450 -0.619232 4.522610 0
M  V30 40 H -0.966353 -1.320938 3.669607 0
M  V30 END ATOM
M  V30 BEGIN BOND
M  V30 1 1 1 2
M  V30 2 2 2 3
M  V30 3 1 3 4
M  V30 4 2 4 5
M  V30 5 1 5 6
M  V30 6 2 6 7
M  V30 7 1 7 8
M  V30 8 2 8 9
M  V30 9 1 9 10
M  V30 10 1 10 11
M  V30 11 1 11 12
M  V30 12 1 11 13
M  V30 13 1 11 14
M  V30 14 1 9 15
M  V30 15 2 15 16
M  V30 16 1 5 17
M  V30 17 1 17 18
M  V30 18 2 18 19
M  V30 19 1 19 20
M  V30 20 1 20 21
M  V30 21 2 21 22
M  V30 22 1 22 23
M  V30 23 2 23 24
M  V30 24 1 24 25
M  V30 25 2 25 26
M  V30 26 2 17 27
M  V30 27 1 27 2
M  V30 28 1 16 6
M  V30 29 1 26 18
M  V30 30 1 26 21
M  V30 31 1 1 28
M  V30 32 1 1 29
M  V30 33 1 4 30
M  V30 34 1 7 31
M  V30 35 1 8 32
M  V30 36 1 15 33
M  V30 37 1 16 34
M  V30 38 1 19 35
M  V30 39 1 20 36
M  V30 40 1 22 37
M  V30 41 1 23 38
M  V30 42 1 24 39
M  V30 43 1 25 40
M  V30 END BOND
M  V30 END CTAB
M  END
>  <Dataset>  (382) 
ChEMBL_Kinases

>  <Ligand_Instance>  (382) 
nan

>  <PDB_ID>  (382) 
nan

>  <Standardized_SMILES>  (382) 
Nc1ncc(-c2ccc(OC(F)(F)F)cc2)c(-c2c[nH]c3ccccc23)n1

>  <Name>  (382) 
nan

>  <Pocket>  (382) 
nan

>  <ATP_Site>  (382) 
nan

>  <Peripheral>  (382) 
nan

>  <Num_H_Atoms_ProtBoundConf>  (382) 
nan

>  <Num_Resolved_Atoms>  (382) 
nan

>  <Num_Not_Resolved_Atoms>  (382) 
nan

$$$$
CHEMBL203631
     RDKit          3D

  0  0  0  0  0  0  0  0  0  0999 V3000
M  V30 BEGIN CTAB
M  V30 COUNTS 56 59 0 0 0
M  V30 BEGIN ATOM
M  V30 1 C 1.847631 -1.554110 5.747141 0
M  V30 2 O 3.183108 -1.657130 5.362590 0
M  V30 3 C 3.329989 -1.474105 4.003642 0 CFG=1
M  V30 4 C 4.303880 -0.326388 3.781628 0
M  V30 5 C 4.621456 -0.063024 2.359330 0
M  V30 6 C 4.616133 -1.212344 1.406395 0 CFG=2
M  V30 7 C 3.640418 -0.829214 0.299657 0
M  V30 8 O 2.602090 -1.550597 0.058453 0
M  V30 9 N 3.625312 0.272149 -0.622196 0
M  V30 10 C 2.408783 -0.058654 -1.321429 0
M  V30 11 C 1.239224 0.470833 -0.795745 0
M  V30 12 C 0.078823 0.107565 -1.486851 0
M  V30 13 C -1.177913 0.629345 -0.965056 0
M  V30 14 C -1.380124 1.835483 -0.334338 0
M  V30 15 C -2.606518 2.228226 0.151890 0
M  V30 16 N -3.697071 1.413549 0.022261 0
M  V30 17 C -3.522395 0.211074 -0.600209 0
M  V30 18 N -4.616491 -0.677304 -0.735567 0
M  V30 19 C -5.741230 -0.829360 -1.581082 0
M  V30 20 C -6.101846 0.080480 -2.531583 0
M  V30 21 C -7.215478 -0.118021 -3.319274 0
M  V30 22 C -7.956556 -1.290696 -3.100895 0
M  V30 23 F -9.079053 -1.559671 -3.842582 0
M  V30 24 C -7.596294 -2.238503 -2.123362 0
M  V30 25 C -6.477619 -1.961566 -1.387869 0
M  V30 26 C -2.292301 -0.201042 -1.097043 0
M  V30 27 C 0.193215 -0.712203 -2.587301 0
M  V30 28 C 1.375478 -1.216808 -3.076510 0
M  V30 29 N 2.505683 -0.868872 -2.411157 0
M  V30 30 C 4.144908 -2.501022 1.946148 0
M  V30 31 C 4.051058 -2.676001 3.414994 0
M  V30 32 H 1.409603 -0.548199 5.501879 0
M  V30 33 H 1.229689 -2.304953 5.191594 0
M  V30 34 H 1.741905 -1.818900 6.820940 0
M  V30 35 H 2.362205 -1.280866 3.520847 0
M  V30 36 H 3.817209 0.561243 4.222349 0
M  V30 37 H 5.234197 -0.533909 4.354591 0
M  V30 38 H 3.859800 0.694544 2.000782 0
M  V30 39 H 5.619051 0.466331 2.359543 0
M  V30 40 H 5.631318 -1.306511 0.901668 0
M  V30 41 H 4.458946 0.890192 -0.467420 0
M  V30 42 H 1.298579 1.107391 0.075787 0
M  V30 43 H -0.510612 2.465476 -0.244048 0
M  V30 44 H -2.707897 3.197895 0.644928 0
M  V30 45 H -4.405092 -1.328683 0.055250 0
M  V30 46 H -5.508143 0.992092 -2.691091 0
M  V30 47 H -7.564908 0.563438 -4.097142 0
M  V30 48 H -8.175269 -3.125900 -1.971968 0
M  V30 49 H -6.216589 -2.714946 -0.632774 0
M  V30 50 H -2.204946 -1.182603 -1.591903 0
M  V30 51 H -0.734230 -0.963532 -3.083266 0
M  V30 52 H 1.343122 -1.852838 -3.947556 0
M  V30 53 H 3.115734 -2.718587 1.528051 0
M  V30 54 H 4.762219 -3.330591 1.506649 0
M  V30 55 H 3.460512 -3.612528 3.586691 0
M  V30 56 H 5.000804 -2.792992 3.944385 0
M  V30 END ATOM
M  V30 BEGIN BOND
M  V30 1 1 1 2
M  V30 2 1 2 3
M  V30 3 1 3 4
M  V30 4 1 4 5
M  V30 5 1 5 6
M  V30 6 1 6 7
M  V30 7 2 7 8
M  V30 8 1 7 9
M  V30 9 1 9 10
M  V30 10 2 10 11
M  V30 11 1 11 12
M  V30 12 1 12 13
M  V30 13 2 13 14
M  V30 14 1 14 15
M  V30 15 2 15 16
M  V30 16 1 16 17
M  V30 17 1 17 18
M  V30 18 1 18 19
M  V30 19 2 19 20
M  V30 20 1 20 21
M  V30 21 2 21 22
M  V30 22 1 22 23
M  V30 23 1 22 24
M  V30 24 2 24 25
M  V30 25 2 17 26
M  V30 26 2 12 27
M  V30 27 1 27 28
M  V30 28 2 28 29
M  V30 29 1 6 30
M  V30 30 1 30 31
M  V30 31 1 31 3
M  V30 32 1 29 10
M  V30 33 1 26 13
M  V30 34 1 25 19
M  V30 35 1 1 32
M  V30 36 1 1 33
M  V30 37 1 1 34
M  V30 38 1 3 35 CFG=3
M  V30 39 1 4 36
M  V30 40 1 4 37
M  V30 41 1 5 38
M  V30 42 1 5 39
M  V30 43 1 6 40 CFG=3
M  V30 44 1 9 41
M  V30 45 1 11 42
M  V30 46 1 14 43
M  V30 47 1 15 44
M  V30 48 1 18 45
M  V30 49 1 20 46
M  V30 50 1 21 47
M  V30 51 1 24 48
M  V30 52 1 25 49
M  V30 53 1 26 50
M  V30 54 1 27 51
M  V30 55 1 28 52
M  V30 56 1 30 53
M  V30 57 1 30 54
M  V30 58 1 31 55
M  V30 59 1 31 56
M  V30 END BOND
M  V30 END CTAB
M  END
>  <Dataset>  (383) 
ChEMBL_Kinases

>  <Ligand_Instance>  (383) 
nan

>  <PDB_ID>  (383) 
nan

>  <Standardized_SMILES>  (383) 
CO[C@H]1CC[C@H](C(=O)Nc2cc(-c3ccnc(Nc4ccc(F)cc4)c3)ccn2)CC1

>  <Name>  (383) 
nan

>  <Pocket>  (383) 
nan

>  <ATP_Site>  (383) 
nan

>  <Peripheral>  (383) 
nan

>  <Num_H_Atoms_ProtBoundConf>  (383) 
nan

>  <Num_Resolved_Atoms>  (383) 
nan

>  <Num_Not_Resolved_Atoms>  (383) 
nan

$$$$
CHEMBL203571
     RDKit          3D

  0  0  0  0  0  0  0  0  0  0999 V3000
M  V30 BEGIN CTAB
M  V30 COUNTS 44 46 0 0 0
M  V30 BEGIN ATOM
M  V30 1 C 0.386569 -4.806513 0.561915 0
M  V30 2 C 0.921257 -3.435007 0.211473 0
M  V30 3 N 0.129729 -2.791091 -0.806883 0
M  V30 4 C 0.273121 -3.459719 -2.086137 0
M  V30 5 C 1.671014 -3.260638 -2.623466 0
M  V30 6 C -0.701653 -1.654975 -0.637202 0
M  V30 7 C -0.907418 -1.098035 0.606238 0
M  V30 8 C -1.722900 0.022919 0.554312 0
M  V30 9 N -1.895312 0.582459 1.877875 0
M  V30 10 C -0.694345 1.230120 2.296675 0
M  V30 11 C -0.506024 1.765134 3.550004 0
M  V30 12 C 0.656659 2.368495 3.977540 0
M  V30 13 C 1.720669 2.459865 3.125380 0
M  V30 14 S 3.257560 3.169165 3.582419 0
M  V30 15 N 4.184320 1.896232 4.344439 0
M  V30 16 O 3.989486 3.679979 2.353622 0
M  V30 17 O 3.033450 4.232640 4.604841 0
M  V30 18 C 1.644911 1.958399 1.839363 0
M  V30 19 C 0.449339 1.376487 1.500399 0
M  V30 20 N -2.268896 0.539087 -0.536984 0
M  V30 21 N -3.064589 1.627101 -0.599507 0
M  V30 22 C -3.361867 1.747603 -1.942180 0
M  V30 23 N -2.745450 0.753501 -2.582938 0
M  V30 24 C -2.046297 -0.037798 -1.760216 0
M  V30 25 N -1.263962 -1.109408 -1.697310 0
M  V30 26 H -0.653644 -4.914762 0.138433 0
M  V30 27 H 1.092241 -5.560660 0.152052 0
M  V30 28 H 0.334036 -4.979909 1.658367 0
M  V30 29 H 0.979525 -2.841047 1.141790 0
M  V30 30 H 2.004247 -3.519539 -0.115914 0
M  V30 31 H 0.062626 -4.541858 -1.988414 0
M  V30 32 H -0.479021 -3.034489 -2.788546 0
M  V30 33 H 1.691221 -3.010254 -3.702900 0
M  V30 34 H 2.249799 -4.198817 -2.520746 0
M  V30 35 H 2.218924 -2.482752 -2.016723 0
M  V30 36 H -0.474578 -1.503752 1.509199 0
M  V30 37 H -2.671474 0.625827 2.595138 0
M  V30 38 H -1.332319 1.711047 4.278835 0
M  V30 39 H 0.813136 2.788699 4.947872 0
M  V30 40 H 4.873166 1.504272 3.678493 0
M  V30 41 H 4.586181 2.184551 5.243565 0
M  V30 42 H 2.454628 2.021952 1.161849 0
M  V30 43 H 0.405798 0.992194 0.469428 0
M  V30 44 H -3.895979 2.332474 -2.677862 0
M  V30 END ATOM
M  V30 BEGIN BOND
M  V30 1 1 1 2
M  V30 2 1 2 3
M  V30 3 1 3 4
M  V30 4 1 4 5
M  V30 5 1 3 6
M  V30 6 1 6 7
M  V30 7 2 7 8
M  V30 8 1 8 9
M  V30 9 1 9 10
M  V30 10 2 10 11
M  V30 11 1 11 12
M  V30 12 2 12 13
M  V30 13 1 13 14
M  V30 14 1 14 15
M  V30 15 2 14 16
M  V30 16 2 14 17
M  V30 17 1 13 18
M  V30 18 2 18 19
M  V30 19 1 8 20
M  V30 20 1 20 21
M  V30 21 2 21 22
M  V30 22 1 22 23
M  V30 23 2 23 24
M  V30 24 1 24 25
M  V30 25 2 25 6
M  V30 26 1 19 10
M  V30 27 1 24 20
M  V30 28 1 1 26
M  V30 29 1 1 27
M  V30 30 1 1 28
M  V30 31 1 2 29
M  V30 32 1 2 30
M  V30 33 1 4 31
M  V30 34 1 4 32
M  V30 35 1 5 33
M  V30 36 1 5 34
M  V30 37 1 5 35
M  V30 38 1 7 36
M  V30 39 1 9 37
M  V30 40 1 11 38
M  V30 41 1 12 39
M  V30 42 1 15 40
M  V30 43 1 15 41
M  V30 44 1 18 42
M  V30 45 1 19 43
M  V30 46 1 22 44
M  V30 END BOND
M  V30 END CTAB
M  END
>  <Dataset>  (384) 
ChEMBL_Kinases

>  <Ligand_Instance>  (384) 
nan

>  <PDB_ID>  (384) 
nan

>  <Standardized_SMILES>  (384) 
CCN(CC)c1cc(Nc2ccc(S(N)(=O)=O)cc2)n2ncnc2n1

>  <Name>  (384) 
nan

>  <Pocket>  (384) 
nan

>  <ATP_Site>  (384) 
nan

>  <Peripheral>  (384) 
nan

>  <Num_H_Atoms_ProtBoundConf>  (384) 
nan

>  <Num_Resolved_Atoms>  (384) 
nan

>  <Num_Not_Resolved_Atoms>  (384) 
nan

$$$$
CHEMBL203569
     RDKit          3D

  0  0  0  0  0  0  0  0  0  0999 V3000
M  V30 BEGIN CTAB
M  V30 COUNTS 48 51 0 0 0
M  V30 BEGIN ATOM
M  V30 1 N 2.134777 -6.675553 0.833779 0
M  V30 2 S 0.782392 -6.547608 -0.199708 0
M  V30 3 O -0.424927 -7.045300 0.571516 0
M  V30 4 O 0.953324 -7.521551 -1.345438 0
M  V30 5 C 0.531695 -4.914148 -0.766289 0
M  V30 6 C 1.114530 -4.443853 -1.936662 0
M  V30 7 C 0.932959 -3.162889 -2.410151 0
M  V30 8 C 0.130466 -2.291655 -1.690291 0
M  V30 9 N -0.163194 -0.933582 -2.051566 0
M  V30 10 C -0.970131 -0.065870 -1.263673 0
M  V30 11 C -0.442809 0.795939 -0.324208 0
M  V30 12 C -1.211383 1.637507 0.448310 0
M  V30 13 N -0.704623 2.541764 1.420769 0
M  V30 14 C 0.672143 2.776905 1.806498 0
M  V30 15 C 0.781286 3.865206 2.853126 0
M  V30 16 C 0.286676 3.379420 4.200518 0
M  V30 17 C 0.904806 2.039949 4.547310 0
M  V30 18 C 2.009055 1.692919 3.553937 0
M  V30 19 C 1.354289 1.494862 2.208500 0
M  V30 20 N -2.536174 1.579018 0.239379 0
M  V30 21 C -3.102762 0.760513 -0.660377 0
M  V30 22 N -4.398534 0.554989 -1.016963 0
M  V30 23 C -4.381372 -0.401540 -1.991872 0
M  V30 24 N -3.093490 -0.742867 -2.194743 0
M  V30 25 N -2.308406 -0.041638 -1.389914 0
M  V30 26 C -0.465233 -2.746120 -0.508871 0
M  V30 27 C -0.258855 -4.018803 -0.078437 0
M  V30 28 H 2.841799 -5.947816 0.629355 0
M  V30 29 H 1.902393 -6.711826 1.847588 0
M  V30 30 H 1.754761 -5.132020 -2.513966 0
M  V30 31 H 1.373593 -2.772143 -3.315691 0
M  V30 32 H 0.275090 -0.633598 -2.957641 0
M  V30 33 H 0.624913 0.797065 -0.206653 0
M  V30 34 H -1.401237 3.126868 1.940168 0
M  V30 35 H 1.176996 3.126744 0.865842 0
M  V30 36 H 0.167907 4.712468 2.538924 0
M  V30 37 H 1.835382 4.176321 2.944500 0
M  V30 38 H -0.808569 3.322744 4.236469 0
M  V30 39 H 0.620184 4.105721 4.962112 0
M  V30 40 H 0.126941 1.259579 4.436531 0
M  V30 41 H 1.293612 1.981838 5.575842 0
M  V30 42 H 2.413930 0.694052 3.846212 0
M  V30 43 H 2.792200 2.451304 3.485869 0
M  V30 44 H 0.605641 0.676198 2.253774 0
M  V30 45 H 2.182809 1.223334 1.511751 0
M  V30 46 H -5.362619 -0.660367 -2.365550 0
M  V30 47 H -1.096364 -2.108851 0.086850 0
M  V30 48 H -0.701841 -4.420842 0.837958 0
M  V30 END ATOM
M  V30 BEGIN BOND
M  V30 1 1 1 2
M  V30 2 2 2 3
M  V30 3 2 2 4
M  V30 4 1 2 5
M  V30 5 2 5 6
M  V30 6 1 6 7
M  V30 7 2 7 8
M  V30 8 1 8 9
M  V30 9 1 9 10
M  V30 10 2 10 11
M  V30 11 1 11 12
M  V30 12 1 12 13
M  V30 13 1 13 14
M  V30 14 1 14 15
M  V30 15 1 15 16
M  V30 16 1 16 17
M  V30 17 1 17 18
M  V30 18 1 18 19
M  V30 19 2 12 20
M  V30 20 1 20 21
M  V30 21 2 21 22
M  V30 22 1 22 23
M  V30 23 2 23 24
M  V30 24 1 24 25
M  V30 25 1 8 26
M  V30 26 2 26 27
M  V30 27 1 27 5
M  V30 28 1 25 10
M  V30 29 1 19 14
M  V30 30 1 25 21
M  V30 31 1 1 28
M  V30 32 1 1 29
M  V30 33 1 6 30
M  V30 34 1 7 31
M  V30 35 1 9 32
M  V30 36 1 11 33
M  V30 37 1 13 34
M  V30 38 1 14 35
M  V30 39 1 15 36
M  V30 40 1 15 37
M  V30 41 1 16 38
M  V30 42 1 16 39
M  V30 43 1 17 40
M  V30 44 1 17 41
M  V30 45 1 18 42
M  V30 46 1 18 43
M  V30 47 1 19 44
M  V30 48 1 19 45
M  V30 49 1 23 46
M  V30 50 1 26 47
M  V30 51 1 27 48
M  V30 END BOND
M  V30 END CTAB
M  END
>  <Dataset>  (385) 
ChEMBL_Kinases

>  <Ligand_Instance>  (385) 
nan

>  <PDB_ID>  (385) 
nan

>  <Standardized_SMILES>  (385) 
NS(=O)(=O)c1ccc(Nc2cc(NC3CCCCC3)nc3ncnn23)cc1

>  <Name>  (385) 
nan

>  <Pocket>  (385) 
nan

>  <ATP_Site>  (385) 
nan

>  <Peripheral>  (385) 
nan

>  <Num_H_Atoms_ProtBoundConf>  (385) 
nan

>  <Num_Resolved_Atoms>  (385) 
nan

>  <Num_Not_Resolved_Atoms>  (385) 
nan

$$$$
CHEMBL560521
     RDKit          3D

  0  0  0  0  0  0  0  0  0  0999 V3000
M  V30 BEGIN CTAB
M  V30 COUNTS 43 46 0 0 0
M  V30 BEGIN ATOM
M  V30 1 C -0.915673 -3.164710 3.026434 0
M  V30 2 N -0.330159 -2.673074 1.783748 0
M  V30 3 C -0.829866 -1.669103 1.022231 0
M  V30 4 C -0.008929 -1.474220 -0.086852 0
M  V30 5 C -0.211833 -0.482580 -1.142871 0
M  V30 6 N -0.414536 -0.875731 -2.406773 0
M  V30 7 C -0.605335 -0.004974 -3.414515 0
M  V30 8 N -0.822757 -0.438763 -4.773300 0
M  V30 9 N -0.601201 1.335417 -3.193240 0
M  V30 10 C -0.400238 1.804304 -1.928286 0
M  V30 11 C -0.205757 0.896627 -0.903968 0
M  V30 12 C 0.016782 1.286135 0.483092 0
M  V30 13 C 1.231299 0.937713 1.074897 0
M  V30 14 C 1.531038 1.270026 2.401010 0
M  V30 15 C 0.555740 1.961924 3.088400 0
M  V30 16 C 0.907154 2.287444 4.465105 0
M  V30 17 N 0.178807 2.984351 5.466666 0
M  V30 18 O 2.015961 1.940157 4.945814 0
M  V30 19 C -0.663941 2.337426 2.566398 0
M  V30 20 C -0.898111 1.978965 1.251443 0
M  V30 21 C 1.011134 -2.405691 0.037211 0
M  V30 22 C 2.106007 -2.680820 -0.757245 0
M  V30 23 C 3.001158 -3.686926 -0.407120 0
M  V30 24 C 2.811688 -4.439016 0.753900 0
M  V30 25 C 1.694113 -4.122637 1.519394 0
M  V30 26 C 0.790564 -3.130740 1.196033 0
M  V30 27 H -1.512745 -4.066276 2.790247 0
M  V30 28 H -0.139788 -3.356132 3.787294 0
M  V30 29 H -1.548754 -2.356200 3.439406 0
M  V30 30 H -1.731434 -1.123964 1.268652 0
M  V30 31 H -1.631541 -0.194051 -5.390547 0
M  V30 32 H -0.102810 -1.072278 -5.216669 0
M  V30 33 H -0.388484 2.870098 -1.701842 0
M  V30 34 H 1.957287 0.395624 0.487007 0
M  V30 35 H 2.481717 0.979382 2.813126 0
M  V30 36 H -0.462164 2.591661 6.205437 0
M  V30 37 H 0.159129 4.015211 5.637889 0
M  V30 38 H -1.402679 2.879288 3.137117 0
M  V30 39 H -1.848309 2.253025 0.792507 0
M  V30 40 H 2.286926 -2.124502 -1.658969 0
M  V30 41 H 3.868459 -3.902204 -1.039839 0
M  V30 42 H 3.502791 -5.224012 1.035098 0
M  V30 43 H 1.544255 -4.715558 2.435272 0
M  V30 END ATOM
M  V30 BEGIN BOND
M  V30 1 1 1 2
M  V30 2 1 2 3
M  V30 3 2 3 4
M  V30 4 1 4 5
M  V30 5 2 5 6
M  V30 6 1 6 7
M  V30 7 1 7 8
M  V30 8 2 7 9
M  V30 9 1 9 10
M  V30 10 2 10 11
M  V30 11 1 11 12
M  V30 12 2 12 13
M  V30 13 1 13 14
M  V30 14 2 14 15
M  V30 15 1 15 16
M  V30 16 1 16 17
M  V30 17 2 16 18
M  V30 18 1 15 19
M  V30 19 2 19 20
M  V30 20 1 4 21
M  V30 21 2 21 22
M  V30 22 1 22 23
M  V30 23 2 23 24
M  V30 24 1 24 25
M  V30 25 2 25 26
M  V30 26 1 26 2
M  V30 27 1 11 5
M  V30 28 1 20 12
M  V30 29 1 26 21
M  V30 30 1 1 27
M  V30 31 1 1 28
M  V30 32 1 1 29
M  V30 33 1 3 30
M  V30 34 1 8 31
M  V30 35 1 8 32
M  V30 36 1 10 33
M  V30 37 1 13 34
M  V30 38 1 14 35
M  V30 39 1 17 36
M  V30 40 1 17 37
M  V30 41 1 19 38
M  V30 42 1 20 39
M  V30 43 1 22 40
M  V30 44 1 23 41
M  V30 45 1 24 42
M  V30 46 1 25 43
M  V30 END BOND
M  V30 END CTAB
M  END
>  <Dataset>  (386) 
ChEMBL_Kinases

>  <Ligand_Instance>  (386) 
nan

>  <PDB_ID>  (386) 
nan

>  <Standardized_SMILES>  (386) 
Cn1cc(-c2nc(N)ncc2-c2ccc(C(N)=O)cc2)c2ccccc21

>  <Name>  (386) 
nan

>  <Pocket>  (386) 
nan

>  <ATP_Site>  (386) 
nan

>  <Peripheral>  (386) 
nan

>  <Num_H_Atoms_ProtBoundConf>  (386) 
nan

>  <Num_Resolved_Atoms>  (386) 
nan

>  <Num_Not_Resolved_Atoms>  (386) 
nan

$$$$
CHEMBL2035022
     RDKit          3D

  0  0  0  0  0  0  0  0  0  0999 V3000
M  V30 BEGIN CTAB
M  V30 COUNTS 51 55 0 0 0
M  V30 BEGIN ATOM
M  V30 1 N 1.909374 -2.391752 7.566891 0
M  V30 2 C 2.667979 -1.337247 6.995240 0
M  V30 3 O 3.532260 -0.861055 7.742748 0
M  V30 4 C 2.387313 -0.910757 5.632076 0
M  V30 5 C 3.116677 0.112706 5.064348 0
M  V30 6 C 2.917225 0.577397 3.781755 0
M  V30 7 N 1.929946 -0.037825 3.063315 0
M  V30 8 C 1.475850 0.155450 1.811547 0
M  V30 9 C 1.908859 1.103028 0.824716 0
M  V30 10 C 2.452063 0.867138 -0.427743 0
M  V30 11 C 2.816201 1.930630 -1.250946 0
M  V30 12 C 2.646441 3.240765 -0.842933 0
M  V30 13 C 2.102919 3.514767 0.410788 0
M  V30 14 C 1.757832 2.434689 1.190027 0
M  V30 15 C 0.456187 -0.749223 1.588630 0
M  V30 16 C -0.393378 -1.007757 0.432406 0
M  V30 17 C -1.251197 -0.069633 -0.103057 0
M  V30 18 C -2.036888 -0.356089 -1.196896 0
M  V30 19 C -2.010400 -1.585706 -1.813122 0
M  V30 20 C -2.743016 -2.114289 -2.973725 0
M  V30 21 N -1.990171 -3.021581 -3.818096 0
M  V30 22 C -4.079057 -2.765870 -2.628041 0
M  V30 23 C -4.817358 -1.610987 -3.274764 0
M  V30 24 C -3.488772 -1.105108 -3.793768 0
M  V30 25 C -1.142195 -2.547415 -1.277472 0
M  V30 26 C -0.349816 -2.248421 -0.168837 0
M  V30 27 N 0.301893 -1.485345 2.713302 0
M  V30 28 C 1.220929 -1.036317 3.622249 0
M  V30 29 C 1.393586 -1.526526 4.902104 0
M  V30 30 H 1.952472 -2.720995 8.553353 0
M  V30 31 H 1.192442 -3.138815 7.454075 0
M  V30 32 H 3.888863 0.566125 5.681062 0
M  V30 33 H 3.487232 1.380724 3.330559 0
M  V30 34 H 2.552359 -0.181671 -0.672899 0
M  V30 35 H 3.237335 1.682034 -2.222981 0
M  V30 36 H 2.936851 4.055027 -1.500196 0
M  V30 37 H 1.986244 4.532381 0.691977 0
M  V30 38 H 1.340745 2.736512 2.154974 0
M  V30 39 H -1.316866 0.915106 0.336950 0
M  V30 40 H -2.727306 0.323165 -1.666740 0
M  V30 41 H -2.026590 -3.972831 -3.405953 0
M  V30 42 H -0.994476 -2.735541 -3.857423 0
M  V30 43 H -4.279749 -3.732280 -3.132417 0
M  V30 44 H -4.254222 -2.898331 -1.538123 0
M  V30 45 H -5.305597 -0.896009 -2.611988 0
M  V30 46 H -5.532802 -1.947293 -4.072055 0
M  V30 47 H -3.258758 -0.063892 -3.580194 0
M  V30 48 H -3.434687 -1.301237 -4.886778 0
M  V30 49 H -1.004090 -3.572615 -1.652293 0
M  V30 50 H 0.330272 -2.988867 0.257139 0
M  V30 51 H 0.786745 -2.335073 5.291870 0
M  V30 END ATOM
M  V30 BEGIN BOND
M  V30 1 1 1 2
M  V30 2 2 2 3
M  V30 3 1 2 4
M  V30 4 1 4 5
M  V30 5 2 5 6
M  V30 6 1 6 7
M  V30 7 1 7 8
M  V30 8 1 8 9
M  V30 9 2 9 10
M  V30 10 1 10 11
M  V30 11 2 11 12
M  V30 12 1 12 13
M  V30 13 2 13 14
M  V30 14 2 8 15
M  V30 15 1 15 16
M  V30 16 2 16 17
M  V30 17 1 17 18
M  V30 18 2 18 19
M  V30 19 1 19 20
M  V30 20 1 20 21
M  V30 21 1 20 22
M  V30 22 1 22 23
M  V30 23 1 23 24
M  V30 24 1 19 25
M  V30 25 2 25 26
M  V30 26 1 15 27
M  V30 27 2 27 28
M  V30 28 1 28 29
M  V30 29 2 29 4
M  V30 30 1 28 7
M  V30 31 1 14 9
M  V30 32 1 26 16
M  V30 33 1 24 20
M  V30 34 1 1 30
M  V30 35 1 1 31
M  V30 36 1 5 32
M  V30 37 1 6 33
M  V30 38 1 10 34
M  V30 39 1 11 35
M  V30 40 1 12 36
M  V30 41 1 13 37
M  V30 42 1 14 38
M  V30 43 1 17 39
M  V30 44 1 18 40
M  V30 45 1 21 41
M  V30 46 1 21 42
M  V30 47 1 22 43
M  V30 48 1 22 44
M  V30 49 1 23 45
M  V30 50 1 23 46
M  V30 51 1 24 47
M  V30 52 1 24 48
M  V30 53 1 25 49
M  V30 54 1 26 50
M  V30 55 1 29 51
M  V30 END BOND
M  V30 END CTAB
M  END
>  <Dataset>  (387) 
ChEMBL_Kinases

>  <Ligand_Instance>  (387) 
nan

>  <PDB_ID>  (387) 
nan

>  <Standardized_SMILES>  (387) 
NC(=O)c1ccn2c(-c3ccccc3)c(-c3ccc(C4(N)CCC4)cc3)nc2c1

>  <Name>  (387) 
nan

>  <Pocket>  (387) 
nan

>  <ATP_Site>  (387) 
nan

>  <Peripheral>  (387) 
nan

>  <Num_H_Atoms_ProtBoundConf>  (387) 
nan

>  <Num_Resolved_Atoms>  (387) 
nan

>  <Num_Not_Resolved_Atoms>  (387) 
nan

$$$$
CHEMBL2035021
     RDKit          3D

  0  0  0  0  0  0  0  0  0  0999 V3000
M  V30 BEGIN CTAB
M  V30 COUNTS 47 51 0 0 0
M  V30 BEGIN ATOM
M  V30 1 N 1.652841 -4.720957 3.282175 0
M  V30 2 C 0.471392 -4.334474 2.482636 0
M  V30 3 C 0.767775 -3.170708 1.664325 0
M  V30 4 C 0.887188 -2.956688 0.299259 0
M  V30 5 C 1.136792 -1.736028 -0.283794 0
M  V30 6 C 1.283464 -0.624086 0.528021 0
M  V30 7 C 1.546763 0.647490 -0.148907 0
M  V30 8 N 2.571270 1.173247 -0.799266 0
M  V30 9 C 2.256492 2.432922 -1.234005 0
M  V30 10 C 3.013540 3.345637 -1.950699 0
M  V30 11 C 2.407894 4.547613 -2.243306 0
M  V30 12 C 1.124336 4.881549 -1.871085 0
M  V30 13 C 0.449259 3.904121 -1.158568 0
M  V30 14 N 0.984496 2.717715 -0.844653 0
M  V30 15 C 0.556986 1.605667 -0.174931 0
M  V30 16 C -0.796837 1.598892 0.367723 0
M  V30 17 C -1.768210 0.728441 -0.139202 0
M  V30 18 C -3.064561 0.683779 0.340612 0
M  V30 19 C -3.395935 1.545486 1.366786 0
M  V30 20 C -2.493098 2.424950 1.911247 0
M  V30 21 C -1.188849 2.448209 1.406106 0
M  V30 22 C 1.176202 -0.772333 1.896062 0
M  V30 23 C 0.925331 -2.015971 2.436384 0
M  V30 24 C -0.039223 -5.543545 1.717339 0
M  V30 25 C -1.423212 -5.245009 2.268699 0
M  V30 26 C -0.795930 -4.335254 3.291708 0
M  V30 27 H 2.377867 -3.994190 3.216973 0
M  V30 28 H 1.317242 -4.841811 4.255548 0
M  V30 29 H 0.764887 -3.863770 -0.273278 0
M  V30 30 H 1.202053 -1.753741 -1.377695 0
M  V30 31 H 4.029181 3.118364 -2.261330 0
M  V30 32 H 2.941909 5.327861 -2.807959 0
M  V30 33 H 0.639334 5.818370 -2.094263 0
M  V30 34 H -0.574212 4.138103 -0.849660 0
M  V30 35 H -1.503713 0.045469 -0.955942 0
M  V30 36 H -3.804044 -0.000240 -0.068442 0
M  V30 37 H -4.416562 1.510204 1.742579 0
M  V30 38 H -2.773732 3.102513 2.727904 0
M  V30 39 H -0.459559 3.147410 1.838089 0
M  V30 40 H 1.302021 0.150852 2.450277 0
M  V30 41 H 0.869327 -1.969673 3.517063 0
M  V30 42 H 0.033687 -5.472172 0.620650 0
M  V30 43 H 0.351369 -6.522448 2.115366 0
M  V30 44 H -1.892294 -6.170862 2.641222 0
M  V30 45 H -2.074936 -4.665774 1.576162 0
M  V30 46 H -0.668790 -4.886453 4.263449 0
M  V30 47 H -1.317114 -3.392946 3.434215 0
M  V30 END ATOM
M  V30 BEGIN BOND
M  V30 1 1 1 2
M  V30 2 1 2 3
M  V30 3 2 3 4
M  V30 4 1 4 5
M  V30 5 2 5 6
M  V30 6 1 6 7
M  V30 7 1 7 8
M  V30 8 2 8 9
M  V30 9 1 9 10
M  V30 10 2 10 11
M  V30 11 1 11 12
M  V30 12 2 12 13
M  V30 13 1 13 14
M  V30 14 1 14 15
M  V30 15 1 15 16
M  V30 16 2 16 17
M  V30 17 1 17 18
M  V30 18 2 18 19
M  V30 19 1 19 20
M  V30 20 2 20 21
M  V30 21 1 6 22
M  V30 22 2 22 23
M  V30 23 1 2 24
M  V30 24 1 24 25
M  V30 25 1 25 26
M  V30 26 1 26 2
M  V30 27 1 23 3
M  V30 28 2 15 7
M  V30 29 1 21 16
M  V30 30 1 14 9
M  V30 31 1 1 27
M  V30 32 1 1 28
M  V30 33 1 4 29
M  V30 34 1 5 30
M  V30 35 1 10 31
M  V30 36 1 11 32
M  V30 37 1 12 33
M  V30 38 1 13 34
M  V30 39 1 17 35
M  V30 40 1 18 36
M  V30 41 1 19 37
M  V30 42 1 20 38
M  V30 43 1 21 39
M  V30 44 1 22 40
M  V30 45 1 23 41
M  V30 46 1 24 42
M  V30 47 1 24 43
M  V30 48 1 25 44
M  V30 49 1 25 45
M  V30 50 1 26 46
M  V30 51 1 26 47
M  V30 END BOND
M  V30 END CTAB
M  END
>  <Dataset>  (388) 
ChEMBL_Kinases

>  <Ligand_Instance>  (388) 
nan

>  <PDB_ID>  (388) 
nan

>  <Standardized_SMILES>  (388) 
NC1(c2ccc(-c3nc4ccccn4c3-c3ccccc3)cc2)CCC1

>  <Name>  (388) 
nan

>  <Pocket>  (388) 
nan

>  <ATP_Site>  (388) 
nan

>  <Peripheral>  (388) 
nan

>  <Num_H_Atoms_ProtBoundConf>  (388) 
nan

>  <Num_Resolved_Atoms>  (388) 
nan

>  <Num_Not_Resolved_Atoms>  (388) 
nan

$$$$
CHEMBL1947252
     RDKit          3D

  0  0  0  0  0  0  0  0  0  0999 V3000
M  V30 BEGIN CTAB
M  V30 COUNTS 47 50 0 0 0
M  V30 BEGIN ATOM
M  V30 1 C -2.649172 -5.958240 -1.386102 0
M  V30 2 O -3.251183 -4.681185 -1.525941 0
M  V30 3 C -2.535827 -3.570959 -1.094416 0
M  V30 4 C -1.278242 -3.761479 -0.552107 0
M  V30 5 C -0.518021 -2.673899 -0.102843 0
M  V30 6 C -1.033798 -1.398742 -0.204410 0
M  V30 7 C -0.266699 -0.243782 0.254717 0
M  V30 8 C 1.016306 -0.327533 0.818831 0
M  V30 9 C 1.274063 1.013201 1.071977 0
M  V30 10 C 0.219939 1.870597 0.686399 0
M  V30 11 N -0.707651 1.037482 0.187653 0
M  V30 12 C 0.198616 3.349366 0.805761 0
M  V30 13 O -0.932144 3.824127 0.563969 0
M  V30 14 N 1.366529 4.127473 1.162445 0
M  V30 15 C 2.594965 3.845384 1.881798 0
M  V30 16 C 3.351053 2.647953 1.330808 0
M  V30 17 C 2.545972 1.468865 1.690404 0
M  V30 18 C 2.914958 0.701549 2.724291 0
M  V30 19 N 2.246874 -0.419442 3.253654 0
M  V30 20 C 3.032047 -0.937780 4.311683 0
M  V30 21 N 2.867230 -2.052095 5.206325 0
M  V30 22 N 4.095843 -0.220311 4.448913 0
M  V30 23 C 4.137828 0.849538 3.502401 0
M  V30 24 O 5.047586 1.709994 3.396187 0
M  V30 25 C -2.291290 -1.244372 -0.750326 0
M  V30 26 C -3.061164 -2.297748 -1.200445 0
M  V30 27 O -4.306453 -2.176341 -1.744242 0
M  V30 28 C -5.025353 -0.983157 -1.944798 0
M  V30 29 H -3.255849 -6.749578 -1.850364 0
M  V30 30 H -1.649503 -5.890952 -1.892638 0
M  V30 31 H -2.406128 -6.163153 -0.319872 0
M  V30 32 H -0.801559 -4.722602 -0.436297 0
M  V30 33 H 0.479176 -2.774913 0.332235 0
M  V30 34 H 1.653001 -1.155978 0.990113 0
M  V30 35 H -1.605828 1.377474 -0.179050 0
M  V30 36 H 1.212179 5.112962 0.779359 0
M  V30 37 H 3.192174 4.752074 1.945323 0
M  V30 38 H 2.258140 3.526885 2.904825 0
M  V30 39 H 3.246493 2.812525 0.209291 0
M  V30 40 H 4.406022 2.628761 1.468683 0
M  V30 41 H 1.358637 -0.904495 3.086927 0
M  V30 42 H 3.488340 -2.898981 5.046569 0
M  V30 43 H 2.235026 -2.217090 6.022584 0
M  V30 44 H -2.745742 -0.271035 -0.854978 0
M  V30 45 H -5.747918 -1.058087 -2.762666 0
M  V30 46 H -4.288411 -0.185131 -2.191389 0
M  V30 47 H -5.490979 -0.661418 -0.969645 0
M  V30 END ATOM
M  V30 BEGIN BOND
M  V30 1 1 1 2
M  V30 2 1 2 3
M  V30 3 2 3 4
M  V30 4 1 4 5
M  V30 5 2 5 6
M  V30 6 1 6 7
M  V30 7 2 7 8
M  V30 8 1 8 9
M  V30 9 2 9 10
M  V30 10 1 10 11
M  V30 11 1 10 12
M  V30 12 2 12 13
M  V30 13 1 12 14
M  V30 14 1 14 15
M  V30 15 1 15 16
M  V30 16 1 16 17
M  V30 17 2 17 18
M  V30 18 1 18 19
M  V30 19 1 19 20
M  V30 20 1 20 21
M  V30 21 2 20 22
M  V30 22 1 22 23
M  V30 23 2 23 24
M  V30 24 1 6 25
M  V30 25 2 25 26
M  V30 26 1 26 27
M  V30 27 1 27 28
M  V30 28 1 26 3
M  V30 29 1 11 7
M  V30 30 1 23 18
M  V30 31 1 17 9
M  V30 32 1 1 29
M  V30 33 1 1 30
M  V30 34 1 1 31
M  V30 35 1 4 32
M  V30 36 1 5 33
M  V30 37 1 8 34
M  V30 38 1 11 35
M  V30 39 1 14 36
M  V30 40 1 15 37
M  V30 41 1 15 38
M  V30 42 1 16 39
M  V30 43 1 16 40
M  V30 44 1 19 41
M  V30 45 1 21 42
M  V30 46 1 21 43
M  V30 47 1 25 44
M  V30 48 1 28 45
M  V30 49 1 28 46
M  V30 50 1 28 47
M  V30 END BOND
M  V30 END CTAB
M  END
>  <Dataset>  (389) 
ChEMBL_Kinases

>  <Ligand_Instance>  (389) 
nan

>  <PDB_ID>  (389) 
nan

>  <Standardized_SMILES>  (389) 
COc1ccc(-c2cc3c([nH]2)C(=O)NCC/C3=C2/NC(N)=NC2=O)cc1OC

>  <Name>  (389) 
nan

>  <Pocket>  (389) 
nan

>  <ATP_Site>  (389) 
nan

>  <Peripheral>  (389) 
nan

>  <Num_H_Atoms_ProtBoundConf>  (389) 
nan

>  <Num_Resolved_Atoms>  (389) 
nan

>  <Num_Not_Resolved_Atoms>  (389) 
nan

$$$$
CHEMBL559734
     RDKit          3D

  0  0  0  0  0  0  0  0  0  0999 V3000
M  V30 BEGIN CTAB
M  V30 COUNTS 38 41 0 0 0
M  V30 BEGIN ATOM
M  V30 1 N -0.146550 -1.748698 4.519879 0
M  V30 2 C 0.657442 -1.812244 3.345982 0
M  V30 3 C 1.254490 -3.008230 2.997977 0
M  V30 4 C 2.038382 -3.057000 1.847544 0
M  V30 5 C 2.185902 -1.902519 1.100616 0
M  V30 6 C 1.589316 -0.693215 1.441886 0
M  V30 7 C 1.864365 0.398727 0.532041 0
M  V30 8 C 3.177220 0.784659 0.353891 0
M  V30 9 N 3.436813 1.801548 -0.493303 0
M  V30 10 C 2.438336 2.423068 -1.147717 0
M  V30 11 N 2.797679 3.488078 -2.024648 0
M  V30 12 N 1.172979 2.048024 -0.973351 0
M  V30 13 C 0.842364 1.037826 -0.140295 0
M  V30 14 C -0.555197 0.653134 0.026955 0
M  V30 15 C -1.463086 1.567497 0.550097 0
M  V30 16 N -2.682005 0.999839 0.612986 0
M  V30 17 C -2.614814 -0.259601 0.149746 0
M  V30 18 C -3.510850 -1.311599 -0.030371 0
M  V30 19 C -3.079093 -2.510065 -0.551472 0
M  V30 20 C -1.741000 -2.688494 -0.906132 0
M  V30 21 C -0.816838 -1.656803 -0.739403 0
M  V30 22 C -1.304383 -0.480416 -0.213951 0
M  V30 23 C 0.818037 -0.671393 2.585762 0
M  V30 24 H -0.955911 -2.395351 4.394611 0
M  V30 25 H -0.088625 -1.211289 5.432345 0
M  V30 26 H 1.120479 -3.896091 3.603311 0
M  V30 27 H 2.504688 -3.974187 1.567945 0
M  V30 28 H 2.813108 -2.014181 0.213327 0
M  V30 29 H 3.994245 0.312452 0.858053 0
M  V30 30 H 2.996514 3.026086 -2.954739 0
M  V30 31 H 2.851677 4.505793 -1.793089 0
M  V30 32 H -1.319138 2.595216 0.884906 0
M  V30 33 H -3.589324 1.419604 0.959784 0
M  V30 34 H -4.535199 -1.114355 0.262645 0
M  V30 35 H -3.823767 -3.297374 -0.670010 0
M  V30 36 H -1.438826 -3.661936 -1.318801 0
M  V30 37 H 0.212505 -1.806093 -1.017061 0
M  V30 38 H 0.372783 0.288451 2.814236 0
M  V30 END ATOM
M  V30 BEGIN BOND
M  V30 1 1 1 2
M  V30 2 2 2 3
M  V30 3 1 3 4
M  V30 4 2 4 5
M  V30 5 1 5 6
M  V30 6 1 6 7
M  V30 7 2 7 8
M  V30 8 1 8 9
M  V30 9 2 9 10
M  V30 10 1 10 11
M  V30 11 1 10 12
M  V30 12 2 12 13
M  V30 13 1 13 14
M  V30 14 2 14 15
M  V30 15 1 15 16
M  V30 16 1 16 17
M  V30 17 2 17 18
M  V30 18 1 18 19
M  V30 19 2 19 20
M  V30 20 1 20 21
M  V30 21 2 21 22
M  V30 22 2 6 23
M  V30 23 1 23 2
M  V30 24 1 13 7
M  V30 25 1 22 14
M  V30 26 1 22 17
M  V30 27 1 1 24
M  V30 28 1 1 25
M  V30 29 1 3 26
M  V30 30 1 4 27
M  V30 31 1 5 28
M  V30 32 1 8 29
M  V30 33 1 11 30
M  V30 34 1 11 31
M  V30 35 1 15 32
M  V30 36 1 16 33
M  V30 37 1 18 34
M  V30 38 1 19 35
M  V30 39 1 20 36
M  V30 40 1 21 37
M  V30 41 1 23 38
M  V30 END BOND
M  V30 END CTAB
M  END
>  <Dataset>  (390) 
ChEMBL_Kinases

>  <Ligand_Instance>  (390) 
nan

>  <PDB_ID>  (390) 
nan

>  <Standardized_SMILES>  (390) 
Nc1cccc(-c2cnc(N)nc2-c2c[nH]c3ccccc23)c1

>  <Name>  (390) 
nan

>  <Pocket>  (390) 
nan

>  <ATP_Site>  (390) 
nan

>  <Peripheral>  (390) 
nan

>  <Num_H_Atoms_ProtBoundConf>  (390) 
nan

>  <Num_Resolved_Atoms>  (390) 
nan

>  <Num_Not_Resolved_Atoms>  (390) 
nan

$$$$
CHEMBL559591
     RDKit          3D

  0  0  0  0  0  0  0  0  0  0999 V3000
M  V30 BEGIN CTAB
M  V30 COUNTS 40 43 0 0 0
M  V30 BEGIN ATOM
M  V30 1 N 2.458761 -4.944329 2.508464 0
M  V30 2 C 2.752658 -3.575496 2.526737 0
M  V30 3 O 3.519449 -3.447156 3.510538 0
M  V30 4 C 2.234009 -2.627757 1.579975 0
M  V30 5 C 2.616499 -1.316845 1.743995 0
M  V30 6 C 2.095331 -0.419408 0.806280 0
M  V30 7 C 1.256427 -0.821372 -0.211844 0
M  V30 8 C 0.741972 0.173908 -1.167976 0
M  V30 9 C 1.132602 -0.029931 -2.486991 0
M  V30 10 N 0.660721 0.888129 -3.376986 0
M  V30 11 C -0.124839 1.908514 -2.980712 0
M  V30 12 N -0.519417 2.762791 -4.048565 0
M  V30 13 N -0.504320 2.102132 -1.682815 0
M  V30 14 C -0.061820 1.213225 -0.745276 0
M  V30 15 C -0.436515 1.369765 0.652534 0
M  V30 16 C -0.071353 2.468941 1.413037 0
M  V30 17 N -0.547106 2.370434 2.679054 0
M  V30 18 C -1.218944 1.214259 2.745602 0
M  V30 19 C -1.919763 0.572960 3.769742 0
M  V30 20 C -2.533876 -0.645549 3.555689 0
M  V30 21 C -2.464322 -1.259355 2.307240 0
M  V30 22 C -1.766989 -0.629497 1.274479 0
M  V30 23 C -1.175830 0.570210 1.525789 0
M  V30 24 C 0.916146 -2.165685 -0.310518 0
M  V30 25 C 1.405690 -3.108863 0.597128 0
M  V30 26 H 2.248711 -5.938674 2.499449 0
M  V30 27 H 1.877897 -5.615638 1.959855 0
M  V30 28 H 3.268407 -1.075743 2.554761 0
M  V30 29 H 2.386882 0.623339 0.919379 0
M  V30 30 H 1.763757 -0.859598 -2.770630 0
M  V30 31 H -1.124095 2.335804 -4.785849 0
M  V30 32 H -0.398739 3.767533 -4.377976 0
M  V30 33 H 0.517446 3.320466 1.081014 0
M  V30 34 H -0.435560 3.037472 3.471553 0
M  V30 35 H -1.993204 1.026853 4.759727 0
M  V30 36 H -3.085564 -1.148080 4.365124 0
M  V30 37 H -2.949269 -2.216196 2.146615 0
M  V30 38 H -1.715037 -1.114266 0.295971 0
M  V30 39 H 0.247051 -2.471775 -1.126821 0
M  V30 40 H 1.149624 -4.143969 0.529055 0
M  V30 END ATOM
M  V30 BEGIN BOND
M  V30 1 1 1 2
M  V30 2 2 2 3
M  V30 3 1 2 4
M  V30 4 2 4 5
M  V30 5 1 5 6
M  V30 6 2 6 7
M  V30 7 1 7 8
M  V30 8 2 8 9
M  V30 9 1 9 10
M  V30 10 2 10 11
M  V30 11 1 11 12
M  V30 12 1 11 13
M  V30 13 2 13 14
M  V30 14 1 14 15
M  V30 15 2 15 16
M  V30 16 1 16 17
M  V30 17 1 17 18
M  V30 18 2 18 19
M  V30 19 1 19 20
M  V30 20 2 20 21
M  V30 21 1 21 22
M  V30 22 2 22 23
M  V30 23 1 7 24
M  V30 24 2 24 25
M  V30 25 1 25 4
M  V30 26 1 14 8
M  V30 27 1 23 15
M  V30 28 1 23 18
M  V30 29 1 1 26
M  V30 30 1 1 27
M  V30 31 1 5 28
M  V30 32 1 6 29
M  V30 33 1 9 30
M  V30 34 1 12 31
M  V30 35 1 12 32
M  V30 36 1 16 33
M  V30 37 1 17 34
M  V30 38 1 19 35
M  V30 39 1 20 36
M  V30 40 1 21 37
M  V30 41 1 22 38
M  V30 42 1 24 39
M  V30 43 1 25 40
M  V30 END BOND
M  V30 END CTAB
M  END
>  <Dataset>  (391) 
ChEMBL_Kinases

>  <Ligand_Instance>  (391) 
nan

>  <PDB_ID>  (391) 
nan

>  <Standardized_SMILES>  (391) 
NC(=O)c1ccc(-c2cnc(N)nc2-c2c[nH]c3ccccc23)cc1

>  <Name>  (391) 
nan

>  <Pocket>  (391) 
nan

>  <ATP_Site>  (391) 
nan

>  <Peripheral>  (391) 
nan

>  <Num_H_Atoms_ProtBoundConf>  (391) 
nan

>  <Num_Resolved_Atoms>  (391) 
nan

>  <Num_Not_Resolved_Atoms>  (391) 
nan

$$$$
CHEMBL130631
     RDKit          3D

  0  0  0  0  0  0  0  0  0  0999 V3000
M  V30 BEGIN CTAB
M  V30 COUNTS 53 56 0 0 0
M  V30 BEGIN ATOM
M  V30 1 N 5.940142 -6.177168 0.520416 0
M  V30 2 C 4.733079 -5.451560 0.279499 0
M  V30 3 O 3.827794 -6.231407 -0.109863 0
M  V30 4 C 4.696579 -4.021835 0.494081 0
M  V30 5 C 5.817905 -3.351292 0.928779 0
M  V30 6 C 5.790992 -2.004367 1.133129 0
M  V30 7 C 4.668990 -1.221693 0.927245 0
M  V30 8 N 4.678002 0.179860 1.150344 0
M  V30 9 C 3.626262 1.116195 0.994777 0
M  V30 10 N 3.858583 2.409072 1.262191 0
M  V30 11 C 2.948496 3.368607 1.151162 0
M  V30 12 C 1.679927 3.030399 0.735892 0
M  V30 13 C 1.385565 1.718297 0.447762 0
M  V30 14 C 0.052520 1.338264 0.007897 0
M  V30 15 C -0.971729 2.238949 -0.145059 0
M  V30 16 C -2.242572 1.897034 -0.561157 0
M  V30 17 C -2.537101 0.572485 -0.850675 0
M  V30 18 S -4.156697 0.168690 -1.376405 0
M  V30 19 O -4.109165 -1.063393 -2.271874 0
M  V30 20 O -4.724095 1.252268 -2.256583 0
M  V30 21 N -5.195667 -0.213347 -0.086382 0
M  V30 22 C -5.400438 0.843942 0.850333 0
M  V30 23 C -5.882440 0.378668 2.192967 0
M  V30 24 N -6.668514 -0.833782 2.031136 0
M  V30 25 C -5.881066 -1.919800 1.528813 0
M  V30 26 C -4.832791 -1.433834 0.559108 0
M  V30 27 C -1.544659 -0.374694 -0.713987 0
M  V30 28 C -0.298749 0.041406 -0.293540 0
M  V30 29 N 2.388011 0.850002 0.599371 0
M  V30 30 C 3.579361 -1.945915 0.493392 0
M  V30 31 C 3.546148 -3.299888 0.270285 0
M  V30 32 H 6.051354 -6.766306 1.387979 0
M  V30 33 H 6.860887 -6.303068 0.012163 0
M  V30 34 H 6.736676 -3.894346 1.112838 0
M  V30 35 H 6.708795 -1.521499 1.478550 0
M  V30 36 H 5.604316 0.549216 1.475120 0
M  V30 37 H 3.228181 4.391503 1.390110 0
M  V30 38 H 0.992925 3.835426 0.664623 0
M  V30 39 H -0.841198 3.284826 0.054340 0
M  V30 40 H -3.030871 2.626133 -0.673286 0
M  V30 41 H -4.397107 1.318432 1.006543 0
M  V30 42 H -6.044345 1.671812 0.482143 0
M  V30 43 H -4.995889 0.072643 2.786271 0
M  V30 44 H -6.397144 1.144764 2.771933 0
M  V30 45 H -7.100481 -1.134524 2.928758 0
M  V30 46 H -5.401342 -2.522286 2.322532 0
M  V30 47 H -6.567469 -2.595167 0.980277 0
M  V30 48 H -4.684504 -2.235880 -0.204549 0
M  V30 49 H -3.859875 -1.376506 1.122157 0
M  V30 50 H -1.786476 -1.388439 -0.940297 0
M  V30 51 H 0.422790 -0.757939 -0.211294 0
M  V30 52 H 2.647823 -1.451116 0.297819 0
M  V30 53 H 2.666349 -3.821824 -0.070179 0
M  V30 END ATOM
M  V30 BEGIN BOND
M  V30 1 1 1 2
M  V30 2 2 2 3
M  V30 3 1 2 4
M  V30 4 2 4 5
M  V30 5 1 5 6
M  V30 6 2 6 7
M  V30 7 1 7 8
M  V30 8 1 8 9
M  V30 9 2 9 10
M  V30 10 1 10 11
M  V30 11 2 11 12
M  V30 12 1 12 13
M  V30 13 1 13 14
M  V30 14 2 14 15
M  V30 15 1 15 16
M  V30 16 2 16 17
M  V30 17 1 17 18
M  V30 18 2 18 19
M  V30 19 2 18 20
M  V30 20 1 18 21
M  V30 21 1 21 22
M  V30 22 1 22 23
M  V30 23 1 23 24
M  V30 24 1 24 25
M  V30 25 1 25 26
M  V30 26 1 17 27
M  V30 27 2 27 28
M  V30 28 2 13 29
M  V30 29 1 7 30
M  V30 30 2 30 31
M  V30 31 1 31 4
M  V30 32 1 29 9
M  V30 33 1 28 14
M  V30 34 1 26 21
M  V30 35 1 1 32
M  V30 36 1 1 33
M  V30 37 1 5 34
M  V30 38 1 6 35
M  V30 39 1 8 36
M  V30 40 1 11 37
M  V30 41 1 12 38
M  V30 42 1 15 39
M  V30 43 1 16 40
M  V30 44 1 22 41
M  V30 45 1 22 42
M  V30 46 1 23 43
M  V30 47 1 23 44
M  V30 48 1 24 45
M  V30 49 1 25 46
M  V30 50 1 25 47
M  V30 51 1 26 48
M  V30 52 1 26 49
M  V30 53 1 27 50
M  V30 54 1 28 51
M  V30 55 1 30 52
M  V30 56 1 31 53
M  V30 END BOND
M  V30 END CTAB
M  END
>  <Dataset>  (392) 
ChEMBL_Kinases

>  <Ligand_Instance>  (392) 
nan

>  <PDB_ID>  (392) 
nan

>  <Standardized_SMILES>  (392) 
NC(=O)c1ccc(Nc2nccc(-c3ccc(S(=O)(=O)N4CCNCC4)cc3)n2)cc1

>  <Name>  (392) 
nan

>  <Pocket>  (392) 
nan

>  <ATP_Site>  (392) 
nan

>  <Peripheral>  (392) 
nan

>  <Num_H_Atoms_ProtBoundConf>  (392) 
nan

>  <Num_Resolved_Atoms>  (392) 
nan

>  <Num_Not_Resolved_Atoms>  (392) 
nan

$$$$
CHEMBL2032299
     RDKit          3D

  0  0  0  0  0  0  0  0  0  0999 V3000
M  V30 BEGIN CTAB
M  V30 COUNTS 54 58 0 0 0
M  V30 BEGIN ATOM
M  V30 1 C 8.391465 -6.207875 1.562690 0
M  V30 2 C 7.465742 -5.064502 1.418946 0
M  V30 3 O 7.880407 -3.913392 1.755978 0
M  V30 4 N 6.178124 -5.302854 0.919248 0
M  V30 5 C 5.095601 -4.411692 0.678053 0
M  V30 6 C 4.875855 -3.746818 -0.510788 0
M  V30 7 C 3.788082 -2.905546 -0.625692 0
M  V30 8 C 2.890694 -2.686511 0.398186 0
M  V30 9 O 1.808328 -1.962143 0.549284 0
M  V30 10 C 1.302413 -2.103657 1.750607 0
M  V30 11 C 0.108477 -1.482114 2.335343 0
M  V30 12 C -0.617708 -0.616877 1.543533 0
M  V30 13 C -1.728705 -0.065165 2.150394 0
M  V30 14 C -2.636024 0.873607 1.496287 0
M  V30 15 C -3.337120 1.878564 2.145861 0
M  V30 16 N -4.056878 2.527343 1.230464 0
M  V30 17 N -3.862078 2.000247 0.025778 0
M  V30 18 C -4.511063 2.497207 -1.163550 0
M  V30 19 C -4.897077 3.962350 -1.017498 0
M  V30 20 C -5.972190 4.205427 -2.069849 0
M  V30 21 N -5.873541 3.267657 -3.155150 0
M  V30 22 C -4.535818 2.937857 -3.543822 0
M  V30 23 C -3.696601 2.374370 -2.411948 0
M  V30 24 C -2.995458 0.985594 0.163169 0
M  V30 25 C -2.018119 -0.415210 3.471365 0
M  V30 26 N -1.283874 -1.267288 4.218362 0
M  V30 27 C -0.199672 -1.811255 3.639248 0
M  V30 28 N 0.588680 -2.711714 4.407364 0
M  V30 29 N 2.109918 -2.975118 2.417527 0
M  V30 30 C 3.111721 -3.359885 1.604847 0
M  V30 31 C 4.214898 -4.211088 1.716726 0
M  V30 32 H 8.281687 -6.677321 2.583829 0
M  V30 33 H 8.096075 -7.030420 0.856627 0
M  V30 34 H 9.429868 -5.963878 1.327544 0
M  V30 35 H 5.870425 -6.282523 0.648596 0
M  V30 36 H 5.578417 -3.916942 -1.315605 0
M  V30 37 H 3.630156 -2.384109 -1.582790 0
M  V30 38 H -0.393782 -0.354218 0.540665 0
M  V30 39 H -3.315309 2.111904 3.218963 0
M  V30 40 H -5.460110 1.941432 -1.334202 0
M  V30 41 H -4.053448 4.643379 -1.222418 0
M  V30 42 H -5.374962 4.094043 -0.034170 0
M  V30 43 H -5.891893 5.223781 -2.520405 0
M  V30 44 H -6.986217 4.106505 -1.637291 0
M  V30 45 H -6.525998 2.457557 -3.083359 0
M  V30 46 H -4.615704 2.166550 -4.338009 0
M  V30 47 H -4.096151 3.859924 -3.985519 0
M  V30 48 H -2.768417 2.980627 -2.387890 0
M  V30 49 H -3.420058 1.320787 -2.593469 0
M  V30 50 H -2.625954 0.347463 -0.627567 0
M  V30 51 H -2.893882 0.014146 3.962557 0
M  V30 52 H 0.347112 -3.700705 4.142619 0
M  V30 53 H 1.177941 -2.080785 5.011782 0
M  V30 54 H 4.312683 -4.690167 2.677248 0
M  V30 END ATOM
M  V30 BEGIN BOND
M  V30 1 1 1 2
M  V30 2 2 2 3
M  V30 3 1 2 4
M  V30 4 1 4 5
M  V30 5 2 5 6
M  V30 6 1 6 7
M  V30 7 2 7 8
M  V30 8 1 8 9
M  V30 9 1 9 10
M  V30 10 1 10 11
M  V30 11 2 11 12
M  V30 12 1 12 13
M  V30 13 1 13 14
M  V30 14 1 14 15
M  V30 15 2 15 16
M  V30 16 1 16 17
M  V30 17 1 17 18
M  V30 18 1 18 19
M  V30 19 1 19 20
M  V30 20 1 20 21
M  V30 21 1 21 22
M  V30 22 1 22 23
M  V30 23 1 17 24
M  V30 24 2 13 25
M  V30 25 1 25 26
M  V30 26 2 26 27
M  V30 27 1 27 28
M  V30 28 2 10 29
M  V30 29 1 29 30
M  V30 30 2 30 31
M  V30 31 1 31 5
M  V30 32 1 30 8
M  V30 33 1 27 11
M  V30 34 2 24 14
M  V30 35 1 23 18
M  V30 36 1 1 32
M  V30 37 1 1 33
M  V30 38 1 1 34
M  V30 39 1 4 35
M  V30 40 1 6 36
M  V30 41 1 7 37
M  V30 42 1 12 38
M  V30 43 1 15 39
M  V30 44 1 18 40
M  V30 45 1 19 41
M  V30 46 1 19 42
M  V30 47 1 20 43
M  V30 48 1 20 44
M  V30 49 1 21 45
M  V30 50 1 22 46
M  V30 51 1 22 47
M  V30 52 1 23 48
M  V30 53 1 23 49
M  V30 54 1 24 50
M  V30 55 1 25 51
M  V30 56 1 28 52
M  V30 57 1 28 53
M  V30 58 1 31 54
M  V30 END BOND
M  V30 END CTAB
M  END
>  <Dataset>  (393) 
ChEMBL_Kinases

>  <Ligand_Instance>  (393) 
nan

>  <PDB_ID>  (393) 
nan

>  <Standardized_SMILES>  (393) 
CC(=O)Nc1ccc2oc(-c3cc(-c4cnn(C5CCNCC5)c4)cnc3N)nc2c1

>  <Name>  (393) 
nan

>  <Pocket>  (393) 
nan

>  <ATP_Site>  (393) 
nan

>  <Peripheral>  (393) 
nan

>  <Num_H_Atoms_ProtBoundConf>  (393) 
nan

>  <Num_Resolved_Atoms>  (393) 
nan

>  <Num_Not_Resolved_Atoms>  (393) 
nan

$$$$
CHEMBL2032290
     RDKit          3D

  0  0  0  0  0  0  0  0  0  0999 V3000
M  V30 BEGIN CTAB
M  V30 COUNTS 69 74 0 0 0
M  V30 BEGIN ATOM
M  V30 1 C -1.016353 5.019396 4.921677 0
M  V30 2 C 0.465424 4.873077 4.957063 0
M  V30 3 C 0.981232 4.225963 6.059310 0
M  V30 4 C 2.349694 4.061017 6.147083 0
M  V30 5 C 3.148126 4.547449 5.133260 0
M  V30 6 S 4.870389 4.277259 5.358930 0
M  V30 7 O 5.586916 5.340112 4.571005 0
M  V30 8 O 5.221528 4.331422 6.815953 0
M  V30 9 N 5.322297 2.751431 4.646612 0
M  V30 10 C 4.357167 1.910103 3.995033 0
M  V30 11 O 3.140183 2.289594 3.937003 0
M  V30 12 N 4.711557 0.666148 3.411089 0
M  V30 13 C 3.557959 0.031672 2.828954 0
M  V30 14 C 2.679709 -0.844505 3.437511 0
M  V30 15 C 1.628601 -1.340995 2.690543 0
M  V30 16 C 1.452886 -0.977278 1.371942 0
M  V30 17 N 0.523084 -1.318118 0.448383 0
M  V30 18 C 0.828917 -0.663073 -0.698826 0
M  V30 19 C 0.145999 -0.683166 -1.992296 0
M  V30 20 C -0.995266 -1.475613 -2.124541 0
M  V30 21 C -1.665487 -1.512302 -3.347602 0
M  V30 22 C -2.859785 -2.334171 -3.504891 0
M  V30 23 C -3.948163 -2.102160 -4.320422 0
M  V30 24 N -4.807128 -3.120546 -4.140003 0
M  V30 25 N -4.333616 -3.998311 -3.252432 0
M  V30 26 C -5.119201 -5.171991 -2.921153 0
M  V30 27 C -4.537935 -5.822170 -1.712596 0
M  V30 28 C -3.556454 -6.920988 -1.986599 0
M  V30 29 N -2.898718 -6.605575 -3.260867 0
M  V30 30 C -3.894062 -6.889686 -4.277482 0
M  V30 31 C -5.112808 -6.043892 -4.154337 0
M  V30 32 C -3.138837 -3.520932 -2.859338 0
M  V30 33 C -1.188694 -0.759742 -4.418549 0
M  V30 34 N -0.085859 -0.003979 -4.264056 0
M  V30 35 C 0.575176 0.043027 -3.086597 0
M  V30 36 N 1.757271 0.849636 -2.911207 0
M  V30 37 O 1.906857 0.051857 -0.482657 0
M  V30 38 C 2.327377 -0.101071 0.755743 0
M  V30 39 C 3.389479 0.404913 1.499139 0
M  V30 40 C 2.615624 5.195730 4.031479 0
M  V30 41 C 1.240587 5.377242 3.914468 0
M  V30 42 H -1.499324 4.095196 5.317390 0
M  V30 43 H -1.365959 5.220486 3.895093 0
M  V30 44 H -1.291261 5.838468 5.641640 0
M  V30 45 H 0.344628 3.849062 6.847890 0
M  V30 46 H 2.729412 3.544920 7.031159 0
M  V30 47 H 6.315042 2.464535 4.706171 0
M  V30 48 H 5.733450 0.432709 3.504950 0
M  V30 49 H 2.905998 -1.058964 4.456603 0
M  V30 50 H 0.959738 -2.015411 3.173347 0
M  V30 51 H -1.394283 -2.071359 -1.318874 0
M  V30 52 H -4.058445 -1.248933 -4.972010 0
M  V30 53 H -6.164985 -4.814626 -2.721762 0
M  V30 54 H -5.371497 -6.162802 -1.062478 0
M  V30 55 H -4.001676 -5.028659 -1.113745 0
M  V30 56 H -4.141076 -7.856939 -2.099339 0
M  V30 57 H -2.830097 -6.965035 -1.168664 0
M  V30 58 H -2.110326 -7.267565 -3.397147 0
M  V30 59 H -3.401626 -6.665937 -5.246347 0
M  V30 60 H -4.128775 -7.990359 -4.329758 0
M  V30 61 H -5.275013 -5.429421 -5.062549 0
M  V30 62 H -6.013150 -6.699539 -4.070967 0
M  V30 63 H -2.547319 -4.045233 -2.143522 0
M  V30 64 H -1.684687 -0.761978 -5.390073 0
M  V30 65 H 1.397459 1.821516 -2.671186 0
M  V30 66 H 2.735032 0.472490 -3.017811 0
M  V30 67 H 4.023026 1.079191 0.947246 0
M  V30 68 H 3.296118 5.547788 3.281344 0
M  V30 69 H 0.822763 5.873836 3.071994 0
M  V30 END ATOM
M  V30 BEGIN BOND
M  V30 1 1 1 2
M  V30 2 2 2 3
M  V30 3 1 3 4
M  V30 4 2 4 5
M  V30 5 1 5 6
M  V30 6 2 6 7
M  V30 7 2 6 8
M  V30 8 1 6 9
M  V30 9 1 9 10
M  V30 10 2 10 11
M  V30 11 1 10 12
M  V30 12 1 12 13
M  V30 13 2 13 14
M  V30 14 1 14 15
M  V30 15 2 15 16
M  V30 16 1 16 17
M  V30 17 2 17 18
M  V30 18 1 18 19
M  V30 19 2 19 20
M  V30 20 1 20 21
M  V30 21 1 21 22
M  V30 22 1 22 23
M  V30 23 2 23 24
M  V30 24 1 24 25
M  V30 25 1 25 26
M  V30 26 1 26 27
M  V30 27 1 27 28
M  V30 28 1 28 29
M  V30 29 1 29 30
M  V30 30 1 30 31
M  V30 31 1 25 32
M  V30 32 2 21 33
M  V30 33 1 33 34
M  V30 34 2 34 35
M  V30 35 1 35 36
M  V30 36 1 18 37
M  V30 37 1 37 38
M  V30 38 2 38 39
M  V30 39 1 5 40
M  V30 40 2 40 41
M  V30 41 1 41 2
M  V30 42 1 39 13
M  V30 43 1 38 16
M  V30 44 1 35 19
M  V30 45 2 32 22
M  V30 46 1 31 26
M  V30 47 1 1 42
M  V30 48 1 1 43
M  V30 49 1 1 44
M  V30 50 1 3 45
M  V30 51 1 4 46
M  V30 52 1 9 47
M  V30 53 1 12 48
M  V30 54 1 14 49
M  V30 55 1 15 50
M  V30 56 1 20 51
M  V30 57 1 23 52
M  V30 58 1 26 53
M  V30 59 1 27 54
M  V30 60 1 27 55
M  V30 61 1 28 56
M  V30 62 1 28 57
M  V30 63 1 29 58
M  V30 64 1 30 59
M  V30 65 1 30 60
M  V30 66 1 31 61
M  V30 67 1 31 62
M  V30 68 1 32 63
M  V30 69 1 33 64
M  V30 70 1 36 65
M  V30 71 1 36 66
M  V30 72 1 39 67
M  V30 73 1 40 68
M  V30 74 1 41 69
M  V30 END BOND
M  V30 END CTAB
M  END
>  <Dataset>  (394) 
ChEMBL_Kinases

>  <Ligand_Instance>  (394) 
nan

>  <PDB_ID>  (394) 
nan

>  <Standardized_SMILES>  (394) 
Cc1ccc(S(=O)(=O)NC(=O)Nc2ccc3nc(-c4cc(-c5cnn(C6CCNCC6)c5)cnc4N)oc3c2)cc1

>  <Name>  (394) 
nan

>  <Pocket>  (394) 
nan

>  <ATP_Site>  (394) 
nan

>  <Peripheral>  (394) 
nan

>  <Num_H_Atoms_ProtBoundConf>  (394) 
nan

>  <Num_Resolved_Atoms>  (394) 
nan

>  <Num_Not_Resolved_Atoms>  (394) 
nan

$$$$
CHEMBL2032289
     RDKit          3D

  0  0  0  0  0  0  0  0  0  0999 V3000
M  V30 BEGIN CTAB
M  V30 COUNTS 59 64 0 0 0
M  V30 BEGIN ATOM
M  V30 1 N 0.764164 -2.785201 5.456294 0
M  V30 2 C 0.940398 -1.632217 4.643297 0
M  V30 3 N 1.598094 -0.563380 5.148453 0
M  V30 4 C 1.800160 0.559063 4.435254 0
M  V30 5 C 1.340135 0.671485 3.141556 0
M  V30 6 C 1.487014 1.824379 2.256482 0
M  V30 7 C 0.553285 2.171965 1.273180 0
M  V30 8 N 1.035354 3.278162 0.674058 0
M  V30 9 N 2.185327 3.629262 1.214258 0
M  V30 10 C 2.917144 4.792707 0.748600 0
M  V30 11 C 3.611032 4.449669 -0.519092 0
M  V30 12 C 2.606632 4.436378 -1.645931 0
M  V30 13 N 2.098051 5.769735 -1.771382 0
M  V30 14 C 1.359295 6.221514 -0.624685 0
M  V30 15 C 2.028745 5.990926 0.682044 0
M  V30 16 C 2.490974 2.770516 2.177455 0
M  V30 17 C 0.671522 -0.443093 2.658592 0
M  V30 18 C 0.449977 -1.594924 3.354245 0
M  V30 19 C -0.263812 -2.729283 2.777235 0
M  V30 20 N -0.533496 -3.893079 3.363018 0
M  V30 21 C -1.213591 -4.652496 2.461562 0
M  V30 22 C -1.739191 -5.906894 2.494849 0
M  V30 23 C -2.383304 -6.414845 1.409483 0
M  V30 24 C -2.546171 -5.717857 0.231693 0
M  V30 25 N -3.238297 -6.283705 -0.865910 0
M  V30 26 C -3.223559 -6.016848 -2.248170 0
M  V30 27 C -4.294660 -6.382293 -3.067659 0
M  V30 28 C -4.275031 -6.137217 -4.416472 0
M  V30 29 C -3.219169 -5.527407 -5.037115 0
M  V30 30 F -3.269180 -5.319789 -6.360155 0
M  V30 31 C -2.135789 -5.151744 -4.244625 0
M  V30 32 C -2.179964 -5.406729 -2.906603 0
M  V30 33 C -2.000867 -4.464196 0.250832 0
M  V30 34 C -1.336790 -3.891989 1.316261 0
M  V30 35 O -0.749755 -2.745620 1.557668 0
M  V30 36 H 1.391760 -3.355656 6.066067 0
M  V30 37 H 1.483613 -3.287681 6.041732 0
M  V30 38 H 2.328442 1.433511 4.823306 0
M  V30 39 H -0.351464 1.621553 1.084378 0
M  V30 40 H 3.722168 4.975408 1.511696 0
M  V30 41 H 4.034700 3.428763 -0.431458 0
M  V30 42 H 4.438893 5.123961 -0.786307 0
M  V30 43 H 3.152715 4.202040 -2.585374 0
M  V30 44 H 1.834221 3.668867 -1.533215 0
M  V30 45 H 1.498978 5.892179 -2.600752 0
M  V30 46 H 1.212888 7.324611 -0.763677 0
M  V30 47 H 0.344221 5.775093 -0.676500 0
M  V30 48 H 1.243591 5.875890 1.459746 0
M  V30 49 H 2.618766 6.889626 0.994962 0
M  V30 50 H 3.369811 2.785740 2.808009 0
M  V30 51 H 0.283009 -0.411364 1.635202 0
M  V30 52 H -1.632271 -6.494785 3.410615 0
M  V30 53 H -2.776760 -7.423691 1.511081 0
M  V30 54 H -3.894184 -7.057101 -0.598310 0
M  V30 55 H -5.131270 -6.863770 -2.586216 0
M  V30 56 H -5.138940 -6.442434 -5.017116 0
M  V30 57 H -1.328039 -4.675974 -4.772862 0
M  V30 58 H -1.299675 -5.089734 -2.399494 0
M  V30 59 H -2.070981 -3.814942 -0.604537 0
M  V30 END ATOM
M  V30 BEGIN BOND
M  V30 1 1 1 2
M  V30 2 2 2 3
M  V30 3 1 3 4
M  V30 4 2 4 5
M  V30 5 1 5 6
M  V30 6 1 6 7
M  V30 7 2 7 8
M  V30 8 1 8 9
M  V30 9 1 9 10
M  V30 10 1 10 11
M  V30 11 1 11 12
M  V30 12 1 12 13
M  V30 13 1 13 14
M  V30 14 1 14 15
M  V30 15 1 9 16
M  V30 16 1 5 17
M  V30 17 2 17 18
M  V30 18 1 18 19
M  V30 19 2 19 20
M  V30 20 1 20 21
M  V30 21 2 21 22
M  V30 22 1 22 23
M  V30 23 2 23 24
M  V30 24 1 24 25
M  V30 25 1 25 26
M  V30 26 2 26 27
M  V30 27 1 27 28
M  V30 28 2 28 29
M  V30 29 1 29 30
M  V30 30 1 29 31
M  V30 31 2 31 32
M  V30 32 1 24 33
M  V30 33 2 33 34
M  V30 34 1 34 35
M  V30 35 1 18 2
M  V30 36 1 35 19
M  V30 37 2 16 6
M  V30 38 1 34 21
M  V30 39 1 15 10
M  V30 40 1 32 26
M  V30 41 1 1 36
M  V30 42 1 1 37
M  V30 43 1 4 38
M  V30 44 1 7 39
M  V30 45 1 10 40
M  V30 46 1 11 41
M  V30 47 1 11 42
M  V30 48 1 12 43
M  V30 49 1 12 44
M  V30 50 1 13 45
M  V30 51 1 14 46
M  V30 52 1 14 47
M  V30 53 1 15 48
M  V30 54 1 15 49
M  V30 55 1 16 50
M  V30 56 1 17 51
M  V30 57 1 22 52
M  V30 58 1 23 53
M  V30 59 1 25 54
M  V30 60 1 27 55
M  V30 61 1 28 56
M  V30 62 1 31 57
M  V30 63 1 32 58
M  V30 64 1 33 59
M  V30 END BOND
M  V30 END CTAB
M  END
>  <Dataset>  (395) 
ChEMBL_Kinases

>  <Ligand_Instance>  (395) 
nan

>  <PDB_ID>  (395) 
nan

>  <Standardized_SMILES>  (395) 
Nc1ncc(-c2cnn(C3CCNCC3)c2)cc1-c1nc2ccc(Nc3ccc(F)cc3)cc2o1

>  <Name>  (395) 
nan

>  <Pocket>  (395) 
nan

>  <ATP_Site>  (395) 
nan

>  <Peripheral>  (395) 
nan

>  <Num_H_Atoms_ProtBoundConf>  (395) 
nan

>  <Num_Resolved_Atoms>  (395) 
nan

>  <Num_Not_Resolved_Atoms>  (395) 
nan

$$$$
CHEMBL2032286
     RDKit          3D

  0  0  0  0  0  0  0  0  0  0999 V3000
M  V30 BEGIN CTAB
M  V30 COUNTS 63 68 0 0 0
M  V30 BEGIN ATOM
M  V30 1 N 2.388159 -3.339858 3.349813 0
M  V30 2 C 2.903747 -2.072078 2.930028 0
M  V30 3 N 3.984333 -1.529384 3.513434 0
M  V30 4 C 4.501928 -0.328628 3.142000 0
M  V30 5 C 3.904217 0.381746 2.120278 0
M  V30 6 C 4.349285 1.686011 1.612659 0
M  V30 7 C 4.961994 2.743650 2.252964 0
M  V30 8 N 5.149578 3.697108 1.307404 0
M  V30 9 N 4.698719 3.306462 0.133738 0
M  V30 10 C 4.797115 4.165039 -1.010976 0
M  V30 11 C 4.549042 5.600066 -0.593797 0
M  V30 12 C 3.076306 5.675804 -0.232096 0
M  V30 13 N 2.254269 5.564911 -1.418010 0
M  V30 14 C 2.955476 4.938532 -2.521073 0
M  V30 15 C 3.799564 3.769671 -2.061092 0
M  V30 16 C 4.199613 2.068418 0.294906 0
M  V30 17 C 2.796964 -0.213982 1.549946 0
M  V30 18 C 2.258969 -1.431006 1.914492 0
M  V30 19 C 1.082388 -1.930376 1.214906 0
M  V30 20 N 0.426341 -1.301028 0.197671 0
M  V30 21 C -0.606656 -2.071035 -0.187738 0
M  V30 22 C -1.540131 -1.851802 -1.167984 0
M  V30 23 C -2.515783 -2.804913 -1.375991 0
M  V30 24 C -2.489135 -3.944892 -0.565096 0
M  V30 25 N -3.538609 -4.879054 -0.851779 0
M  V30 26 C -4.733502 -4.691534 -0.125317 0
M  V30 27 O -4.710132 -3.726858 0.676963 0
M  V30 28 N -5.888787 -5.467632 -0.230517 0
M  V30 29 C -7.131432 -5.371206 0.442653 0
M  V30 30 C -7.460986 -4.434916 1.394781 0
M  V30 31 C -8.674145 -4.360813 2.033970 0
M  V30 32 C -9.651156 -5.276361 1.720298 0
M  V30 33 C -9.347012 -6.223042 0.771541 0
M  V30 34 C -8.115070 -6.258581 0.156032 0
M  V30 35 C -1.537441 -4.138929 0.414029 0
M  V30 36 C -0.561993 -3.186541 0.622461 0
M  V30 37 O 0.454698 -3.064764 1.441163 0
M  V30 38 H 1.537253 -3.672211 3.814330 0
M  V30 39 H 3.151514 -4.007213 3.058291 0
M  V30 40 H 5.372383 0.124597 3.600713 0
M  V30 41 H 5.213012 2.740962 3.305525 0
M  V30 42 H 5.860265 4.112289 -1.375750 0
M  V30 43 H 5.156733 5.857386 0.283735 0
M  V30 44 H 4.741588 6.313956 -1.411683 0
M  V30 45 H 2.811697 6.628098 0.270422 0
M  V30 46 H 2.793106 4.854889 0.455972 0
M  V30 47 H 1.325873 5.111185 -1.235704 0
M  V30 48 H 2.179134 4.496935 -3.187350 0
M  V30 49 H 3.523988 5.660774 -3.143020 0
M  V30 50 H 3.112874 2.961185 -1.772081 0
M  V30 51 H 4.372403 3.421411 -2.939305 0
M  V30 52 H 3.757956 1.495050 -0.508351 0
M  V30 53 H 2.300889 0.328925 0.734136 0
M  V30 54 H -1.517549 -0.953252 -1.768926 0
M  V30 55 H -3.257811 -2.646245 -2.144255 0
M  V30 56 H -3.496160 -5.673091 -1.540667 0
M  V30 57 H -5.759388 -6.232153 -0.937618 0
M  V30 58 H -6.742266 -3.687885 1.688851 0
M  V30 59 H -8.883812 -3.603525 2.776551 0
M  V30 60 H -10.614327 -5.232941 2.215095 0
M  V30 61 H -10.077551 -6.961322 0.491682 0
M  V30 62 H -7.937727 -7.029662 -0.583314 0
M  V30 63 H -1.570278 -5.038914 1.006351 0
M  V30 END ATOM
M  V30 BEGIN BOND
M  V30 1 1 1 2
M  V30 2 2 2 3
M  V30 3 1 3 4
M  V30 4 2 4 5
M  V30 5 1 5 6
M  V30 6 1 6 7
M  V30 7 2 7 8
M  V30 8 1 8 9
M  V30 9 1 9 10
M  V30 10 1 10 11
M  V30 11 1 11 12
M  V30 12 1 12 13
M  V30 13 1 13 14
M  V30 14 1 14 15
M  V30 15 1 9 16
M  V30 16 1 5 17
M  V30 17 2 17 18
M  V30 18 1 18 19
M  V30 19 2 19 20
M  V30 20 1 20 21
M  V30 21 2 21 22
M  V30 22 1 22 23
M  V30 23 2 23 24
M  V30 24 1 24 25
M  V30 25 1 25 26
M  V30 26 2 26 27
M  V30 27 1 26 28
M  V30 28 1 28 29
M  V30 29 2 29 30
M  V30 30 1 30 31
M  V30 31 2 31 32
M  V30 32 1 32 33
M  V30 33 2 33 34
M  V30 34 1 24 35
M  V30 35 2 35 36
M  V30 36 1 36 37
M  V30 37 1 18 2
M  V30 38 1 37 19
M  V30 39 2 16 6
M  V30 40 1 36 21
M  V30 41 1 15 10
M  V30 42 1 34 29
M  V30 43 1 1 38
M  V30 44 1 1 39
M  V30 45 1 4 40
M  V30 46 1 7 41
M  V30 47 1 10 42
M  V30 48 1 11 43
M  V30 49 1 11 44
M  V30 50 1 12 45
M  V30 51 1 12 46
M  V30 52 1 13 47
M  V30 53 1 14 48
M  V30 54 1 14 49
M  V30 55 1 15 50
M  V30 56 1 15 51
M  V30 57 1 16 52
M  V30 58 1 17 53
M  V30 59 1 22 54
M  V30 60 1 23 55
M  V30 61 1 25 56
M  V30 62 1 28 57
M  V30 63 1 30 58
M  V30 64 1 31 59
M  V30 65 1 32 60
M  V30 66 1 33 61
M  V30 67 1 34 62
M  V30 68 1 35 63
M  V30 END BOND
M  V30 END CTAB
M  END
>  <Dataset>  (396) 
ChEMBL_Kinases

>  <Ligand_Instance>  (396) 
nan

>  <PDB_ID>  (396) 
nan

>  <Standardized_SMILES>  (396) 
Nc1ncc(-c2cnn(C3CCNCC3)c2)cc1-c1nc2ccc(NC(=O)Nc3ccccc3)cc2o1

>  <Name>  (396) 
nan

>  <Pocket>  (396) 
nan

>  <ATP_Site>  (396) 
nan

>  <Peripheral>  (396) 
nan

>  <Num_H_Atoms_ProtBoundConf>  (396) 
nan

>  <Num_Resolved_Atoms>  (396) 
nan

>  <Num_Not_Resolved_Atoms>  (396) 
nan

$$$$
CHEMBL471790
     RDKit          3D

  0  0  0  0  0  0  0  0  0  0999 V3000
M  V30 BEGIN CTAB
M  V30 COUNTS 61 66 0 0 0
M  V30 BEGIN ATOM
M  V30 1 C 6.240677 -1.332065 2.818351 0
M  V30 2 O 5.378643 -0.431604 2.192203 0
M  V30 3 C 5.705769 0.855742 1.785993 0
M  V30 4 C 6.947301 1.444123 1.942712 0
M  V30 5 C 7.118659 2.734556 1.486444 0
M  V30 6 N 8.408945 3.316808 1.660875 0
M  V30 7 C 6.142468 3.498754 0.878361 0
M  V30 8 C 4.897119 2.886989 0.729687 0
M  V30 9 C 4.707641 1.596415 1.180330 0
M  V30 10 C 3.367088 1.057153 0.973137 0
M  V30 11 C 2.728699 0.372762 1.988257 0
M  V30 12 C 1.463094 -0.134583 1.788089 0
M  V30 13 C 0.770342 -0.007006 0.622860 0
M  V30 14 C -0.476540 -0.434104 0.236183 0
M  V30 15 C -1.510478 -1.176084 0.925741 0
M  V30 16 N -2.673818 -1.482554 0.325373 0
M  V30 17 C -3.504335 -2.169732 1.116788 0
M  V30 18 C -4.772095 -2.684386 0.933161 0
M  V30 19 N -5.412104 -2.493213 -0.334266 0
M  V30 20 C -5.773174 -1.260044 -1.044972 0
M  V30 21 C -5.207334 -1.377543 -2.432118 0
M  V30 22 N -4.302814 -2.492575 -2.557388 0
M  V30 23 C -3.592114 -2.456409 -3.798421 0
M  V30 24 C -4.894682 -3.768778 -2.284656 0
M  V30 25 C -5.782618 -3.693952 -1.073035 0
M  V30 26 C -5.367029 -3.363403 1.986575 0
M  V30 27 C -4.680075 -3.508917 3.191494 0
M  V30 28 C -3.411365 -2.996560 3.382245 0
M  V30 29 C -2.854743 -2.329515 2.313960 0
M  V30 30 N -1.676342 -1.716108 2.132948 0
M  V30 31 N -0.553203 0.022289 -1.044779 0
M  V30 32 N 0.539504 0.660636 -1.393725 0
M  V30 33 C 1.423753 0.679719 -0.380273 0
M  V30 34 C 2.691268 1.203961 -0.221820 0
M  V30 35 H 7.083918 -0.849200 3.322798 0
M  V30 36 H 6.540957 -2.158509 2.122099 0
M  V30 37 H 5.652533 -1.837806 3.631617 0
M  V30 38 H 7.720109 0.868731 2.412413 0
M  V30 39 H 8.454448 3.549053 2.688989 0
M  V30 40 H 9.288764 3.591510 1.189350 0
M  V30 41 H 6.358569 4.505742 0.548141 0
M  V30 42 H 4.100469 3.458156 0.254180 0
M  V30 43 H 3.261197 0.258961 2.924939 0
M  V30 44 H 1.031329 -0.653881 2.621613 0
M  V30 45 H -6.887415 -1.240645 -1.084757 0
M  V30 46 H -5.450445 -0.357085 -0.500745 0
M  V30 47 H -6.012015 -1.487401 -3.209935 0
M  V30 48 H -4.609756 -0.464506 -2.643386 0
M  V30 49 H -2.500029 -2.260138 -3.607627 0
M  V30 50 H -3.648499 -3.435047 -4.322797 0
M  V30 51 H -3.945978 -1.623114 -4.458485 0
M  V30 52 H -5.422187 -4.154277 -3.195391 0
M  V30 53 H -4.047123 -4.470007 -2.058836 0
M  V30 54 H -5.725742 -4.596868 -0.438569 0
M  V30 55 H -6.826764 -3.556819 -1.438255 0
M  V30 56 H -6.364798 -3.772766 1.853284 0
M  V30 57 H -5.155632 -4.041687 4.007483 0
M  V30 58 H -2.846472 -3.086444 4.295512 0
M  V30 59 H -0.966854 -1.677712 2.885920 0
M  V30 60 H 0.647354 1.074489 -2.342036 0
M  V30 61 H 3.156139 1.735883 -1.048402 0
M  V30 END ATOM
M  V30 BEGIN BOND
M  V30 1 1 1 2
M  V30 2 1 2 3
M  V30 3 2 3 4
M  V30 4 1 4 5
M  V30 5 1 5 6
M  V30 6 2 5 7
M  V30 7 1 7 8
M  V30 8 2 8 9
M  V30 9 1 9 10
M  V30 10 2 10 11
M  V30 11 1 11 12
M  V30 12 2 12 13
M  V30 13 1 13 14
M  V30 14 1 14 15
M  V30 15 2 15 16
M  V30 16 1 16 17
M  V30 17 2 17 18
M  V30 18 1 18 19
M  V30 19 1 19 20
M  V30 20 1 20 21
M  V30 21 1 21 22
M  V30 22 1 22 23
M  V30 23 1 22 24
M  V30 24 1 24 25
M  V30 25 1 18 26
M  V30 26 2 26 27
M  V30 27 1 27 28
M  V30 28 2 28 29
M  V30 29 1 29 30
M  V30 30 2 14 31
M  V30 31 1 31 32
M  V30 32 1 32 33
M  V30 33 2 33 34
M  V30 34 1 9 3
M  V30 35 1 34 10
M  V30 36 1 33 13
M  V30 37 1 30 15
M  V30 38 1 29 17
M  V30 39 1 25 19
M  V30 40 1 1 35
M  V30 41 1 1 36
M  V30 42 1 1 37
M  V30 43 1 4 38
M  V30 44 1 6 39
M  V30 45 1 6 40
M  V30 46 1 7 41
M  V30 47 1 8 42
M  V30 48 1 11 43
M  V30 49 1 12 44
M  V30 50 1 20 45
M  V30 51 1 20 46
M  V30 52 1 21 47
M  V30 53 1 21 48
M  V30 54 1 23 49
M  V30 55 1 23 50
M  V30 56 1 23 51
M  V30 57 1 24 52
M  V30 58 1 24 53
M  V30 59 1 25 54
M  V30 60 1 25 55
M  V30 61 1 26 56
M  V30 62 1 27 57
M  V30 63 1 28 58
M  V30 64 1 30 59
M  V30 65 1 32 60
M  V30 66 1 34 61
M  V30 END BOND
M  V30 END CTAB
M  END
>  <Dataset>  (397) 
ChEMBL_Kinases

>  <Ligand_Instance>  (397) 
nan

>  <PDB_ID>  (397) 
nan

>  <Standardized_SMILES>  (397) 
COc1cc(N)ccc1-c1ccc2c(-c3nc4c(N5CCN(C)CC5)cccc4[nH]3)n[nH]c2c1

>  <Name>  (397) 
nan

>  <Pocket>  (397) 
nan

>  <ATP_Site>  (397) 
nan

>  <Peripheral>  (397) 
nan

>  <Num_H_Atoms_ProtBoundConf>  (397) 
nan

>  <Num_Resolved_Atoms>  (397) 
nan

>  <Num_Not_Resolved_Atoms>  (397) 
nan

$$$$
CHEMBL2035019
     RDKit          3D

  0  0  0  0  0  0  0  0  0  0999 V3000
M  V30 BEGIN CTAB
M  V30 COUNTS 46 50 0 0 0
M  V30 BEGIN ATOM
M  V30 1 N 2.731234 -3.912737 2.857754 0
M  V30 2 C 1.453054 -3.848663 2.176829 0
M  V30 3 C 1.234102 -2.541089 1.511487 0
M  V30 4 C 0.706526 -2.282957 0.268943 0
M  V30 5 C 0.581866 -0.984517 -0.178849 0
M  V30 6 C 0.987061 0.082381 0.617925 0
M  V30 7 C 0.812638 1.422089 0.050458 0
M  V30 8 N 1.975290 2.063183 -0.116047 0
M  V30 9 N 2.039600 3.280799 -0.613063 0
M  V30 10 C 3.048707 4.131689 -0.879016 0
M  V30 11 C 2.577359 5.312791 -1.406129 0
M  V30 12 N 1.235185 5.140557 -1.448301 0
M  V30 13 C 0.897175 3.922659 -0.974278 0
M  V30 14 C -0.335702 3.313423 -0.826895 0
M  V30 15 C -0.371886 2.034931 -0.302361 0
M  V30 16 C -1.567420 1.260576 -0.083639 0
M  V30 17 C -1.944158 0.865220 1.194779 0
M  V30 18 C -3.091137 0.121581 1.414860 0
M  V30 19 C -3.855352 -0.219649 0.330711 0
M  V30 20 C -3.485543 0.172630 -0.957598 0
M  V30 21 C -2.343394 0.913628 -1.181103 0
M  V30 22 C 1.518758 -0.170441 1.869295 0
M  V30 23 C 1.635338 -1.477777 2.299600 0
M  V30 24 C 1.055117 -5.071191 1.416242 0
M  V30 25 C -0.337107 -4.948450 1.986358 0
M  V30 26 C 0.267642 -4.111022 3.109546 0
M  V30 27 H 3.061890 -4.899170 2.979854 0
M  V30 28 H 2.686027 -3.467207 3.801419 0
M  V30 29 H 0.420870 -3.173020 -0.276175 0
M  V30 30 H 0.159524 -0.874571 -1.161423 0
M  V30 31 H 4.099205 3.885023 -0.688584 0
M  V30 32 H 3.134601 6.191410 -1.721737 0
M  V30 33 H -1.271506 3.771514 -1.094837 0
M  V30 34 H -1.330803 1.142622 2.037816 0
M  V30 35 H -3.389878 -0.189666 2.410512 0
M  V30 36 H -4.742148 -0.796594 0.517954 0
M  V30 37 H -4.173351 -0.160265 -1.726354 0
M  V30 38 H -2.102771 1.191429 -2.199440 0
M  V30 39 H 1.805147 0.716984 2.415448 0
M  V30 40 H 2.069372 -1.530197 3.301589 0
M  V30 41 H 1.547534 -5.966196 1.890245 0
M  V30 42 H 1.153615 -5.044345 0.325115 0
M  V30 43 H -1.021892 -4.409190 1.311345 0
M  V30 44 H -0.790653 -5.896329 2.328987 0
M  V30 45 H -0.377276 -3.251862 3.304189 0
M  V30 46 H 0.525833 -4.756484 3.994470 0
M  V30 END ATOM
M  V30 BEGIN BOND
M  V30 1 1 1 2
M  V30 2 1 2 3
M  V30 3 2 3 4
M  V30 4 1 4 5
M  V30 5 2 5 6
M  V30 6 1 6 7
M  V30 7 2 7 8
M  V30 8 1 8 9
M  V30 9 1 9 10
M  V30 10 2 10 11
M  V30 11 1 11 12
M  V30 12 2 12 13
M  V30 13 1 13 14
M  V30 14 2 14 15
M  V30 15 1 15 16
M  V30 16 2 16 17
M  V30 17 1 17 18
M  V30 18 2 18 19
M  V30 19 1 19 20
M  V30 20 2 20 21
M  V30 21 1 6 22
M  V30 22 2 22 23
M  V30 23 1 2 24
M  V30 24 1 24 25
M  V30 25 1 25 26
M  V30 26 1 26 2
M  V30 27 1 23 3
M  V30 28 1 15 7
M  V30 29 1 21 16
M  V30 30 1 13 9
M  V30 31 1 1 27
M  V30 32 1 1 28
M  V30 33 1 4 29
M  V30 34 1 5 30
M  V30 35 1 10 31
M  V30 36 1 11 32
M  V30 37 1 14 33
M  V30 38 1 17 34
M  V30 39 1 18 35
M  V30 40 1 19 36
M  V30 41 1 20 37
M  V30 42 1 21 38
M  V30 43 1 22 39
M  V30 44 1 23 40
M  V30 45 1 24 41
M  V30 46 1 24 42
M  V30 47 1 25 43
M  V30 48 1 25 44
M  V30 49 1 26 45
M  V30 50 1 26 46
M  V30 END BOND
M  V30 END CTAB
M  END
>  <Dataset>  (398) 
ChEMBL_Kinases

>  <Ligand_Instance>  (398) 
nan

>  <PDB_ID>  (398) 
nan

>  <Standardized_SMILES>  (398) 
NC1(c2ccc(-c3nn4ccnc4cc3-c3ccccc3)cc2)CCC1

>  <Name>  (398) 
nan

>  <Pocket>  (398) 
nan

>  <ATP_Site>  (398) 
nan

>  <Peripheral>  (398) 
nan

>  <Num_H_Atoms_ProtBoundConf>  (398) 
nan

>  <Num_Resolved_Atoms>  (398) 
nan

>  <Num_Not_Resolved_Atoms>  (398) 
nan

$$$$
CHEMBL46817
     RDKit          3D

  0  0  0  0  0  0  0  0  0  0999 V3000
M  V30 BEGIN CTAB
M  V30 COUNTS 42 44 0 0 0
M  V30 BEGIN ATOM
M  V30 1 C -1.066452 -7.598160 -1.538374 0
M  V30 2 C -0.616146 -6.167566 -1.422167 0
M  V30 3 N 0.310980 -5.700062 -0.574040 0
M  V30 4 C 0.538945 -4.404766 -0.655925 0
M  V30 5 C 1.561716 -3.761885 0.249293 0
M  V30 6 C -0.115438 -3.556729 -1.544351 0
M  V30 7 C -0.016893 -2.175350 -1.782736 0
M  V30 8 C -0.837411 -1.656854 -2.761267 0
M  V30 9 C -0.783858 -0.294777 -3.044068 0
M  V30 10 N 0.067123 0.454069 -2.348549 0
M  V30 11 C 0.884241 -0.034521 -1.380694 0
M  V30 12 N 1.808511 0.729727 -0.616101 0
M  V30 13 C 1.462397 1.362870 0.609039 0
M  V30 14 C 0.178554 1.255349 1.099888 0
M  V30 15 C -0.126728 1.881690 2.291786 0
M  V30 16 C 0.792381 2.610603 3.015789 0
M  V30 17 N 0.509561 3.268564 4.247093 0
M  V30 18 C 1.556245 4.008936 4.926680 0
M  V30 19 C -0.822954 3.198972 4.820580 0
M  V30 20 C 2.061955 2.682984 2.474558 0
M  V30 21 C 2.438541 2.074388 1.274707 0
M  V30 22 N 0.807723 -1.373905 -1.127418 0
M  V30 23 S -1.173166 -4.668524 -2.369441 0
M  V30 24 H -1.532177 -7.918777 -0.571323 0
M  V30 25 H -0.190454 -8.212613 -1.811480 0
M  V30 26 H -1.793203 -7.701112 -2.365179 0
M  V30 27 H 2.329736 -3.231623 -0.384336 0
M  V30 28 H 2.125453 -4.474967 0.849288 0
M  V30 29 H 1.079831 -3.039281 0.948026 0
M  V30 30 H -1.535945 -2.245979 -3.338424 0
M  V30 31 H -1.415005 0.145158 -3.807617 0
M  V30 32 H 2.767044 0.794936 -1.018808 0
M  V30 33 H -0.591685 0.700258 0.584669 0
M  V30 34 H -1.117358 1.791426 2.657877 0
M  V30 35 H 1.692851 5.027136 4.562412 0
M  V30 36 H 2.514477 3.412432 4.957391 0
M  V30 37 H 1.259518 4.084030 5.993351 0
M  V30 38 H -1.471226 4.043562 4.511314 0
M  V30 39 H -0.714893 3.309935 5.928579 0
M  V30 40 H -1.270152 2.201495 4.646278 0
M  V30 41 H 2.861344 3.227817 2.956297 0
M  V30 42 H 3.446911 2.158570 0.889113 0
M  V30 END ATOM
M  V30 BEGIN BOND
M  V30 1 1 1 2
M  V30 2 2 2 3
M  V30 3 1 3 4
M  V30 4 1 4 5
M  V30 5 2 4 6
M  V30 6 1 6 7
M  V30 7 2 7 8
M  V30 8 1 8 9
M  V30 9 2 9 10
M  V30 10 1 10 11
M  V30 11 1 11 12
M  V30 12 1 12 13
M  V30 13 2 13 14
M  V30 14 1 14 15
M  V30 15 2 15 16
M  V30 16 1 16 17
M  V30 17 1 17 18
M  V30 18 1 17 19
M  V30 19 1 16 20
M  V30 20 2 20 21
M  V30 21 2 11 22
M  V30 22 1 6 23
M  V30 23 1 23 2
M  V30 24 1 22 7
M  V30 25 1 21 13
M  V30 26 1 1 24
M  V30 27 1 1 25
M  V30 28 1 1 26
M  V30 29 1 5 27
M  V30 30 1 5 28
M  V30 31 1 5 29
M  V30 32 1 8 30
M  V30 33 1 9 31
M  V30 34 1 12 32
M  V30 35 1 14 33
M  V30 36 1 15 34
M  V30 37 1 18 35
M  V30 38 1 18 36
M  V30 39 1 18 37
M  V30 40 1 19 38
M  V30 41 1 19 39
M  V30 42 1 19 40
M  V30 43 1 20 41
M  V30 44 1 21 42
M  V30 END BOND
M  V30 END CTAB
M  END
>  <Dataset>  (399) 
ChEMBL_Kinases

>  <Ligand_Instance>  (399) 
nan

>  <PDB_ID>  (399) 
nan

>  <Standardized_SMILES>  (399) 
Cc1nc(C)c(-c2ccnc(Nc3ccc(N(C)C)cc3)n2)s1

>  <Name>  (399) 
nan

>  <Pocket>  (399) 
nan

>  <ATP_Site>  (399) 
nan

>  <Peripheral>  (399) 
nan

>  <Num_H_Atoms_ProtBoundConf>  (399) 
nan

>  <Num_Resolved_Atoms>  (399) 
nan

>  <Num_Not_Resolved_Atoms>  (399) 
nan

$$$$
CHEMBL2037206
     RDKit          3D

  0  0  0  0  0  0  0  0  0  0999 V3000
M  V30 BEGIN CTAB
M  V30 COUNTS 63 67 0 0 0
M  V30 BEGIN ATOM
M  V30 1 C 1.159663 -0.307169 5.495375 0
M  V30 2 C 1.778409 0.986521 5.016150 0
M  V30 3 C 1.522058 1.220933 3.573300 0
M  V30 4 C 2.439097 1.355180 2.652407 0
M  V30 5 C 3.845961 1.274834 2.994086 0
M  V30 6 O 4.579301 1.090354 3.978488 0
M  V30 7 N 4.582560 1.476296 1.796094 0
M  V30 8 C 3.698288 1.684972 0.693337 0
M  V30 9 C 3.862166 1.934280 -0.671911 0
M  V30 10 C 2.770182 2.105298 -1.485979 0
M  V30 11 C 1.493578 2.035878 -0.980093 0
M  V30 12 Cl 0.111791 2.255229 -2.027678 0
M  V30 13 C 1.386997 1.788209 0.369948 0
M  V30 14 C 2.438403 1.606989 1.238357 0
M  V30 15 C 0.068108 1.178311 3.497908 0
M  V30 16 C -0.940374 1.850241 4.206626 0
M  V30 17 C -2.184283 1.459021 3.763393 0
M  V30 18 C -1.897976 0.542477 2.779029 0
M  V30 19 C -2.863909 -0.192912 1.969592 0
M  V30 20 C -4.218940 -0.005083 2.141457 0
M  V30 21 C -5.192631 -0.662305 1.417435 0
M  V30 22 C -4.790516 -1.582329 0.441660 0
M  V30 23 C -3.416341 -1.753411 0.288065 0
M  V30 24 C -2.921911 -2.693669 -0.706815 0
M  V30 25 O -3.101895 -3.802634 -0.125176 0
M  V30 26 N -2.350727 -2.884995 -1.991362 0
M  V30 27 C -2.130080 -4.261577 -2.292426 0
M  V30 28 C -0.669968 -4.626915 -2.381040 0
M  V30 29 C 0.237866 -3.455083 -2.125215 0
M  V30 30 N 0.273348 -2.460664 -3.133584 0
M  V30 31 C 1.483570 -2.412965 -3.904471 0
M  V30 32 C -0.927251 -2.197895 -3.842482 0
M  V30 33 C -2.021728 -1.799788 -2.907812 0
M  V30 34 C -2.457718 -1.093187 1.015273 0
M  V30 35 O -0.619871 0.444435 2.694752 0
M  V30 36 H 1.950685 -1.028765 5.772688 0
M  V30 37 H 0.595958 -0.788416 4.672891 0
M  V30 38 H 0.502983 -0.154621 6.367569 0
M  V30 39 H 1.310243 1.797049 5.625562 0
M  V30 40 H 2.825540 0.956047 5.289396 0
M  V30 41 H 5.622708 1.499148 1.570887 0
M  V30 42 H 4.855407 1.993577 -1.083390 0
M  V30 43 H 2.960293 2.293216 -2.525394 0
M  V30 44 H 0.370138 1.758959 0.713207 0
M  V30 45 H -0.690346 2.575828 4.994477 0
M  V30 46 H -3.143175 1.806235 4.123194 0
M  V30 47 H -4.501162 0.715472 2.906268 0
M  V30 48 H -6.248367 -0.467844 1.603280 0
M  V30 49 H -5.520460 -2.110330 -0.139062 0
M  V30 50 H -2.538710 -4.445742 -3.330392 0
M  V30 51 H -2.725295 -4.919235 -1.641655 0
M  V30 52 H -0.374672 -5.107131 -3.316870 0
M  V30 53 H -0.472803 -5.350191 -1.555950 0
M  V30 54 H 0.078115 -2.964456 -1.155336 0
M  V30 55 H 1.273771 -3.893435 -2.071146 0
M  V30 56 H 1.199140 -2.455897 -4.974143 0
M  V30 57 H 2.238932 -3.166160 -3.606364 0
M  V30 58 H 1.922333 -1.397287 -3.741674 0
M  V30 59 H -1.290661 -3.069864 -4.434607 0
M  V30 60 H -0.732535 -1.329061 -4.520044 0
M  V30 61 H -1.805413 -0.888512 -2.322262 0
M  V30 62 H -2.937586 -1.647767 -3.529590 0
M  V30 63 H -1.405751 -1.240262 0.882066 0
M  V30 END ATOM
M  V30 BEGIN BOND
M  V30 1 1 1 2
M  V30 2 1 2 3
M  V30 3 2 3 4 CFG=2
M  V30 4 1 4 5
M  V30 5 2 5 6
M  V30 6 1 5 7
M  V30 7 1 7 8
M  V30 8 2 8 9
M  V30 9 1 9 10
M  V30 10 2 10 11
M  V30 11 1 11 12
M  V30 12 1 11 13
M  V30 13 2 13 14
M  V30 14 1 3 15
M  V30 15 2 15 16
M  V30 16 1 16 17
M  V30 17 2 17 18
M  V30 18 1 18 19
M  V30 19 2 19 20
M  V30 20 1 20 21
M  V30 21 2 21 22
M  V30 22 1 22 23
M  V30 23 1 23 24
M  V30 24 2 24 25
M  V30 25 1 24 26
M  V30 26 1 26 27
M  V30 27 1 27 28
M  V30 28 1 28 29
M  V30 29 1 29 30
M  V30 30 1 30 31
M  V30 31 1 30 32
M  V30 32 1 32 33
M  V30 33 2 23 34
M  V30 34 1 18 35
M  V30 35 1 14 4
M  V30 36 1 35 15
M  V30 37 1 14 8
M  V30 38 1 34 19
M  V30 39 1 33 26
M  V30 40 1 1 36
M  V30 41 1 1 37
M  V30 42 1 1 38
M  V30 43 1 2 39
M  V30 44 1 2 40
M  V30 45 1 7 41
M  V30 46 1 9 42
M  V30 47 1 10 43
M  V30 48 1 13 44
M  V30 49 1 16 45
M  V30 50 1 17 46
M  V30 51 1 20 47
M  V30 52 1 21 48
M  V30 53 1 22 49
M  V30 54 1 27 50
M  V30 55 1 27 51
M  V30 56 1 28 52
M  V30 57 1 28 53
M  V30 58 1 29 54
M  V30 59 1 29 55
M  V30 60 1 31 56
M  V30 61 1 31 57
M  V30 62 1 31 58
M  V30 63 1 32 59
M  V30 64 1 32 60
M  V30 65 1 33 61
M  V30 66 1 33 62
M  V30 67 1 34 63
M  V30 END BOND
M  V30 END CTAB
M  END
>  <Dataset>  (400) 
ChEMBL_Kinases

>  <Ligand_Instance>  (400) 
nan

>  <PDB_ID>  (400) 
nan

>  <Standardized_SMILES>  (400) 
CCC(=C1C(=O)Nc2ccc(Cl)cc21)c1ccc(-c2cccc(C(=O)N3CCCN(C)CC3)c2)o1

>  <Name>  (400) 
nan

>  <Pocket>  (400) 
nan

>  <ATP_Site>  (400) 
nan

>  <Peripheral>  (400) 
nan

>  <Num_H_Atoms_ProtBoundConf>  (400) 
nan

>  <Num_Resolved_Atoms>  (400) 
nan

>  <Num_Not_Resolved_Atoms>  (400) 
nan

$$$$
CHEMBL2037205
     RDKit          3D

  0  0  0  0  0  0  0  0  0  0999 V3000
M  V30 BEGIN CTAB
M  V30 COUNTS 60 64 0 0 0
M  V30 BEGIN ATOM
M  V30 1 C 2.443360 -0.543976 2.730004 0
M  V30 2 C 2.006133 0.829009 2.479202 0
M  V30 3 C 2.560542 1.763598 1.693457 0
M  V30 4 C 2.153504 3.168150 1.404244 0
M  V30 5 O 1.195952 3.755903 1.911985 0
M  V30 6 N 3.046494 3.703837 0.456836 0
M  V30 7 C 4.029293 2.717509 0.102986 0
M  V30 8 C 5.097038 2.771820 -0.798728 0
M  V30 9 C 5.921359 1.660331 -0.996405 0
M  V30 10 C 5.625873 0.530111 -0.263109 0
M  V30 11 Cl 6.684388 -0.813458 -0.570598 0
M  V30 12 C 4.569475 0.536803 0.603251 0
M  V30 13 C 3.722206 1.599160 0.838203 0
M  V30 14 C 0.759271 1.349481 3.118548 0
M  V30 15 C 0.138294 2.230637 3.952498 0
M  V30 16 C -1.204211 1.961526 3.932342 0
M  V30 17 C -1.387998 0.924089 3.088818 0
M  V30 18 C -2.605423 0.197813 2.661988 0
M  V30 19 C -3.880596 0.486177 3.131787 0
M  V30 20 C -4.956523 -0.247658 2.674932 0
M  V30 21 C -4.856303 -1.293729 1.744164 0
M  V30 22 C -3.600242 -1.556044 1.300339 0
M  V30 23 C -3.348024 -2.591024 0.332286 0
M  V30 24 O -4.450346 -3.006104 -0.149902 0
M  V30 25 N -2.436000 -3.393054 -0.363006 0
M  V30 26 C -3.044625 -4.286005 -1.301474 0
M  V30 27 C -2.245821 -4.859408 -2.376199 0
M  V30 28 C -0.849566 -4.523690 -2.622521 0
M  V30 29 N -0.431419 -3.167751 -2.593863 0
M  V30 30 C -0.960921 -2.340666 -3.623736 0
M  V30 31 C -0.324950 -2.583255 -1.295986 0
M  V30 32 C -1.019294 -3.399240 -0.227296 0
M  V30 33 C -2.545703 -0.833045 1.752637 0
M  V30 34 O -0.212061 0.584252 2.625585 0
M  V30 35 H 1.659943 -0.984010 3.436907 0
M  V30 36 H 2.367483 -1.232043 1.852347 0
M  V30 37 H 3.401434 -0.676730 3.233223 0
M  V30 38 H 2.965470 4.682057 0.091298 0
M  V30 39 H 5.210289 3.726092 -1.309385 0
M  V30 40 H 6.685710 1.884089 -1.726890 0
M  V30 41 H 4.398607 -0.372752 1.142904 0
M  V30 42 H 0.810147 2.896213 4.416008 0
M  V30 43 H -1.946612 2.479194 4.478495 0
M  V30 44 H -4.002329 1.275141 3.848754 0
M  V30 45 H -5.938308 -0.005133 3.062560 0
M  V30 46 H -5.739956 -1.821680 1.436338 0
M  V30 47 H -3.996749 -3.792204 -1.702139 0
M  V30 48 H -3.465793 -5.129423 -0.668756 0
M  V30 49 H -2.814612 -4.649598 -3.344582 0
M  V30 50 H -2.307752 -5.996580 -2.345470 0
M  V30 51 H -0.625246 -4.862187 -3.697416 0
M  V30 52 H -0.137486 -5.142067 -2.036872 0
M  V30 53 H -2.057790 -2.380979 -3.720851 0
M  V30 54 H -0.568052 -2.708866 -4.601830 0
M  V30 55 H -0.693997 -1.300661 -3.460874 0
M  V30 56 H -0.720255 -1.553582 -1.355732 0
M  V30 57 H 0.735012 -2.496073 -1.013076 0
M  V30 58 H -0.663657 -3.013930 0.745845 0
M  V30 59 H -0.641885 -4.461187 -0.238599 0
M  V30 60 H -1.550097 -1.040161 1.389393 0
M  V30 END ATOM
M  V30 BEGIN BOND
M  V30 1 1 1 2
M  V30 2 2 2 3 CFG=2
M  V30 3 1 3 4
M  V30 4 2 4 5
M  V30 5 1 4 6
M  V30 6 1 6 7
M  V30 7 2 7 8
M  V30 8 1 8 9
M  V30 9 2 9 10
M  V30 10 1 10 11
M  V30 11 1 10 12
M  V30 12 2 12 13
M  V30 13 1 2 14
M  V30 14 2 14 15
M  V30 15 1 15 16
M  V30 16 2 16 17
M  V30 17 1 17 18
M  V30 18 2 18 19
M  V30 19 1 19 20
M  V30 20 2 20 21
M  V30 21 1 21 22
M  V30 22 1 22 23
M  V30 23 2 23 24
M  V30 24 1 23 25
M  V30 25 1 25 26
M  V30 26 1 26 27
M  V30 27 1 27 28
M  V30 28 1 28 29
M  V30 29 1 29 30
M  V30 30 1 29 31
M  V30 31 1 31 32
M  V30 32 2 22 33
M  V30 33 1 17 34
M  V30 34 1 13 3
M  V30 35 1 34 14
M  V30 36 1 13 7
M  V30 37 1 33 18
M  V30 38 1 32 25
M  V30 39 1 1 35
M  V30 40 1 1 36
M  V30 41 1 1 37
M  V30 42 1 6 38
M  V30 43 1 8 39
M  V30 44 1 9 40
M  V30 45 1 12 41
M  V30 46 1 15 42
M  V30 47 1 16 43
M  V30 48 1 19 44
M  V30 49 1 20 45
M  V30 50 1 21 46
M  V30 51 1 26 47
M  V30 52 1 26 48
M  V30 53 1 27 49
M  V30 54 1 27 50
M  V30 55 1 28 51
M  V30 56 1 28 52
M  V30 57 1 30 53
M  V30 58 1 30 54
M  V30 59 1 30 55
M  V30 60 1 31 56
M  V30 61 1 31 57
M  V30 62 1 32 58
M  V30 63 1 32 59
M  V30 64 1 33 60
M  V30 END BOND
M  V30 END CTAB
M  END
>  <Dataset>  (401) 
ChEMBL_Kinases

>  <Ligand_Instance>  (401) 
nan

>  <PDB_ID>  (401) 
nan

>  <Standardized_SMILES>  (401) 
CC(=C1C(=O)Nc2ccc(Cl)cc21)c1ccc(-c2cccc(C(=O)N3CCCN(C)CC3)c2)o1

>  <Name>  (401) 
nan

>  <Pocket>  (401) 
nan

>  <ATP_Site>  (401) 
nan

>  <Peripheral>  (401) 
nan

>  <Num_H_Atoms_ProtBoundConf>  (401) 
nan

>  <Num_Resolved_Atoms>  (401) 
nan

>  <Num_Not_Resolved_Atoms>  (401) 
nan

$$$$
CHEMBL2037204
     RDKit          3D

  0  0  0  0  0  0  0  0  0  0999 V3000
M  V30 BEGIN CTAB
M  V30 COUNTS 57 61 0 0 0
M  V30 BEGIN ATOM
M  V30 1 C 5.148647 -2.565277 2.453646 0
M  V30 2 N 4.403309 -1.462837 1.933552 0
M  V30 3 C 4.321892 -0.398642 2.905379 0
M  V30 4 C 5.331673 0.699215 2.693076 0
M  V30 5 C 4.917617 1.692291 1.655094 0
M  V30 6 N 3.795288 1.193398 0.856096 0
M  V30 7 C 2.577467 1.915307 0.966050 0
M  V30 8 O 2.771181 2.857335 1.771007 0
M  V30 9 C 1.417074 1.485068 0.199733 0
M  V30 10 C 1.649634 1.421168 -1.167529 0
M  V30 11 C 0.622858 1.030849 -1.997891 0
M  V30 12 C -0.601489 0.721758 -1.392827 0
M  V30 13 F -1.566648 0.344264 -2.262342 0
M  V30 14 C -0.789523 0.796168 -0.050194 0
M  V30 15 C -2.113706 0.462328 0.517016 0
M  V30 16 C -2.495248 0.458292 1.837267 0
M  V30 17 C -3.811219 0.074372 1.734870 0
M  V30 18 C -4.206443 -0.144020 0.404156 0
M  V30 19 C -5.582266 -0.545132 0.198999 0
M  V30 20 C -6.159474 -1.548920 -0.406597 0
M  V30 21 C -7.554248 -1.936856 -0.611995 0
M  V30 22 O -8.452252 -1.172652 -0.170088 0
M  V30 23 N -7.557851 -3.169510 -1.312799 0
M  V30 24 C -6.200028 -3.531786 -1.532818 0
M  V30 25 C -5.743377 -4.663616 -2.168352 0
M  V30 26 C -4.371574 -4.887794 -2.293992 0
M  V30 27 C -3.489585 -3.949752 -1.765757 0
M  V30 28 Cl -1.792114 -4.324797 -1.973558 0
M  V30 29 C -4.026670 -2.845576 -1.146154 0
M  V30 30 C -5.352566 -2.588577 -1.004656 0
M  V30 31 O -3.100235 0.119748 -0.248278 0
M  V30 32 C 0.219305 1.184184 0.810585 0
M  V30 33 C 3.991738 0.019105 0.024066 0
M  V30 34 C 4.890691 -1.001600 0.670991 0
M  V30 35 H 5.754145 -2.315872 3.355993 0
M  V30 36 H 5.783653 -2.951324 1.606464 0
M  V30 37 H 4.522352 -3.441961 2.738649 0
M  V30 38 H 3.289364 -0.001471 2.861424 0
M  V30 39 H 4.436352 -0.858815 3.915010 0
M  V30 40 H 5.372593 1.253847 3.674540 0
M  V30 41 H 6.330064 0.310086 2.449234 0
M  V30 42 H 4.658111 2.683971 2.089058 0
M  V30 43 H 5.773991 1.855135 0.950943 0
M  V30 44 H 2.597210 1.663428 -1.619609 0
M  V30 45 H 0.769723 0.969412 -3.065548 0
M  V30 46 H -1.874750 0.703380 2.681127 0
M  V30 47 H -4.386658 -0.013644 2.680421 0
M  V30 48 H -6.328844 0.143594 0.641263 0
M  V30 49 H -8.485063 -3.565377 -1.528539 0
M  V30 50 H -6.415306 -5.387663 -2.575405 0
M  V30 51 H -4.065231 -5.782122 -2.796527 0
M  V30 52 H -3.211881 -2.257201 -0.794376 0
M  V30 53 H 0.075744 1.243906 1.869196 0
M  V30 54 H 4.522690 0.390575 -0.889854 0
M  V30 55 H 3.042648 -0.418128 -0.319359 0
M  V30 56 H 5.914656 -0.595961 0.679808 0
M  V30 57 H 4.894597 -1.879057 -0.038579 0
M  V30 END ATOM
M  V30 BEGIN BOND
M  V30 1 1 1 2
M  V30 2 1 2 3
M  V30 3 1 3 4
M  V30 4 1 4 5
M  V30 5 1 5 6
M  V30 6 1 6 7
M  V30 7 2 7 8
M  V30 8 1 7 9
M  V30 9 2 9 10
M  V30 10 1 10 11
M  V30 11 2 11 12
M  V30 12 1 12 13
M  V30 13 1 12 14
M  V30 14 1 14 15
M  V30 15 2 15 16
M  V30 16 1 16 17
M  V30 17 2 17 18
M  V30 18 1 18 19
M  V30 19 2 19 20
M  V30 20 1 20 21
M  V30 21 2 21 22
M  V30 22 1 21 23
M  V30 23 1 23 24
M  V30 24 2 24 25
M  V30 25 1 25 26
M  V30 26 2 26 27
M  V30 27 1 27 28
M  V30 28 1 27 29
M  V30 29 2 29 30
M  V30 30 1 18 31
M  V30 31 2 14 32
M  V30 32 1 6 33
M  V30 33 1 33 34
M  V30 34 1 34 2
M  V30 35 1 32 9
M  V30 36 1 31 15
M  V30 37 1 30 20
M  V30 38 1 30 24
M  V30 39 1 1 35
M  V30 40 1 1 36
M  V30 41 1 1 37
M  V30 42 1 3 38
M  V30 43 1 3 39
M  V30 44 1 4 40
M  V30 45 1 4 41
M  V30 46 1 5 42
M  V30 47 1 5 43
M  V30 48 1 10 44
M  V30 49 1 11 45
M  V30 50 1 16 46
M  V30 51 1 17 47
M  V30 52 1 19 48
M  V30 53 1 23 49
M  V30 54 1 25 50
M  V30 55 1 26 51
M  V30 56 1 29 52
M  V30 57 1 32 53
M  V30 58 1 33 54
M  V30 59 1 33 55
M  V30 60 1 34 56
M  V30 61 1 34 57
M  V30 END BOND
M  V30 END CTAB
M  END
>  <Dataset>  (402) 
ChEMBL_Kinases

>  <Ligand_Instance>  (402) 
nan

>  <PDB_ID>  (402) 
nan

>  <Standardized_SMILES>  (402) 
CN1CCCN(C(=O)c2ccc(F)c(-c3ccc(/C=C4/C(=O)Nc5ccc(Cl)cc54)o3)c2)CC1

>  <Name>  (402) 
nan

>  <Pocket>  (402) 
nan

>  <ATP_Site>  (402) 
nan

>  <Peripheral>  (402) 
nan

>  <Num_H_Atoms_ProtBoundConf>  (402) 
nan

>  <Num_Resolved_Atoms>  (402) 
nan

>  <Num_Not_Resolved_Atoms>  (402) 
nan

$$$$
CHEMBL2037203
     RDKit          3D

  0  0  0  0  0  0  0  0  0  0999 V3000
M  V30 BEGIN CTAB
M  V30 COUNTS 57 61 0 0 0
M  V30 BEGIN ATOM
M  V30 1 C 0.469993 -0.943654 3.342456 0
M  V30 2 N -0.368746 -2.099499 3.269766 0
M  V30 3 C -1.652520 -1.902948 3.912008 0
M  V30 4 C -2.449840 -0.802522 3.279015 0
M  V30 5 C -3.432276 -1.394839 2.294366 0
M  V30 6 N -2.674463 -2.064858 1.257516 0
M  V30 7 C -2.910925 -1.549903 -0.024729 0
M  V30 8 O -3.756308 -0.592800 -0.009402 0
M  V30 9 C -2.589353 -1.643023 -1.442838 0
M  V30 10 C -3.493832 -2.226771 -2.300782 0
M  V30 11 C -3.174187 -2.311811 -3.665215 0
M  V30 12 C -1.956405 -1.794003 -4.050971 0
M  V30 13 Cl -1.641695 -1.934288 -5.762978 0
M  V30 14 C -1.040195 -1.211261 -3.228919 0
M  V30 15 C 0.252147 -0.672515 -3.638479 0
M  V30 16 C 0.935113 -0.606999 -4.814593 0
M  V30 17 C 2.154471 0.012442 -4.681764 0
M  V30 18 C 2.172783 0.325432 -3.336491 0
M  V30 19 C 3.095060 0.966329 -2.422949 0
M  V30 20 C 3.016130 2.039963 -1.674199 0
M  V30 21 C 3.968442 2.638717 -0.757872 0
M  V30 22 O 5.080787 2.150154 -0.494926 0
M  V30 23 N 3.367510 3.816354 -0.278411 0
M  V30 24 C 2.095192 3.930047 -0.882235 0
M  V30 25 C 1.197930 4.952664 -0.690521 0
M  V30 26 C -0.012295 4.929245 -1.388023 0
M  V30 27 C -0.258633 3.860370 -2.255125 0
M  V30 28 Cl -1.824161 3.982431 -3.055172 0
M  V30 29 C 0.690259 2.871897 -2.391492 0
M  V30 30 C 1.861524 2.870536 -1.730190 0
M  V30 31 O 1.063821 -0.088268 -2.792638 0
M  V30 32 C -1.385403 -1.139845 -1.874215 0
M  V30 33 C -1.759768 -3.158150 1.512924 0
M  V30 34 C -0.416681 -2.714078 1.984477 0
M  V30 35 H 0.235878 -0.161813 2.595208 0
M  V30 36 H 1.501699 -1.277390 3.132972 0
M  V30 37 H 0.433335 -0.551985 4.379750 0
M  V30 38 H -2.175936 -2.851617 4.014704 0
M  V30 39 H -1.396563 -1.564791 4.959607 0
M  V30 40 H -3.078341 -0.312524 4.076285 0
M  V30 41 H -1.806732 -0.013378 2.857998 0
M  V30 42 H -4.123707 -0.657903 1.879980 0
M  V30 43 H -4.000579 -2.172627 2.889950 0
M  V30 44 H -4.430763 -2.616296 -1.940139 0
M  V30 45 H -3.869686 -2.769335 -4.355903 0
M  V30 46 H 0.597759 -0.985253 -5.760017 0
M  V30 47 H 2.967593 0.264526 -5.306094 0
M  V30 48 H 4.017722 0.371191 -2.406853 0
M  V30 49 H 3.830175 4.469399 0.413315 0
M  V30 50 H 1.383692 5.774483 -0.027477 0
M  V30 51 H -0.687951 5.751371 -1.217595 0
M  V30 52 H 0.316208 2.194612 -3.096421 0
M  V30 53 H -0.723490 -0.698778 -1.133450 0
M  V30 54 H -2.242527 -3.938700 2.123587 0
M  V30 55 H -1.591788 -3.648407 0.511428 0
M  V30 56 H 0.047484 -2.122803 1.173432 0
M  V30 57 H 0.212766 -3.645563 2.061899 0
M  V30 END ATOM
M  V30 BEGIN BOND
M  V30 1 1 1 2
M  V30 2 1 2 3
M  V30 3 1 3 4
M  V30 4 1 4 5
M  V30 5 1 5 6
M  V30 6 1 6 7
M  V30 7 2 7 8
M  V30 8 1 7 9
M  V30 9 2 9 10
M  V30 10 1 10 11
M  V30 11 2 11 12
M  V30 12 1 12 13
M  V30 13 1 12 14
M  V30 14 1 14 15
M  V30 15 2 15 16
M  V30 16 1 16 17
M  V30 17 2 17 18
M  V30 18 1 18 19
M  V30 19 2 19 20
M  V30 20 1 20 21
M  V30 21 2 21 22
M  V30 22 1 21 23
M  V30 23 1 23 24
M  V30 24 2 24 25
M  V30 25 1 25 26
M  V30 26 2 26 27
M  V30 27 1 27 28
M  V30 28 1 27 29
M  V30 29 2 29 30
M  V30 30 1 18 31
M  V30 31 2 14 32
M  V30 32 1 6 33
M  V30 33 1 33 34
M  V30 34 1 34 2
M  V30 35 1 32 9
M  V30 36 1 31 15
M  V30 37 1 30 20
M  V30 38 1 30 24
M  V30 39 1 1 35
M  V30 40 1 1 36
M  V30 41 1 1 37
M  V30 42 1 3 38
M  V30 43 1 3 39
M  V30 44 1 4 40
M  V30 45 1 4 41
M  V30 46 1 5 42
M  V30 47 1 5 43
M  V30 48 1 10 44
M  V30 49 1 11 45
M  V30 50 1 16 46
M  V30 51 1 17 47
M  V30 52 1 19 48
M  V30 53 1 23 49
M  V30 54 1 25 50
M  V30 55 1 26 51
M  V30 56 1 29 52
M  V30 57 1 32 53
M  V30 58 1 33 54
M  V30 59 1 33 55
M  V30 60 1 34 56
M  V30 61 1 34 57
M  V30 END BOND
M  V30 END CTAB
M  END
>  <Dataset>  (403) 
ChEMBL_Kinases

>  <Ligand_Instance>  (403) 
nan

>  <PDB_ID>  (403) 
nan

>  <Standardized_SMILES>  (403) 
CN1CCCN(C(=O)c2ccc(Cl)c(-c3ccc(/C=C4/C(=O)Nc5ccc(Cl)cc54)o3)c2)CC1

>  <Name>  (403) 
nan

>  <Pocket>  (403) 
nan

>  <ATP_Site>  (403) 
nan

>  <Peripheral>  (403) 
nan

>  <Num_H_Atoms_ProtBoundConf>  (403) 
nan

>  <Num_Resolved_Atoms>  (403) 
nan

>  <Num_Not_Resolved_Atoms>  (403) 
nan

$$$$
CHEMBL2037202
     RDKit          3D

  0  0  0  0  0  0  0  0  0  0999 V3000
M  V30 BEGIN CTAB
M  V30 COUNTS 55 59 0 0 0
M  V30 BEGIN ATOM
M  V30 1 C 2.832471 -0.919109 2.964449 0
M  V30 2 N 3.670314 -0.453573 1.882683 0
M  V30 3 C 5.064637 -0.384240 2.258399 0
M  V30 4 C 5.799920 0.388975 1.189091 0
M  V30 5 C 4.950459 1.585839 0.760545 0
M  V30 6 N 3.783559 1.200980 0.019325 0
M  V30 7 C 2.921208 2.345066 -0.150694 0
M  V30 8 O 3.428516 3.354181 0.389195 0
M  V30 9 C 1.736230 1.910939 -0.908706 0
M  V30 10 C 1.560073 1.836789 -2.273436 0
M  V30 11 N 0.389956 1.403768 -2.768796 0
M  V30 12 C -0.575713 1.055060 -1.903293 0
M  V30 13 C -0.457362 1.107834 -0.533375 0
M  V30 14 C -1.517525 0.722851 0.398858 0
M  V30 15 C -1.432625 0.764712 1.753482 0
M  V30 16 C -2.696134 0.300190 2.130979 0
M  V30 17 C -3.485274 -0.000347 1.016416 0
M  V30 18 C -4.812058 -0.482547 1.333587 0
M  V30 19 C -5.467384 -1.545812 1.003174 0
M  V30 20 C -6.819954 -1.967742 1.358944 0
M  V30 21 O -7.607174 -1.306477 2.053198 0
M  V30 22 N -7.021029 -3.241424 0.762243 0
M  V30 23 C -5.835403 -3.603880 0.058871 0
M  V30 24 C -5.522779 -4.732288 -0.663913 0
M  V30 25 C -4.294389 -4.907006 -1.266668 0
M  V30 26 C -3.377472 -3.890315 -1.112573 0
M  V30 27 Cl -1.847238 -4.217483 -1.918359 0
M  V30 28 C -3.681388 -2.761655 -0.393869 0
M  V30 29 C -4.908206 -2.599369 0.199697 0
M  V30 30 O -2.669638 0.294045 0.045557 0
M  V30 31 N 0.738415 1.550780 -0.053432 0
M  V30 32 C 3.530575 -0.143900 -0.475377 0
M  V30 33 C 3.450447 -1.149821 0.655187 0
M  V30 34 H 1.899260 -1.398793 2.619495 0
M  V30 35 H 2.493021 -0.017200 3.534689 0
M  V30 36 H 3.430052 -1.525330 3.644306 0
M  V30 37 H 5.458226 -1.430070 2.242735 0
M  V30 38 H 5.228081 -0.000319 3.262469 0
M  V30 39 H 6.740820 0.762637 1.591676 0
M  V30 40 H 6.037200 -0.250187 0.311852 0
M  V30 41 H 5.587308 2.256549 0.158789 0
M  V30 42 H 4.678538 2.112481 1.721325 0
M  V30 43 H 2.454946 2.161257 -2.797479 0
M  V30 44 H -1.525112 0.701281 -2.319907 0
M  V30 45 H -0.596853 1.078869 2.346828 0
M  V30 46 H -2.878875 0.240779 3.220300 0
M  V30 47 H -5.415444 0.183765 1.985952 0
M  V30 48 H -7.935574 -3.761559 0.874481 0
M  V30 49 H -6.290118 -5.488456 -0.742482 0
M  V30 50 H -4.126827 -5.811583 -1.812075 0
M  V30 51 H -2.832795 -2.124260 -0.392401 0
M  V30 52 H 2.610677 -0.154935 -1.100298 0
M  V30 53 H 4.371081 -0.373569 -1.172429 0
M  V30 54 H 4.234669 -1.911518 0.470992 0
M  V30 55 H 2.494769 -1.705799 0.647041 0
M  V30 END ATOM
M  V30 BEGIN BOND
M  V30 1 1 1 2
M  V30 2 1 2 3
M  V30 3 1 3 4
M  V30 4 1 4 5
M  V30 5 1 5 6
M  V30 6 1 6 7
M  V30 7 2 7 8
M  V30 8 1 7 9
M  V30 9 2 9 10
M  V30 10 1 10 11
M  V30 11 2 11 12
M  V30 12 1 12 13
M  V30 13 1 13 14
M  V30 14 2 14 15
M  V30 15 1 15 16
M  V30 16 2 16 17
M  V30 17 1 17 18
M  V30 18 2 18 19
M  V30 19 1 19 20
M  V30 20 2 20 21
M  V30 21 1 20 22
M  V30 22 1 22 23
M  V30 23 2 23 24
M  V30 24 1 24 25
M  V30 25 2 25 26
M  V30 26 1 26 27
M  V30 27 1 26 28
M  V30 28 2 28 29
M  V30 29 1 17 30
M  V30 30 2 13 31
M  V30 31 1 6 32
M  V30 32 1 32 33
M  V30 33 1 33 2
M  V30 34 1 31 9
M  V30 35 1 30 14
M  V30 36 1 29 19
M  V30 37 1 29 23
M  V30 38 1 1 34
M  V30 39 1 1 35
M  V30 40 1 1 36
M  V30 41 1 3 37
M  V30 42 1 3 38
M  V30 43 1 4 39
M  V30 44 1 4 40
M  V30 45 1 5 41
M  V30 46 1 5 42
M  V30 47 1 10 43
M  V30 48 1 12 44
M  V30 49 1 15 45
M  V30 50 1 16 46
M  V30 51 1 18 47
M  V30 52 1 22 48
M  V30 53 1 24 49
M  V30 54 1 25 50
M  V30 55 1 28 51
M  V30 56 1 32 52
M  V30 57 1 32 53
M  V30 58 1 33 54
M  V30 59 1 33 55
M  V30 END BOND
M  V30 END CTAB
M  END
>  <Dataset>  (404) 
ChEMBL_Kinases

>  <Ligand_Instance>  (404) 
nan

>  <PDB_ID>  (404) 
nan

>  <Standardized_SMILES>  (404) 
CN1CCCN(C(=O)c2cncc(-c3ccc(/C=C4/C(=O)Nc5ccc(Cl)cc54)o3)n2)CC1

>  <Name>  (404) 
nan

>  <Pocket>  (404) 
nan

>  <ATP_Site>  (404) 
nan

>  <Peripheral>  (404) 
nan

>  <Num_H_Atoms_ProtBoundConf>  (404) 
nan

>  <Num_Resolved_Atoms>  (404) 
nan

>  <Num_Not_Resolved_Atoms>  (404) 
nan

$$$$
CHEMBL2037201
     RDKit          3D

  0  0  0  0  0  0  0  0  0  0999 V3000
M  V30 BEGIN CTAB
M  V30 COUNTS 54 58 0 0 0
M  V30 BEGIN ATOM
M  V30 1 O 1.700965 0.280605 5.447305 0
M  V30 2 C 2.545460 0.068630 4.515250 0
M  V30 3 N 3.712005 -0.736378 4.523379 0
M  V30 4 C 4.283316 -0.604331 3.200895 0
M  V30 5 C 5.423695 -1.203876 2.711531 0
M  V30 6 C 5.815013 -0.966132 1.413350 0
M  V30 7 C 5.081856 -0.126557 0.562430 0
M  V30 8 Cl 5.646313 0.128455 -1.074503 0
M  V30 9 C 3.951728 0.433633 1.133577 0
M  V30 10 C 3.537550 0.220431 2.417438 0
M  V30 11 C 2.419356 0.675556 3.210264 0
M  V30 12 C 1.488755 1.463570 2.753343 0
M  V30 13 C 1.351071 2.096080 1.415776 0
M  V30 14 C 1.796329 3.120597 0.565631 0
M  V30 15 C 1.067858 2.944303 -0.591515 0
M  V30 16 C 0.235593 1.872009 -0.434996 0
M  V30 17 C -0.680563 1.412174 -1.487890 0
M  V30 18 C -0.813566 1.967998 -2.736381 0
M  V30 19 C -1.739499 1.390332 -3.613819 0
M  V30 20 C -2.520386 0.296063 -3.283495 0
M  V30 21 C -2.358946 -0.232816 -2.022344 0
M  V30 22 C -3.136767 -1.377905 -1.577224 0
M  V30 23 O -4.313044 -1.259136 -1.949535 0
M  V30 24 N -2.920519 -2.572557 -0.843523 0
M  V30 25 C -4.217795 -3.219184 -0.818359 0
M  V30 26 C -4.322044 -4.198758 0.361007 0
M  V30 27 C -3.896271 -3.514975 1.653438 0
M  V30 28 N -2.479871 -3.799231 1.856424 0
M  V30 29 C -1.734077 -2.723642 1.228356 0
M  V30 30 C -1.662726 -3.008599 -0.265782 0
M  V30 31 C -1.458274 0.307367 -1.133255 0
M  V30 32 O 0.430487 1.393554 0.770944 0
M  V30 33 H 4.060887 -1.299411 5.336612 0
M  V30 34 H 6.002834 -1.863783 3.359715 0
M  V30 35 H 6.716910 -1.468487 1.094916 0
M  V30 36 H 3.469213 1.039231 0.400960 0
M  V30 37 H 0.687746 1.700122 3.465354 0
M  V30 38 H 2.543100 3.697946 1.084115 0
M  V30 39 H 1.283220 3.656672 -1.371853 0
M  V30 40 H -0.191920 2.819259 -2.965737 0
M  V30 41 H -1.820806 1.863306 -4.604695 0
M  V30 42 H -3.228614 -0.119602 -3.992917 0
M  V30 43 H -5.022963 -2.458161 -0.642058 0
M  V30 44 H -4.440805 -3.795748 -1.718531 0
M  V30 45 H -5.374598 -4.481935 0.495505 0
M  V30 46 H -3.714210 -5.101706 0.185758 0
M  V30 47 H -4.004840 -2.424236 1.578322 0
M  V30 48 H -4.451092 -3.957539 2.498614 0
M  V30 49 H -2.199534 -4.689090 1.379016 0
M  V30 50 H -0.746840 -2.700682 1.713552 0
M  V30 51 H -2.244460 -1.760091 1.421920 0
M  V30 52 H -1.496816 -4.092212 -0.401875 0
M  V30 53 H -0.801242 -2.467953 -0.665237 0
M  V30 54 H -1.367214 -0.146633 -0.150478 0
M  V30 END ATOM
M  V30 BEGIN BOND
M  V30 1 2 1 2
M  V30 2 1 2 3
M  V30 3 1 3 4
M  V30 4 2 4 5
M  V30 5 1 5 6
M  V30 6 2 6 7
M  V30 7 1 7 8
M  V30 8 1 7 9
M  V30 9 2 9 10
M  V30 10 1 10 11
M  V30 11 2 11 12
M  V30 12 1 12 13
M  V30 13 2 13 14
M  V30 14 1 14 15
M  V30 15 2 15 16
M  V30 16 1 16 17
M  V30 17 2 17 18
M  V30 18 1 18 19
M  V30 19 2 19 20
M  V30 20 1 20 21
M  V30 21 1 21 22
M  V30 22 2 22 23
M  V30 23 1 22 24
M  V30 24 1 24 25
M  V30 25 1 25 26
M  V30 26 1 26 27
M  V30 27 1 27 28
M  V30 28 1 28 29
M  V30 29 1 29 30
M  V30 30 2 21 31
M  V30 31 1 16 32
M  V30 32 1 11 2
M  V30 33 1 32 13
M  V30 34 1 10 4
M  V30 35 1 31 17
M  V30 36 1 30 24
M  V30 37 1 3 33
M  V30 38 1 5 34
M  V30 39 1 6 35
M  V30 40 1 9 36
M  V30 41 1 12 37
M  V30 42 1 14 38
M  V30 43 1 15 39
M  V30 44 1 18 40
M  V30 45 1 19 41
M  V30 46 1 20 42
M  V30 47 1 25 43
M  V30 48 1 25 44
M  V30 49 1 26 45
M  V30 50 1 26 46
M  V30 51 1 27 47
M  V30 52 1 27 48
M  V30 53 1 28 49
M  V30 54 1 29 50
M  V30 55 1 29 51
M  V30 56 1 30 52
M  V30 57 1 30 53
M  V30 58 1 31 54
M  V30 END BOND
M  V30 END CTAB
M  END
>  <Dataset>  (405) 
ChEMBL_Kinases

>  <Ligand_Instance>  (405) 
nan

>  <PDB_ID>  (405) 
nan

>  <Standardized_SMILES>  (405) 
O=C1Nc2ccc(Cl)cc2/C1=C\c1ccc(-c2cccc(C(=O)N3CCCNCC3)c2)o1

>  <Name>  (405) 
nan

>  <Pocket>  (405) 
nan

>  <ATP_Site>  (405) 
nan

>  <Peripheral>  (405) 
nan

>  <Num_H_Atoms_ProtBoundConf>  (405) 
nan

>  <Num_Resolved_Atoms>  (405) 
nan

>  <Num_Not_Resolved_Atoms>  (405) 
nan

$$$$
CHEMBL2037200
     RDKit          3D

  0  0  0  0  0  0  0  0  0  0999 V3000
M  V30 BEGIN CTAB
M  V30 COUNTS 57 61 0 0 0
M  V30 BEGIN ATOM
M  V30 1 C 2.284823 -1.105801 1.928044 0
M  V30 2 N 3.567408 -0.992449 1.375581 0
M  V30 3 C 4.601692 -0.381401 2.102888 0
M  V30 4 C 4.894883 1.055715 1.796344 0
M  V30 5 C 5.036484 1.344166 0.318305 0
M  V30 6 N 3.823835 0.939936 -0.386565 0
M  V30 7 C 2.881835 2.026021 -0.355578 0
M  V30 8 O 3.416554 2.955733 0.270358 0
M  V30 9 C 1.669787 1.631498 -1.058237 0
M  V30 10 C 1.582630 1.616316 -2.444122 0
M  V30 11 C 0.359394 1.222873 -2.945804 0
M  V30 12 C -0.709777 0.868068 -2.152891 0
M  V30 13 C -0.582751 0.896919 -0.785378 0
M  V30 14 C -1.695710 0.535867 0.090360 0
M  V30 15 C -1.650456 0.513987 1.484564 0
M  V30 16 C -2.883705 0.128677 2.002524 0
M  V30 17 C -3.628293 -0.067996 0.835197 0
M  V30 18 C -5.029098 -0.485267 0.826975 0
M  V30 19 C -5.511180 -1.693023 0.699301 0
M  V30 20 C -6.923242 -2.021744 0.699394 0
M  V30 21 O -7.953029 -1.326096 0.789506 0
M  V30 22 N -6.943841 -3.459826 0.563013 0
M  V30 23 C -5.605248 -3.931372 0.488622 0
M  V30 24 C -5.045662 -5.185185 0.359373 0
M  V30 25 C -3.702158 -5.461381 0.308521 0
M  V30 26 C -2.821902 -4.374141 0.395108 0
M  V30 27 Cl -1.102467 -4.762628 0.333590 0
M  V30 28 C -3.354020 -3.108250 0.523792 0
M  V30 29 C -4.697735 -2.881248 0.569830 0
M  V30 30 O -2.915806 0.173982 -0.248787 0
M  V30 31 C 0.623871 1.283770 -0.241278 0
M  V30 32 C 3.681581 -0.378458 -0.996973 0
M  V30 33 C 3.807638 -1.445286 0.063179 0
M  V30 34 H 2.084702 -2.069748 2.473688 0
M  V30 35 H 1.525522 -1.118743 1.108756 0
M  V30 36 H 2.042906 -0.310464 2.674126 0
M  V30 37 H 5.524064 -0.973776 1.984597 0
M  V30 38 H 4.296905 -0.394300 3.196712 0
M  V30 39 H 5.882466 1.299255 2.250902 0
M  V30 40 H 4.156189 1.767046 2.223129 0
M  V30 41 H 5.939451 0.803852 -0.024442 0
M  V30 42 H 5.259072 2.419663 0.224829 0
M  V30 43 H 2.453586 1.904506 -2.996717 0
M  V30 44 H 0.268939 1.204550 -4.027752 0
M  V30 45 H -1.651599 0.558686 -2.588522 0
M  V30 46 H -0.805586 0.753022 2.120360 0
M  V30 47 H -3.246999 -0.001523 3.003139 0
M  V30 48 H -5.719098 0.361054 0.947245 0
M  V30 49 H -7.756013 -4.145570 0.518193 0
M  V30 50 H -5.691131 -6.058139 0.288746 0
M  V30 51 H -3.313771 -6.461671 0.210838 0
M  V30 52 H -2.596341 -2.352244 0.584112 0
M  V30 53 H 0.684596 1.290962 0.842543 0
M  V30 54 H 4.522431 -0.495302 -1.701623 0
M  V30 55 H 2.758159 -0.467888 -1.591569 0
M  V30 56 H 4.836775 -1.885436 0.018431 0
M  V30 57 H 3.130451 -2.273523 -0.257388 0
M  V30 END ATOM
M  V30 BEGIN BOND
M  V30 1 1 1 2
M  V30 2 1 2 3
M  V30 3 1 3 4
M  V30 4 1 4 5
M  V30 5 1 5 6
M  V30 6 1 6 7
M  V30 7 2 7 8
M  V30 8 1 7 9
M  V30 9 2 9 10
M  V30 10 1 10 11
M  V30 11 2 11 12
M  V30 12 1 12 13
M  V30 13 1 13 14
M  V30 14 2 14 15
M  V30 15 1 15 16
M  V30 16 2 16 17
M  V30 17 1 17 18
M  V30 18 2 18 19
M  V30 19 1 19 20
M  V30 20 2 20 21
M  V30 21 1 20 22
M  V30 22 1 22 23
M  V30 23 2 23 24
M  V30 24 1 24 25
M  V30 25 2 25 26
M  V30 26 1 26 27
M  V30 27 1 26 28
M  V30 28 2 28 29
M  V30 29 1 17 30
M  V30 30 2 13 31
M  V30 31 1 6 32
M  V30 32 1 32 33
M  V30 33 1 33 2
M  V30 34 1 31 9
M  V30 35 1 30 14
M  V30 36 1 29 19
M  V30 37 1 29 23
M  V30 38 1 1 34
M  V30 39 1 1 35
M  V30 40 1 1 36
M  V30 41 1 3 37
M  V30 42 1 3 38
M  V30 43 1 4 39
M  V30 44 1 4 40
M  V30 45 1 5 41
M  V30 46 1 5 42
M  V30 47 1 10 43
M  V30 48 1 11 44
M  V30 49 1 12 45
M  V30 50 1 15 46
M  V30 51 1 16 47
M  V30 52 1 18 48
M  V30 53 1 22 49
M  V30 54 1 24 50
M  V30 55 1 25 51
M  V30 56 1 28 52
M  V30 57 1 31 53
M  V30 58 1 32 54
M  V30 59 1 32 55
M  V30 60 1 33 56
M  V30 61 1 33 57
M  V30 END BOND
M  V30 END CTAB
M  END
>  <Dataset>  (406) 
ChEMBL_Kinases

>  <Ligand_Instance>  (406) 
nan

>  <PDB_ID>  (406) 
nan

>  <Standardized_SMILES>  (406) 
CN1CCCN(C(=O)c2cccc(-c3ccc(/C=C4/C(=O)Nc5ccc(Cl)cc54)o3)c2)CC1

>  <Name>  (406) 
nan

>  <Pocket>  (406) 
nan

>  <ATP_Site>  (406) 
nan

>  <Peripheral>  (406) 
nan

>  <Num_H_Atoms_ProtBoundConf>  (406) 
nan

>  <Num_Resolved_Atoms>  (406) 
nan

>  <Num_Not_Resolved_Atoms>  (406) 
nan

$$$$
CHEMBL12856
     RDKit          3D

  0  0  0  0  0  0  0  0  0  0999 V3000
M  V30 BEGIN CTAB
M  V30 COUNTS 23 24 0 0 0
M  V30 BEGIN ATOM
M  V30 1 N 1.342732 1.316371 4.160933 0
M  V30 2 C 0.732537 1.255768 2.872161 0
M  V30 3 C 0.870221 0.182684 1.995806 0
M  V30 4 C 0.214665 0.278345 0.784067 0
M  V30 5 C 0.333382 -0.826037 -0.163518 0
M  V30 6 C 0.475683 -2.135963 0.178885 0
M  V30 7 C 0.587183 -3.173317 -0.721088 0
M  V30 8 N 0.555068 -2.889349 -2.051574 0
M  V30 9 C 0.414685 -1.597704 -2.457707 0
M  V30 10 C 0.302754 -0.556163 -1.536859 0
M  V30 11 C -0.557024 1.355458 0.393469 0
M  V30 12 N -0.689098 2.402587 1.253127 0
M  V30 13 C -0.049697 2.310263 2.436089 0
M  V30 14 O -0.179720 3.295677 3.233693 0
M  V30 15 H 1.021544 0.859055 5.047972 0
M  V30 16 H 2.192412 1.922099 4.037152 0
M  V30 17 H 1.467120 -0.647353 2.301185 0
M  V30 18 H 0.504827 -2.394072 1.234061 0
M  V30 19 H 0.698705 -4.199362 -0.403220 0
M  V30 20 H 0.389334 -1.372934 -3.516943 0
M  V30 21 H 0.193281 0.449388 -1.938696 0
M  V30 22 H -1.052748 1.387955 -0.565351 0
M  V30 23 H -1.253198 3.253446 1.035470 0
M  V30 END ATOM
M  V30 BEGIN BOND
M  V30 1 1 1 2
M  V30 2 2 2 3
M  V30 3 1 3 4
M  V30 4 1 4 5
M  V30 5 2 5 6
M  V30 6 1 6 7
M  V30 7 2 7 8
M  V30 8 1 8 9
M  V30 9 2 9 10
M  V30 10 2 4 11
M  V30 11 1 11 12
M  V30 12 1 12 13
M  V30 13 2 13 14
M  V30 14 1 13 2
M  V30 15 1 10 5
M  V30 16 1 1 15
M  V30 17 1 1 16
M  V30 18 1 3 17
M  V30 19 1 6 18
M  V30 20 1 7 19
M  V30 21 1 9 20
M  V30 22 1 10 21
M  V30 23 1 11 22
M  V30 24 1 12 23
M  V30 END BOND
M  V30 END CTAB
M  END
>  <Dataset>  (407) 
ChEMBL_Kinases

>  <Ligand_Instance>  (407) 
nan

>  <PDB_ID>  (407) 
nan

>  <Standardized_SMILES>  (407) 
Nc1cc(-c2ccncc2)c[nH]c1=O

>  <Name>  (407) 
INAMRINONE

>  <Pocket>  (407) 
nan

>  <ATP_Site>  (407) 
nan

>  <Peripheral>  (407) 
nan

>  <Num_H_Atoms_ProtBoundConf>  (407) 
nan

>  <Num_Resolved_Atoms>  (407) 
nan

>  <Num_Not_Resolved_Atoms>  (407) 
nan

$$$$
CHEMBL564555
     RDKit          3D

  0  0  0  0  0  0  0  0  0  0999 V3000
M  V30 BEGIN CTAB
M  V30 COUNTS 50 53 0 0 0
M  V30 BEGIN ATOM
M  V30 1 C 0.139722 -4.180108 2.018742 0
M  V30 2 C 1.123385 -3.247676 2.645245 0
M  V30 3 C 0.438203 -1.966041 3.119039 0
M  V30 4 C 2.350334 -2.972159 1.863451 0
M  V30 5 C 2.202891 -2.378566 0.545364 0
M  V30 6 C 2.260491 -1.003315 0.501399 0
M  V30 7 C 2.079616 -0.359399 -0.729557 0
M  V30 8 C 2.131443 1.110822 -0.711790 0
M  V30 9 C 3.085813 2.068659 -0.948906 0
M  V30 10 N 2.503422 3.262513 -0.748872 0
M  V30 11 C 1.220427 3.115186 -0.394847 0
M  V30 12 N 0.278451 4.029732 -0.111457 0
M  V30 13 C -0.990159 3.700627 0.222675 0
M  V30 14 C -1.337457 2.338948 0.276264 0
M  V30 15 C -2.685150 1.853641 0.611901 0
M  V30 16 C -2.787984 0.623469 1.261794 0
M  V30 17 C -4.048193 0.114856 1.599520 0
M  V30 18 C -5.157163 0.869098 1.267662 0
M  V30 19 C -5.089625 2.092704 0.623318 0
M  V30 20 C -3.822180 2.572231 0.300285 0
M  V30 21 C -0.341183 1.432838 -0.020616 0
M  V30 22 C 0.956152 1.741722 -0.363770 0
M  V30 23 C 1.844882 -1.026388 -1.913700 0
M  V30 24 C 1.785661 -2.402389 -1.882479 0
M  V30 25 C 1.969151 -2.996525 -0.654679 0
M  V30 26 C 1.953124 -4.445038 -0.702917 0
M  V30 27 O 1.757094 -5.239121 -1.646573 0
M  V30 28 O 2.047349 -5.714626 -0.216429 0
M  V30 29 H -0.756937 -4.230533 2.696738 0
M  V30 30 H 0.532549 -5.209349 1.939219 0
M  V30 31 H -0.220202 -3.853164 1.047134 0
M  V30 32 H 1.481997 -3.717134 3.618063 0
M  V30 33 H 1.183120 -1.162192 3.292326 0
M  V30 34 H -0.065509 -2.119602 4.093057 0
M  V30 35 H -0.302891 -1.612504 2.402044 0
M  V30 36 H 3.024741 -2.364937 2.538895 0
M  V30 37 H 2.912788 -3.957759 1.800242 0
M  V30 38 H 2.441609 -0.398940 1.389055 0
M  V30 39 H 4.076982 1.752005 -1.234611 0
M  V30 40 H 3.046572 4.157547 -0.872267 0
M  V30 41 H -1.788741 4.395034 0.461408 0
M  V30 42 H -1.947169 0.003045 1.537974 0
M  V30 43 H -4.142901 -0.836740 2.100509 0
M  V30 44 H -6.142972 0.465160 1.534661 0
M  V30 45 H -6.003471 2.637843 0.388532 0
M  V30 46 H -3.742919 3.527872 -0.204640 0
M  V30 47 H -0.592091 0.383696 0.017020 0
M  V30 48 H 1.714773 -0.459402 -2.824101 0
M  V30 49 H 1.603043 -2.950498 -2.794348 0
M  V30 50 H 2.720638 -6.086580 0.432288 0
M  V30 END ATOM
M  V30 BEGIN BOND
M  V30 1 1 1 2
M  V30 2 1 2 3
M  V30 3 1 2 4
M  V30 4 1 4 5
M  V30 5 2 5 6
M  V30 6 1 6 7
M  V30 7 1 7 8
M  V30 8 2 8 9
M  V30 9 1 9 10
M  V30 10 1 10 11
M  V30 11 2 11 12
M  V30 12 1 12 13
M  V30 13 2 13 14
M  V30 14 1 14 15
M  V30 15 2 15 16
M  V30 16 1 16 17
M  V30 17 2 17 18
M  V30 18 1 18 19
M  V30 19 2 19 20
M  V30 20 1 14 21
M  V30 21 2 21 22
M  V30 22 2 7 23
M  V30 23 1 23 24
M  V30 24 2 24 25
M  V30 25 1 25 26
M  V30 26 2 26 27
M  V30 27 1 26 28
M  V30 28 1 25 5
M  V30 29 1 22 8
M  V30 30 1 22 11
M  V30 31 1 20 15
M  V30 32 1 1 29
M  V30 33 1 1 30
M  V30 34 1 1 31
M  V30 35 1 2 32
M  V30 36 1 3 33
M  V30 37 1 3 34
M  V30 38 1 3 35
M  V30 39 1 4 36
M  V30 40 1 4 37
M  V30 41 1 6 38
M  V30 42 1 9 39
M  V30 43 1 10 40
M  V30 44 1 13 41
M  V30 45 1 16 42
M  V30 46 1 17 43
M  V30 47 1 18 44
M  V30 48 1 19 45
M  V30 49 1 20 46
M  V30 50 1 21 47
M  V30 51 1 23 48
M  V30 52 1 24 49
M  V30 53 1 28 50
M  V30 END BOND
M  V30 END CTAB
M  END
>  <Dataset>  (408) 
ChEMBL_Kinases

>  <Ligand_Instance>  (408) 
nan

>  <PDB_ID>  (408) 
nan

>  <Standardized_SMILES>  (408) 
CC(C)Cc1cc(-c2c[nH]c3ncc(-c4ccccc4)cc23)ccc1C(=O)O

>  <Name>  (408) 
nan

>  <Pocket>  (408) 
nan

>  <ATP_Site>  (408) 
nan

>  <Peripheral>  (408) 
nan

>  <Num_H_Atoms_ProtBoundConf>  (408) 
nan

>  <Num_Resolved_Atoms>  (408) 
nan

>  <Num_Not_Resolved_Atoms>  (408) 
nan

$$$$
CHEMBL2037198
     RDKit          3D

  0  0  0  0  0  0  0  0  0  0999 V3000
M  V30 BEGIN CTAB
M  V30 COUNTS 46 50 0 0 0
M  V30 BEGIN ATOM
M  V30 1 O 6.920150 0.646135 2.151842 0
M  V30 2 C 6.195281 0.579853 1.153014 0
M  V30 3 N 6.534909 0.362391 -0.210442 0
M  V30 4 C 5.335152 0.374146 -0.975793 0
M  V30 5 C 5.210705 0.216131 -2.336053 0
M  V30 6 C 3.957587 0.275478 -2.907208 0
M  V30 7 C 2.850485 0.494100 -2.096280 0
M  V30 8 F 1.681495 0.532768 -2.781088 0
M  V30 9 C 3.043568 0.643919 -0.742812 0
M  V30 10 C 4.273055 0.588367 -0.149540 0
M  V30 11 C 4.747484 0.724677 1.201008 0
M  V30 12 C 3.938682 0.974135 2.189582 0
M  V30 13 C 2.497814 1.117913 2.277154 0
M  V30 14 C 2.096667 2.354231 2.824508 0
M  V30 15 C 0.697918 2.422329 2.883877 0
M  V30 16 C 0.321353 1.211683 2.365184 0
M  V30 17 C -1.043304 0.731541 2.186797 0
M  V30 18 C -2.116522 1.545703 2.520525 0
M  V30 19 C -3.420720 1.080109 2.351997 0
M  V30 20 C -3.684399 -0.185544 1.856459 0
M  V30 21 C -2.618574 -1.023492 1.514068 0
M  V30 22 C -2.753510 -2.379914 0.987407 0
M  V30 23 O -1.749319 -3.089142 0.719226 0
M  V30 24 N -4.027368 -2.966029 0.752251 0
M  V30 25 C -4.163800 -4.307289 0.235271 0
M  V30 26 C -5.319524 -4.694657 -0.602922 0
M  V30 27 C -5.340877 -5.118339 0.811965 0
M  V30 28 C -1.360988 -0.504215 1.703592 0
M  V30 29 O 1.364524 0.505938 2.035316 0
M  V30 30 H 7.538731 0.231675 -0.461915 0
M  V30 31 H 6.068082 0.048466 -2.955656 0
M  V30 32 H 3.896608 0.147388 -3.970374 0
M  V30 33 H 2.096971 0.817322 -0.293177 0
M  V30 34 H 4.499078 1.087224 3.141771 0
M  V30 35 H 2.624233 3.234156 3.195751 0
M  V30 36 H 0.036738 3.190536 3.233602 0
M  V30 37 H -1.985551 2.562763 2.919391 0
M  V30 38 H -4.265262 1.705041 2.607036 0
M  V30 39 H -4.666915 -0.576739 1.713360 0
M  V30 40 H -4.902567 -2.448847 0.944226 0
M  V30 41 H -3.230028 -4.875193 0.049113 0
M  V30 42 H -6.085734 -3.947602 -0.905200 0
M  V30 43 H -5.174169 -5.483084 -1.375795 0
M  V30 44 H -5.132097 -6.153392 1.127129 0
M  V30 45 H -5.987315 -4.564862 1.553982 0
M  V30 46 H -0.510432 -1.134248 1.445753 0
M  V30 END ATOM
M  V30 BEGIN BOND
M  V30 1 2 1 2
M  V30 2 1 2 3
M  V30 3 1 3 4
M  V30 4 2 4 5
M  V30 5 1 5 6
M  V30 6 2 6 7
M  V30 7 1 7 8
M  V30 8 1 7 9
M  V30 9 2 9 10
M  V30 10 1 10 11
M  V30 11 2 11 12
M  V30 12 1 12 13
M  V30 13 2 13 14
M  V30 14 1 14 15
M  V30 15 2 15 16
M  V30 16 1 16 17
M  V30 17 2 17 18
M  V30 18 1 18 19
M  V30 19 2 19 20
M  V30 20 1 20 21
M  V30 21 1 21 22
M  V30 22 2 22 23
M  V30 23 1 22 24
M  V30 24 1 24 25
M  V30 25 1 25 26
M  V30 26 1 26 27
M  V30 27 2 21 28
M  V30 28 1 16 29
M  V30 29 1 11 2
M  V30 30 1 29 13
M  V30 31 1 10 4
M  V30 32 1 28 17
M  V30 33 1 27 25
M  V30 34 1 3 30
M  V30 35 1 5 31
M  V30 36 1 6 32
M  V30 37 1 9 33
M  V30 38 1 12 34
M  V30 39 1 14 35
M  V30 40 1 15 36
M  V30 41 1 18 37
M  V30 42 1 19 38
M  V30 43 1 20 39
M  V30 44 1 24 40
M  V30 45 1 25 41
M  V30 46 1 26 42
M  V30 47 1 26 43
M  V30 48 1 27 44
M  V30 49 1 27 45
M  V30 50 1 28 46
M  V30 END BOND
M  V30 END CTAB
M  END
>  <Dataset>  (409) 
ChEMBL_Kinases

>  <Ligand_Instance>  (409) 
nan

>  <PDB_ID>  (409) 
nan

>  <Standardized_SMILES>  (409) 
O=C1Nc2ccc(F)cc2/C1=C\c1ccc(-c2cccc(C(=O)NC3CC3)c2)o1

>  <Name>  (409) 
nan

>  <Pocket>  (409) 
nan

>  <ATP_Site>  (409) 
nan

>  <Peripheral>  (409) 
nan

>  <Num_H_Atoms_ProtBoundConf>  (409) 
nan

>  <Num_Resolved_Atoms>  (409) 
nan

>  <Num_Not_Resolved_Atoms>  (409) 
nan

$$$$
CHEMBL2037197
     RDKit          3D

  0  0  0  0  0  0  0  0  0  0999 V3000
M  V30 BEGIN CTAB
M  V30 COUNTS 57 61 0 0 0
M  V30 BEGIN ATOM
M  V30 1 O 3.924751 4.914422 5.375342 0
M  V30 2 C 4.267579 3.806369 4.892425 0
M  V30 3 N 5.537374 3.172934 4.954533 0
M  V30 4 C 5.411155 1.938930 4.256044 0
M  V30 5 C 6.376916 0.994534 4.042754 0
M  V30 6 Cl 7.986343 1.203500 4.661959 0
M  V30 7 C 6.082000 -0.143748 3.326463 0
M  V30 8 C 4.788559 -0.315405 2.824905 0
M  V30 9 C 3.846974 0.660107 3.063183 0
M  V30 10 C 4.134470 1.784584 3.770984 0
M  V30 11 C 3.375322 2.938972 4.148988 0
M  V30 12 C 2.130953 3.103337 3.809110 0
M  V30 13 C 1.195254 2.267695 3.075160 0
M  V30 14 C 0.598113 2.926675 1.981167 0
M  V30 15 C -0.292677 2.112689 1.301693 0
M  V30 16 C -0.200178 0.952014 2.032343 0
M  V30 17 C -0.909404 -0.312658 1.818435 0
M  V30 18 C -0.688636 -1.385624 2.650892 0
M  V30 19 C -1.373736 -2.583649 2.434003 0
M  V30 20 C -2.245969 -2.617782 1.378400 0
M  V30 21 C -2.500883 -1.570087 0.516820 0
M  V30 22 C -3.428328 -1.614039 -0.607076 0
M  V30 23 O -3.610963 -0.571283 -1.324268 0
M  V30 24 N -4.141446 -2.828266 -0.915360 0
M  V30 25 C -5.060247 -2.897835 -2.018811 0
M  V30 26 C -4.385435 -2.666450 -3.310950 0
M  V30 27 N -3.404897 -3.550361 -3.765427 0
M  V30 28 C -2.156816 -3.713799 -3.190371 0
M  V30 29 C -1.100646 -3.630446 -4.281440 0
M  V30 30 C -1.853280 -3.594682 -5.559376 0
M  V30 31 C -3.281085 -3.421997 -5.190776 0
M  V30 32 C -1.806406 -0.385099 0.752136 0
M  V30 33 O 0.642147 1.080587 3.014805 0
M  V30 34 H 6.370569 3.588030 5.438853 0
M  V30 35 H 6.865761 -0.870618 3.174956 0
M  V30 36 H 4.678246 -1.257225 2.273608 0
M  V30 37 H 2.957336 0.364669 2.601772 0
M  V30 38 H 1.732197 4.069583 4.169716 0
M  V30 39 H 0.691935 3.946942 1.557193 0
M  V30 40 H -0.919379 2.257164 0.443799 0
M  V30 41 H 0.000680 -1.347011 3.479087 0
M  V30 42 H -1.199064 -3.415031 3.083779 0
M  V30 43 H -2.759664 -3.531589 1.224169 0
M  V30 44 H -4.021181 -3.693605 -0.357205 0
M  V30 45 H -5.694259 -3.807312 -1.986729 0
M  V30 46 H -5.807287 -2.058484 -1.856200 0
M  V30 47 H -5.206661 -2.656813 -4.106845 0
M  V30 48 H -4.030768 -1.588048 -3.363393 0
M  V30 49 H -1.869279 -3.148373 -2.304344 0
M  V30 50 H -2.082723 -4.800543 -2.843747 0
M  V30 51 H -0.386308 -4.470374 -4.265640 0
M  V30 52 H -0.462061 -2.712092 -4.144880 0
M  V30 53 H -1.680209 -4.541334 -6.126555 0
M  V30 54 H -1.499787 -2.783719 -6.237833 0
M  V30 55 H -3.921666 -4.189818 -5.699882 0
M  V30 56 H -3.603976 -2.402049 -5.507069 0
M  V30 57 H -1.947313 0.479757 0.125792 0
M  V30 END ATOM
M  V30 BEGIN BOND
M  V30 1 2 1 2
M  V30 2 1 2 3
M  V30 3 1 3 4
M  V30 4 2 4 5
M  V30 5 1 5 6
M  V30 6 1 5 7
M  V30 7 2 7 8
M  V30 8 1 8 9
M  V30 9 2 9 10
M  V30 10 1 10 11
M  V30 11 2 11 12
M  V30 12 1 12 13
M  V30 13 2 13 14
M  V30 14 1 14 15
M  V30 15 2 15 16
M  V30 16 1 16 17
M  V30 17 2 17 18
M  V30 18 1 18 19
M  V30 19 2 19 20
M  V30 20 1 20 21
M  V30 21 1 21 22
M  V30 22 2 22 23
M  V30 23 1 22 24
M  V30 24 1 24 25
M  V30 25 1 25 26
M  V30 26 1 26 27
M  V30 27 1 27 28
M  V30 28 1 28 29
M  V30 29 1 29 30
M  V30 30 1 30 31
M  V30 31 2 21 32
M  V30 32 1 16 33
M  V30 33 1 11 2
M  V30 34 1 33 13
M  V30 35 1 10 4
M  V30 36 1 32 17
M  V30 37 1 31 27
M  V30 38 1 3 34
M  V30 39 1 7 35
M  V30 40 1 8 36
M  V30 41 1 9 37
M  V30 42 1 12 38
M  V30 43 1 14 39
M  V30 44 1 15 40
M  V30 45 1 18 41
M  V30 46 1 19 42
M  V30 47 1 20 43
M  V30 48 1 24 44
M  V30 49 1 25 45
M  V30 50 1 25 46
M  V30 51 1 26 47
M  V30 52 1 26 48
M  V30 53 1 28 49
M  V30 54 1 28 50
M  V30 55 1 29 51
M  V30 56 1 29 52
M  V30 57 1 30 53
M  V30 58 1 30 54
M  V30 59 1 31 55
M  V30 60 1 31 56
M  V30 61 1 32 57
M  V30 END BOND
M  V30 END CTAB
M  END
>  <Dataset>  (410) 
ChEMBL_Kinases

>  <Ligand_Instance>  (410) 
nan

>  <PDB_ID>  (410) 
nan

>  <Standardized_SMILES>  (410) 
O=C1Nc2c(Cl)cccc2/C1=C\c1ccc(-c2cccc(C(=O)NCCN3CCCC3)c2)o1

>  <Name>  (410) 
nan

>  <Pocket>  (410) 
nan

>  <ATP_Site>  (410) 
nan

>  <Peripheral>  (410) 
nan

>  <Num_H_Atoms_ProtBoundConf>  (410) 
nan

>  <Num_Resolved_Atoms>  (410) 
nan

>  <Num_Not_Resolved_Atoms>  (410) 
nan

$$$$
CHEMBL2037196
     RDKit          3D

  0  0  0  0  0  0  0  0  0  0999 V3000
M  V30 BEGIN CTAB
M  V30 COUNTS 57 61 0 0 0
M  V30 BEGIN ATOM
M  V30 1 O 4.539005 3.859615 6.020109 0
M  V30 2 C 4.754957 2.932698 5.186081 0
M  V30 3 N 6.029705 2.368572 4.911985 0
M  V30 4 C 5.807278 1.373660 3.919282 0
M  V30 5 C 6.709966 0.540348 3.293311 0
M  V30 6 C 6.322233 -0.365190 2.330301 0
M  V30 7 C 4.967709 -0.441206 1.976292 0
M  V30 8 F 4.716309 -1.378148 1.008954 0
M  V30 9 C 4.079470 0.396533 2.611059 0
M  V30 10 C 4.481055 1.284023 3.561568 0
M  V30 11 C 3.781538 2.266880 4.354197 0
M  V30 12 C 2.495560 2.480609 4.251902 0
M  V30 13 C 1.462332 1.854449 3.453142 0
M  V30 14 C 0.689670 2.741354 2.675091 0
M  V30 15 C -0.284958 2.050947 1.943314 0
M  V30 16 C -0.047314 0.767400 2.321958 0
M  V30 17 C -0.726977 -0.454193 1.916161 0
M  V30 18 C -0.369165 -1.686837 2.430625 0
M  V30 19 C -0.964029 -2.889053 2.093556 0
M  V30 20 C -1.992683 -2.864350 1.175315 0
M  V30 21 C -2.380138 -1.635754 0.634745 0
M  V30 22 C -3.459418 -1.575258 -0.341138 0
M  V30 23 O -3.800206 -0.469577 -0.865705 0
M  V30 24 N -4.210012 -2.677540 -0.793137 0
M  V30 25 C -5.278110 -2.639844 -1.761827 0
M  V30 26 C -4.869485 -2.153631 -3.117139 0
M  V30 27 N -3.873292 -2.922574 -3.766527 0
M  V30 28 C -2.546843 -2.871921 -3.189014 0
M  V30 29 C -1.649415 -3.355085 -4.340557 0
M  V30 30 C -2.332455 -2.804411 -5.558300 0
M  V30 31 C -3.727967 -2.519736 -5.136459 0
M  V30 32 C -1.752801 -0.474348 1.007938 0
M  V30 33 O 0.918604 0.726962 3.147479 0
M  V30 34 H 6.903459 2.672222 5.383486 0
M  V30 35 H 7.752415 0.610798 3.577540 0
M  V30 36 H 7.085588 -0.966916 1.900467 0
M  V30 37 H 3.126860 0.219710 2.218725 0
M  V30 38 H 2.148983 3.294145 4.917318 0
M  V30 39 H 0.721266 3.842409 2.549938 0
M  V30 40 H -1.035126 2.409315 1.257712 0
M  V30 41 H 0.440353 -1.782678 3.165948 0
M  V30 42 H -0.647703 -3.831405 2.523827 0
M  V30 43 H -2.451562 -3.797215 0.915073 0
M  V30 44 H -3.979677 -3.616063 -0.395311 0
M  V30 45 H -5.801848 -3.602755 -1.838080 0
M  V30 46 H -6.043327 -1.906008 -1.374022 0
M  V30 47 H -4.478569 -1.105024 -3.001738 0
M  V30 48 H -5.727282 -2.057156 -3.812452 0
M  V30 49 H -2.397946 -3.576071 -2.360581 0
M  V30 50 H -2.227144 -1.870639 -2.896155 0
M  V30 51 H -0.637449 -2.965146 -4.220769 0
M  V30 52 H -1.648045 -4.453921 -4.409089 0
M  V30 53 H -1.766616 -1.899186 -5.872140 0
M  V30 54 H -2.302863 -3.517130 -6.410317 0
M  V30 55 H -3.955072 -1.422869 -5.267576 0
M  V30 56 H -4.419583 -3.111693 -5.777715 0
M  V30 57 H -2.087219 0.454133 0.562440 0
M  V30 END ATOM
M  V30 BEGIN BOND
M  V30 1 2 1 2
M  V30 2 1 2 3
M  V30 3 1 3 4
M  V30 4 2 4 5
M  V30 5 1 5 6
M  V30 6 2 6 7
M  V30 7 1 7 8
M  V30 8 1 7 9
M  V30 9 2 9 10
M  V30 10 1 10 11
M  V30 11 2 11 12
M  V30 12 1 12 13
M  V30 13 2 13 14
M  V30 14 1 14 15
M  V30 15 2 15 16
M  V30 16 1 16 17
M  V30 17 2 17 18
M  V30 18 1 18 19
M  V30 19 2 19 20
M  V30 20 1 20 21
M  V30 21 1 21 22
M  V30 22 2 22 23
M  V30 23 1 22 24
M  V30 24 1 24 25
M  V30 25 1 25 26
M  V30 26 1 26 27
M  V30 27 1 27 28
M  V30 28 1 28 29
M  V30 29 1 29 30
M  V30 30 1 30 31
M  V30 31 2 21 32
M  V30 32 1 16 33
M  V30 33 1 11 2
M  V30 34 1 33 13
M  V30 35 1 10 4
M  V30 36 1 32 17
M  V30 37 1 31 27
M  V30 38 1 3 34
M  V30 39 1 5 35
M  V30 40 1 6 36
M  V30 41 1 9 37
M  V30 42 1 12 38
M  V30 43 1 14 39
M  V30 44 1 15 40
M  V30 45 1 18 41
M  V30 46 1 19 42
M  V30 47 1 20 43
M  V30 48 1 24 44
M  V30 49 1 25 45
M  V30 50 1 25 46
M  V30 51 1 26 47
M  V30 52 1 26 48
M  V30 53 1 28 49
M  V30 54 1 28 50
M  V30 55 1 29 51
M  V30 56 1 29 52
M  V30 57 1 30 53
M  V30 58 1 30 54
M  V30 59 1 31 55
M  V30 60 1 31 56
M  V30 61 1 32 57
M  V30 END BOND
M  V30 END CTAB
M  END
>  <Dataset>  (411) 
ChEMBL_Kinases

>  <Ligand_Instance>  (411) 
nan

>  <PDB_ID>  (411) 
nan

>  <Standardized_SMILES>  (411) 
O=C1Nc2ccc(F)cc2/C1=C\c1ccc(-c2cccc(C(=O)NCCN3CCCC3)c2)o1

>  <Name>  (411) 
nan

>  <Pocket>  (411) 
nan

>  <ATP_Site>  (411) 
nan

>  <Peripheral>  (411) 
nan

>  <Num_H_Atoms_ProtBoundConf>  (411) 
nan

>  <Num_Resolved_Atoms>  (411) 
nan

>  <Num_Not_Resolved_Atoms>  (411) 
nan

$$$$
CHEMBL2037195
     RDKit          3D

  0  0  0  0  0  0  0  0  0  0999 V3000
M  V30 BEGIN CTAB
M  V30 COUNTS 57 61 0 0 0
M  V30 BEGIN ATOM
M  V30 1 O 4.310365 4.802435 5.668959 0
M  V30 2 C 4.512787 3.811055 4.973031 0
M  V30 3 N 5.837828 3.264192 4.850791 0
M  V30 4 C 5.703513 2.127590 3.972203 0
M  V30 5 C 6.653978 1.246353 3.505529 0
M  V30 6 C 6.342644 0.213127 2.650635 0
M  V30 7 C 5.014422 0.054034 2.242261 0
M  V30 8 Cl 4.730703 -1.298984 1.149186 0
M  V30 9 C 4.074634 0.939897 2.715568 0
M  V30 10 C 4.401008 1.939424 3.549579 0
M  V30 11 C 3.646246 2.992122 4.174613 0
M  V30 12 C 2.359376 3.174868 3.996684 0
M  V30 13 C 1.385261 2.418701 3.227481 0
M  V30 14 C 0.627793 3.168853 2.304313 0
M  V30 15 C -0.271208 2.365346 1.628539 0
M  V30 16 C -0.034076 1.134197 2.164251 0
M  V30 17 C -0.641154 -0.164746 1.893971 0
M  V30 18 C -0.225291 -1.295230 2.588866 0
M  V30 19 C -0.821330 -2.527065 2.305750 0
M  V30 20 C -1.788622 -2.555719 1.353798 0
M  V30 21 C -2.240760 -1.469402 0.633934 0
M  V30 22 C -3.267477 -1.504377 -0.381725 0
M  V30 23 O -3.612431 -0.451350 -0.998834 0
M  V30 24 N -3.960948 -2.685791 -0.768150 0
M  V30 25 C -4.991237 -2.752602 -1.783310 0
M  V30 26 C -4.447213 -2.314509 -3.133558 0
M  V30 27 N -3.358571 -3.216432 -3.469765 0
M  V30 28 C -3.847987 -4.563230 -3.736814 0
M  V30 29 C -2.632114 -5.215405 -4.372697 0
M  V30 30 C -1.944984 -4.079614 -5.101591 0
M  V30 31 C -2.696479 -2.817980 -4.697426 0
M  V30 32 C -1.640219 -0.250939 0.925042 0
M  V30 33 O 0.889158 1.257552 3.032224 0
M  V30 34 H 6.719265 3.591758 5.287519 0
M  V30 35 H 7.678993 1.392246 3.837562 0
M  V30 36 H 7.137271 -0.438460 2.326339 0
M  V30 37 H 3.142874 0.684793 2.298978 0
M  V30 38 H 1.944766 4.044201 4.527052 0
M  V30 39 H 0.628606 4.243207 2.038434 0
M  V30 40 H -1.001194 2.577466 0.866201 0
M  V30 41 H 0.553861 -1.253780 3.350884 0
M  V30 42 H -0.491688 -3.416630 2.854612 0
M  V30 43 H -2.224029 -3.515012 1.163181 0
M  V30 44 H -3.670595 -3.550323 -0.250963 0
M  V30 45 H -5.368918 -3.773926 -1.827021 0
M  V30 46 H -5.780401 -2.021309 -1.442897 0
M  V30 47 H -4.054029 -1.283518 -3.121696 0
M  V30 48 H -5.247147 -2.367224 -3.911111 0
M  V30 49 H -4.710803 -4.558625 -4.415142 0
M  V30 50 H -4.069400 -5.045013 -2.750937 0
M  V30 51 H -2.925898 -5.958657 -5.137206 0
M  V30 52 H -1.993923 -5.617668 -3.562354 0
M  V30 53 H -0.904663 -3.973375 -4.787624 0
M  V30 54 H -2.031330 -4.189085 -6.207935 0
M  V30 55 H -3.421774 -2.492816 -5.468411 0
M  V30 56 H -1.986244 -2.002634 -4.451704 0
M  V30 57 H -1.929202 0.664262 0.411991 0
M  V30 END ATOM
M  V30 BEGIN BOND
M  V30 1 2 1 2
M  V30 2 1 2 3
M  V30 3 1 3 4
M  V30 4 2 4 5
M  V30 5 1 5 6
M  V30 6 2 6 7
M  V30 7 1 7 8
M  V30 8 1 7 9
M  V30 9 2 9 10
M  V30 10 1 10 11
M  V30 11 2 11 12
M  V30 12 1 12 13
M  V30 13 2 13 14
M  V30 14 1 14 15
M  V30 15 2 15 16
M  V30 16 1 16 17
M  V30 17 2 17 18
M  V30 18 1 18 19
M  V30 19 2 19 20
M  V30 20 1 20 21
M  V30 21 1 21 22
M  V30 22 2 22 23
M  V30 23 1 22 24
M  V30 24 1 24 25
M  V30 25 1 25 26
M  V30 26 1 26 27
M  V30 27 1 27 28
M  V30 28 1 28 29
M  V30 29 1 29 30
M  V30 30 1 30 31
M  V30 31 2 21 32
M  V30 32 1 16 33
M  V30 33 1 11 2
M  V30 34 1 33 13
M  V30 35 1 10 4
M  V30 36 1 32 17
M  V30 37 1 31 27
M  V30 38 1 3 34
M  V30 39 1 5 35
M  V30 40 1 6 36
M  V30 41 1 9 37
M  V30 42 1 12 38
M  V30 43 1 14 39
M  V30 44 1 15 40
M  V30 45 1 18 41
M  V30 46 1 19 42
M  V30 47 1 20 43
M  V30 48 1 24 44
M  V30 49 1 25 45
M  V30 50 1 25 46
M  V30 51 1 26 47
M  V30 52 1 26 48
M  V30 53 1 28 49
M  V30 54 1 28 50
M  V30 55 1 29 51
M  V30 56 1 29 52
M  V30 57 1 30 53
M  V30 58 1 30 54
M  V30 59 1 31 55
M  V30 60 1 31 56
M  V30 61 1 32 57
M  V30 END BOND
M  V30 END CTAB
M  END
>  <Dataset>  (412) 
ChEMBL_Kinases

>  <Ligand_Instance>  (412) 
nan

>  <PDB_ID>  (412) 
nan

>  <Standardized_SMILES>  (412) 
O=C1Nc2ccc(Cl)cc2/C1=C\c1ccc(-c2cccc(C(=O)NCCN3CCCC3)c2)o1

>  <Name>  (412) 
nan

>  <Pocket>  (412) 
nan

>  <ATP_Site>  (412) 
nan

>  <Peripheral>  (412) 
nan

>  <Num_H_Atoms_ProtBoundConf>  (412) 
nan

>  <Num_Resolved_Atoms>  (412) 
nan

>  <Num_Not_Resolved_Atoms>  (412) 
nan

$$$$
CHEMBL565856
     RDKit          3D

  0  0  0  0  0  0  0  0  0  0999 V3000
M  V30 BEGIN CTAB
M  V30 COUNTS 47 51 0 0 0
M  V30 BEGIN ATOM
M  V30 1 C 0.290822 -2.952020 4.006645 0
M  V30 2 C 0.906060 -2.954719 2.646217 0
M  V30 3 C 0.508493 -3.733206 1.576854 0
M  V30 4 C 1.160294 -3.645908 0.361582 0
M  V30 5 C 2.225350 -2.773531 0.197608 0
M  V30 6 C 2.647657 -1.974279 1.264792 0
M  V30 7 C 3.808181 -1.016775 1.109574 0
M  V30 8 N 3.464985 0.274742 0.684600 0
M  V30 9 C 3.118517 1.580589 0.254962 0
M  V30 10 N 3.925523 2.620759 0.014223 0
M  V30 11 C 3.577196 3.836351 -0.387080 0
M  V30 12 N 2.275566 4.028354 -0.566450 0
M  V30 13 C 1.356033 3.083225 -0.365052 0
M  V30 14 C 0.063494 3.493845 -0.609988 0
M  V30 15 C -0.935502 2.544700 -0.414980 0
M  V30 16 C -0.601554 1.275181 0.001336 0
M  V30 17 C -1.637967 0.273258 0.207683 0
M  V30 18 C -1.381064 -1.072182 -0.005089 0
M  V30 19 C -2.365390 -2.048511 0.187923 0
M  V30 20 C -3.621302 -1.651196 0.600883 0
M  V30 21 C -3.918509 -0.308674 0.825243 0
M  V30 22 C -2.914834 0.628062 0.622534 0
M  V30 23 O -5.248973 -0.313209 1.219502 0
M  V30 24 C -5.878795 -1.516442 0.769741 0
M  V30 25 O -4.776636 -2.411279 0.866489 0
M  V30 26 C 0.721304 0.985449 0.212412 0
M  V30 27 C 1.783119 1.844265 0.050730 0
M  V30 28 C 1.959256 -2.104784 2.452599 0
M  V30 29 H 1.070344 -3.219968 4.776463 0
M  V30 30 H -0.530401 -3.679096 4.039255 0
M  V30 31 H -0.025263 -1.916250 4.272194 0
M  V30 32 H -0.332965 -4.401198 1.759180 0
M  V30 33 H 0.837823 -4.262511 -0.469119 0
M  V30 34 H 2.747350 -2.700320 -0.768833 0
M  V30 35 H 4.237836 -1.001282 2.159158 0
M  V30 36 H 4.575861 -1.572058 0.500672 0
M  V30 37 H 4.520366 0.465224 0.717761 0
M  V30 38 H 4.383789 4.548601 -0.528299 0
M  V30 39 H -0.198313 4.471737 -0.931030 0
M  V30 40 H -1.976851 2.774032 -0.581500 0
M  V30 41 H -0.386980 -1.299069 -0.323446 0
M  V30 42 H -2.112703 -3.094367 0.006882 0
M  V30 43 H -3.150196 1.649032 0.795923 0
M  V30 44 H -6.137604 -1.400836 -0.291843 0
M  V30 45 H -6.712931 -1.817559 1.422384 0
M  V30 46 H 0.949632 -0.010285 0.536224 0
M  V30 47 H 2.319966 -1.470168 3.244078 0
M  V30 END ATOM
M  V30 BEGIN BOND
M  V30 1 1 1 2
M  V30 2 2 2 3
M  V30 3 1 3 4
M  V30 4 2 4 5
M  V30 5 1 5 6
M  V30 6 1 6 7
M  V30 7 1 7 8
M  V30 8 1 8 9
M  V30 9 2 9 10
M  V30 10 1 10 11
M  V30 11 2 11 12
M  V30 12 1 12 13
M  V30 13 2 13 14
M  V30 14 1 14 15
M  V30 15 2 15 16
M  V30 16 1 16 17
M  V30 17 2 17 18
M  V30 18 1 18 19
M  V30 19 2 19 20
M  V30 20 1 20 21
M  V30 21 2 21 22
M  V30 22 1 21 23
M  V30 23 1 23 24
M  V30 24 1 24 25
M  V30 25 1 16 26
M  V30 26 2 26 27
M  V30 27 2 6 28
M  V30 28 1 28 2
M  V30 29 1 27 9
M  V30 30 1 27 13
M  V30 31 1 22 17
M  V30 32 1 25 20
M  V30 33 1 1 29
M  V30 34 1 1 30
M  V30 35 1 1 31
M  V30 36 1 3 32
M  V30 37 1 4 33
M  V30 38 1 5 34
M  V30 39 1 7 35
M  V30 40 1 7 36
M  V30 41 1 8 37
M  V30 42 1 11 38
M  V30 43 1 14 39
M  V30 44 1 15 40
M  V30 45 1 18 41
M  V30 46 1 19 42
M  V30 47 1 22 43
M  V30 48 1 24 44
M  V30 49 1 24 45
M  V30 50 1 26 46
M  V30 51 1 28 47
M  V30 END BOND
M  V30 END CTAB
M  END
>  <Dataset>  (413) 
ChEMBL_Kinases

>  <Ligand_Instance>  (413) 
nan

>  <PDB_ID>  (413) 
nan

>  <Standardized_SMILES>  (413) 
Cc1cccc(CNc2ncnc3ccc(-c4ccc5c(c4)OCO5)cc23)c1

>  <Name>  (413) 
nan

>  <Pocket>  (413) 
nan

>  <ATP_Site>  (413) 
nan

>  <Peripheral>  (413) 
nan

>  <Num_H_Atoms_ProtBoundConf>  (413) 
nan

>  <Num_Resolved_Atoms>  (413) 
nan

>  <Num_Not_Resolved_Atoms>  (413) 
nan

$$$$
CHEMBL470094
     RDKit          3D

  0  0  0  0  0  0  0  0  0  0999 V3000
M  V30 BEGIN CTAB
M  V30 COUNTS 46 48 0 0 0
M  V30 BEGIN ATOM
M  V30 1 C 0.330766 -5.590890 4.127435 0
M  V30 2 O -0.386240 -5.617752 2.923296 0
M  V30 3 C -0.269372 -4.621842 1.974965 0
M  V30 4 C 0.527872 -3.504139 2.060192 0
M  V30 5 C 0.524144 -2.604959 1.018459 0
M  V30 6 C -0.225111 -2.720505 -0.137801 0
M  V30 7 C -0.191550 -1.717610 -1.193941 0
M  V30 8 O -0.865882 -1.868979 -2.259084 0
M  V30 9 O 0.576918 -0.584948 -1.045989 0
M  V30 10 C 0.648675 0.415864 -2.029110 0
M  V30 11 C 1.541934 1.553891 -1.603399 0
M  V30 12 C 1.619643 2.634652 -2.656392 0
M  V30 13 O 2.210983 2.088120 -3.804708 0
M  V30 14 C 1.013478 2.132186 -0.311058 0
M  V30 15 C 1.687771 1.267674 0.687920 0
M  V30 16 C 1.142066 1.026231 1.845711 0
M  V30 17 C -0.146178 1.561274 2.269743 0
M  V30 18 C -0.921668 0.647678 2.993771 0
M  V30 19 C -2.185220 1.005904 3.477828 0
M  V30 20 C -2.572287 2.287244 3.184974 0
M  V30 21 C -1.828382 3.202524 2.476183 0
M  V30 22 N -0.602304 2.808285 2.023835 0
M  V30 23 C 2.946414 0.850639 0.043126 0
M  V30 24 O 3.876492 0.336881 0.751562 0
M  V30 25 O 2.861822 1.125698 -1.339781 0
M  V30 26 C -1.009736 -3.850890 -0.188118 0
M  V30 27 C -1.048788 -4.797327 0.834656 0
M  V30 28 H 1.281612 -6.188121 4.006889 0
M  V30 29 H -0.244868 -6.089334 4.962640 0
M  V30 30 H 0.563112 -4.563366 4.469749 0
M  V30 31 H 1.130073 -3.373290 2.943568 0
M  V30 32 H 1.181354 -1.761667 1.166081 0
M  V30 33 H -0.384642 0.820485 -2.188733 0
M  V30 34 H 0.994255 -0.054730 -2.970097 0
M  V30 35 H 0.607013 2.977047 -2.882217 0
M  V30 36 H 2.283224 3.440528 -2.249284 0
M  V30 37 H 1.599827 1.483113 -4.262183 0
M  V30 38 H 1.437711 3.163235 -0.190581 0
M  V30 39 H -0.072337 2.151160 -0.246401 0
M  V30 40 H 1.725477 0.372040 2.515389 0
M  V30 41 H -0.606255 -0.371303 3.221673 0
M  V30 42 H -2.833612 0.347128 4.040644 0
M  V30 43 H -3.543256 2.596833 3.542974 0
M  V30 44 H -2.154669 4.212569 2.255296 0
M  V30 45 H -1.634541 -4.015253 -1.079030 0
M  V30 46 H -1.697439 -5.658448 0.707250 0
M  V30 END ATOM
M  V30 BEGIN BOND
M  V30 1 1 1 2
M  V30 2 1 2 3
M  V30 3 2 3 4
M  V30 4 1 4 5
M  V30 5 2 5 6
M  V30 6 1 6 7
M  V30 7 2 7 8
M  V30 8 1 7 9
M  V30 9 1 9 10
M  V30 10 1 10 11
M  V30 11 1 11 12
M  V30 12 1 12 13
M  V30 13 1 11 14
M  V30 14 1 14 15
M  V30 15 2 15 16
M  V30 16 1 16 17
M  V30 17 2 17 18
M  V30 18 1 18 19
M  V30 19 2 19 20
M  V30 20 1 20 21
M  V30 21 2 21 22
M  V30 22 1 15 23
M  V30 23 2 23 24
M  V30 24 1 23 25
M  V30 25 1 6 26
M  V30 26 2 26 27
M  V30 27 1 27 3
M  V30 28 1 25 11
M  V30 29 1 22 17
M  V30 30 1 1 28
M  V30 31 1 1 29
M  V30 32 1 1 30
M  V30 33 1 4 31
M  V30 34 1 5 32
M  V30 35 1 10 33
M  V30 36 1 10 34
M  V30 37 1 12 35
M  V30 38 1 12 36
M  V30 39 1 13 37
M  V30 40 1 14 38
M  V30 41 1 14 39
M  V30 42 1 16 40
M  V30 43 1 18 41
M  V30 44 1 19 42
M  V30 45 1 20 43
M  V30 46 1 21 44
M  V30 47 1 26 45
M  V30 48 1 27 46
M  V30 END BOND
M  V30 END CTAB
M  END
>  <Dataset>  (414) 
ChEMBL_Kinases

>  <Ligand_Instance>  (414) 
nan

>  <PDB_ID>  (414) 
nan

>  <Standardized_SMILES>  (414) 
COc1ccc(C(=O)OCC2(CO)C/C(=C\c3ccccn3)C(=O)O2)cc1

>  <Name>  (414) 
nan

>  <Pocket>  (414) 
nan

>  <ATP_Site>  (414) 
nan

>  <Peripheral>  (414) 
nan

>  <Num_H_Atoms_ProtBoundConf>  (414) 
nan

>  <Num_Resolved_Atoms>  (414) 
nan

>  <Num_Not_Resolved_Atoms>  (414) 
nan

$$$$
CHEMBL565452
     RDKit          3D

  0  0  0  0  0  0  0  0  0  0999 V3000
M  V30 BEGIN CTAB
M  V30 COUNTS 50 53 0 0 0
M  V30 BEGIN ATOM
M  V30 1 C 1.661678 0.597117 3.505026 0
M  V30 2 C 2.837738 -0.216770 3.824838 0
M  V30 3 C 3.418796 -0.291469 5.082081 0
M  V30 4 N 4.463689 -1.132685 5.009089 0
M  V30 5 C 4.623584 -1.633012 3.770674 0
M  V30 6 N 5.454448 -2.479892 3.136889 0
M  V30 7 C 5.241329 -2.717106 1.811841 0
M  V30 8 N 4.233897 -2.138403 1.112171 0
M  V30 9 C 3.382360 -1.280920 1.726221 0
M  V30 10 N 2.445138 -0.808050 0.769863 0
M  V30 11 C 2.183252 0.511583 0.191641 0
M  V30 12 C 0.741632 0.824036 0.044273 0
M  V30 13 N -0.179518 -0.231392 0.284077 0
M  V30 14 C -1.538527 0.248719 0.130130 0
M  V30 15 N -2.420619 0.313748 1.041345 0
M  V30 16 C -3.706488 0.797591 0.788206 0
M  V30 17 N -4.792607 1.219720 0.590436 0
M  V30 18 N -1.921141 0.684445 -1.168170 0
M  V30 19 C -3.142775 0.187086 -1.735031 0
M  V30 20 C -3.717712 0.988804 -2.732081 0
M  V30 21 C -4.861036 0.713814 -3.452088 0
M  V30 22 C -5.501698 -0.471121 -3.159182 0
M  V30 23 F -6.633493 -0.862451 -3.791217 0
M  V30 24 C -4.972331 -1.291315 -2.186006 0
M  V30 25 Br -5.805761 -2.962804 -1.717178 0
M  V30 26 C -3.826960 -0.980343 -1.488935 0
M  V30 27 C 0.175739 -1.568483 0.626899 0 CFG=1
M  V30 28 C -0.714709 -2.571501 -0.124875 0
M  V30 29 C 1.590575 -1.845716 0.226515 0
M  V30 30 C 3.604127 -1.049151 3.058290 0
M  V30 31 H 2.001425 1.562890 3.083543 0
M  V30 32 H 1.009202 0.108753 2.787813 0
M  V30 33 H 1.125119 0.882540 4.444478 0
M  V30 34 H 3.060248 0.255002 5.958289 0
M  V30 35 H 5.092683 -1.380263 5.819894 0
M  V30 36 H 5.968736 -3.413724 1.404665 0
M  V30 37 H 2.656738 1.264691 0.848561 0
M  V30 38 H 2.738890 0.535421 -0.780967 0
M  V30 39 H 0.449228 1.717622 0.654391 0
M  V30 40 H 0.592636 1.179695 -1.018338 0
M  V30 41 H -1.309981 1.350287 -1.731980 0
M  V30 42 H -3.239651 1.943139 -2.997992 0
M  V30 43 H -5.235587 1.374000 -4.194790 0
M  V30 44 H -3.373344 -1.600601 -0.721227 0
M  V30 45 H 0.088894 -1.812270 1.711635 0
M  V30 46 H -1.628366 -2.790380 0.427691 0
M  V30 47 H -0.827830 -2.247278 -1.160787 0
M  V30 48 H -0.129549 -3.536402 -0.128583 0
M  V30 49 H 1.619615 -1.713662 -0.893790 0
M  V30 50 H 1.919807 -2.874977 0.481019 0
M  V30 END ATOM
M  V30 BEGIN BOND
M  V30 1 1 1 2
M  V30 2 2 2 3
M  V30 3 1 3 4
M  V30 4 1 4 5
M  V30 5 2 5 6
M  V30 6 1 6 7
M  V30 7 2 7 8
M  V30 8 1 8 9
M  V30 9 1 9 10
M  V30 10 1 10 11
M  V30 11 1 11 12
M  V30 12 1 12 13
M  V30 13 1 13 14
M  V30 14 2 14 15
M  V30 15 1 15 16
M  V30 16 3 16 17
M  V30 17 1 14 18
M  V30 18 1 18 19
M  V30 19 2 19 20
M  V30 20 1 20 21
M  V30 21 2 21 22
M  V30 22 1 22 23
M  V30 23 1 22 24
M  V30 24 1 24 25
M  V30 25 2 24 26
M  V30 26 1 13 27
M  V30 27 1 27 28
M  V30 28 1 27 29
M  V30 29 2 9 30
M  V30 30 1 30 2
M  V30 31 1 30 5
M  V30 32 1 29 10
M  V30 33 1 26 19
M  V30 34 1 1 31
M  V30 35 1 1 32
M  V30 36 1 1 33
M  V30 37 1 3 34
M  V30 38 1 4 35
M  V30 39 1 7 36
M  V30 40 1 11 37
M  V30 41 1 11 38
M  V30 42 1 12 39
M  V30 43 1 12 40
M  V30 44 1 18 41
M  V30 45 1 20 42
M  V30 46 1 21 43
M  V30 47 1 26 44
M  V30 48 1 27 45 CFG=1
M  V30 49 1 28 46
M  V30 50 1 28 47
M  V30 51 1 28 48
M  V30 52 1 29 49
M  V30 53 1 29 50
M  V30 END BOND
M  V30 END CTAB
M  END
>  <Dataset>  (415) 
ChEMBL_Kinases

>  <Ligand_Instance>  (415) 
nan

>  <PDB_ID>  (415) 
nan

>  <Standardized_SMILES>  (415) 
Cc1c[nH]c2ncnc(N3CCN(/C(=N/C#N)Nc4ccc(F)c(Br)c4)[C@@H](C)C3)c12

>  <Name>  (415) 
nan

>  <Pocket>  (415) 
nan

>  <ATP_Site>  (415) 
nan

>  <Peripheral>  (415) 
nan

>  <Num_H_Atoms_ProtBoundConf>  (415) 
nan

>  <Num_Resolved_Atoms>  (415) 
nan

>  <Num_Not_Resolved_Atoms>  (415) 
nan

$$$$
CHEMBL2036792
     RDKit          3D

  0  0  0  0  0  0  0  0  0  0999 V3000
M  V30 BEGIN CTAB
M  V30 COUNTS 63 67 0 0 0
M  V30 BEGIN ATOM
M  V30 1 C 3.526481 -5.186196 2.902821 0
M  V30 2 N 3.158031 -4.904862 1.534093 0
M  V30 3 C 2.377054 -3.721194 1.349292 0
M  V30 4 N 3.081341 -2.593002 1.135427 0
M  V30 5 C 2.466370 -1.387781 0.943195 0
M  V30 6 C 1.099105 -1.337069 0.970704 0
M  V30 7 C 0.130586 -0.384795 0.832278 0
M  V30 8 C 0.364868 1.034686 0.580740 0
M  V30 9 C 1.302331 1.808979 1.236031 0
M  V30 10 C 1.487695 3.148761 0.963806 0
M  V30 11 C 0.723039 3.770264 0.005095 0
M  V30 12 N 0.913837 5.147709 -0.270496 0
M  V30 13 C 1.819735 6.044551 0.415807 0
M  V30 14 C 1.145663 7.381807 0.734302 0
M  V30 15 N -0.284711 7.080307 0.800102 0
M  V30 16 C -0.694677 6.922198 -0.586205 0
M  V30 17 C 0.267065 5.959782 -1.279663 0
M  V30 18 C -0.216669 3.020524 -0.660606 0
M  V30 19 C -0.393936 1.678829 -0.379889 0
M  V30 20 N -1.070832 -0.975719 0.966630 0
M  V30 21 N -0.947110 -2.281086 1.188701 0
M  V30 22 C -2.101618 -3.099997 1.360084 0
M  V30 23 C -2.619984 -3.673457 0.048698 0
M  V30 24 C -1.567979 -4.516827 -0.597078 0
M  V30 25 C -2.144874 -5.512154 -1.582086 0
M  V30 26 C -3.019542 -6.510330 -0.847830 0
M  V30 27 N -2.335566 -7.757634 -0.614605 0
M  V30 28 C -3.407661 -5.940192 0.514744 0
M  V30 29 C -3.848926 -4.505210 0.319672 0
M  V30 30 C 0.380321 -2.496526 1.190272 0
M  V30 31 N 1.016268 -3.668710 1.376216 0
M  V30 32 H 2.679277 -5.221853 3.588664 0
M  V30 33 H 4.077919 -6.161443 2.881387 0
M  V30 34 H 4.254749 -4.441886 3.311377 0
M  V30 35 H 3.383336 -5.444148 0.669479 0
M  V30 36 H 2.995867 -0.467030 0.769560 0
M  V30 37 H 1.885847 1.285571 1.984160 0
M  V30 38 H 2.250158 3.616893 1.549956 0
M  V30 39 H 2.618145 6.294391 -0.340446 0
M  V30 40 H 2.267269 5.612734 1.304712 0
M  V30 41 H 1.519227 7.827567 1.654872 0
M  V30 42 H 1.268334 8.118210 -0.085517 0
M  V30 43 H -0.816924 7.806941 1.285849 0
M  V30 44 H -1.737320 6.618391 -0.691681 0
M  V30 45 H -0.552933 7.948739 -1.036004 0
M  V30 46 H -0.376803 5.313755 -1.920657 0
M  V30 47 H 0.983758 6.515557 -1.925888 0
M  V30 48 H -0.858865 3.424681 -1.424826 0
M  V30 49 H -1.151344 1.096332 -0.924027 0
M  V30 50 H -1.804605 -3.967001 1.989212 0
M  V30 51 H -2.913815 -2.562908 1.874799 0
M  V30 52 H -2.917222 -2.834932 -0.648684 0
M  V30 53 H -1.035777 -5.132602 0.165588 0
M  V30 54 H -0.803509 -3.937263 -1.144524 0
M  V30 55 H -2.679663 -5.040896 -2.424453 0
M  V30 56 H -1.289375 -6.083454 -1.988148 0
M  V30 57 H -3.952542 -6.654580 -1.418383 0
M  V30 58 H -1.312432 -7.709689 -0.795833 0
M  V30 59 H -2.532943 -8.148053 0.324556 0
M  V30 60 H -4.232178 -6.527278 0.966045 0
M  V30 61 H -2.552834 -6.006883 1.209723 0
M  V30 62 H -4.538198 -4.451861 -0.531820 0
M  V30 63 H -4.385774 -4.164223 1.240995 0
M  V30 END ATOM
M  V30 BEGIN BOND
M  V30 1 1 1 2
M  V30 2 1 2 3
M  V30 3 2 3 4
M  V30 4 1 4 5
M  V30 5 2 5 6
M  V30 6 1 6 7
M  V30 7 1 7 8
M  V30 8 2 8 9
M  V30 9 1 9 10
M  V30 10 2 10 11
M  V30 11 1 11 12
M  V30 12 1 12 13
M  V30 13 1 13 14
M  V30 14 1 14 15
M  V30 15 1 15 16
M  V30 16 1 16 17
M  V30 17 1 11 18
M  V30 18 2 18 19
M  V30 19 2 7 20
M  V30 20 1 20 21
M  V30 21 1 21 22
M  V30 22 1 22 23
M  V30 23 1 23 24
M  V30 24 1 24 25
M  V30 25 1 25 26
M  V30 26 1 26 27
M  V30 27 1 26 28
M  V30 28 1 28 29
M  V30 29 1 21 30
M  V30 30 2 30 31
M  V30 31 1 31 3
M  V30 32 1 30 6
M  V30 33 1 19 8
M  V30 34 1 29 23
M  V30 35 1 17 12
M  V30 36 1 1 32
M  V30 37 1 1 33
M  V30 38 1 1 34
M  V30 39 1 2 35
M  V30 40 1 5 36
M  V30 41 1 9 37
M  V30 42 1 10 38
M  V30 43 1 13 39
M  V30 44 1 13 40
M  V30 45 1 14 41
M  V30 46 1 14 42
M  V30 47 1 15 43
M  V30 48 1 16 44
M  V30 49 1 16 45
M  V30 50 1 17 46
M  V30 51 1 17 47
M  V30 52 1 18 48
M  V30 53 1 19 49
M  V30 54 1 22 50
M  V30 55 1 22 51
M  V30 56 1 23 52
M  V30 57 1 24 53
M  V30 58 1 24 54
M  V30 59 1 25 55
M  V30 60 1 25 56
M  V30 61 1 26 57
M  V30 62 1 27 58
M  V30 63 1 27 59
M  V30 64 1 28 60
M  V30 65 1 28 61
M  V30 66 1 29 62
M  V30 67 1 29 63
M  V30 END BOND
M  V30 END CTAB
M  END
>  <Dataset>  (416) 
ChEMBL_Kinases

>  <Ligand_Instance>  (416) 
nan

>  <PDB_ID>  (416) 
nan

>  <Standardized_SMILES>  (416) 
CNc1ncc2c(-c3ccc(N4CCNCC4)cc3)nn(CC3CCC(N)CC3)c2n1

>  <Name>  (416) 
nan

>  <Pocket>  (416) 
nan

>  <ATP_Site>  (416) 
nan

>  <Peripheral>  (416) 
nan

>  <Num_H_Atoms_ProtBoundConf>  (416) 
nan

>  <Num_Resolved_Atoms>  (416) 
nan

>  <Num_Not_Resolved_Atoms>  (416) 
nan

$$$$
CHEMBL1290404
     RDKit          3D

  0  0  0  0  0  0  0  0  0  0999 V3000
M  V30 BEGIN CTAB
M  V30 COUNTS 49 52 0 0 0
M  V30 BEGIN ATOM
M  V30 1 C -1.316784 3.206720 1.129002 0
M  V30 2 C 0.121164 2.856576 1.034348 0
M  V30 3 C 1.079544 3.645830 1.639078 0
M  V30 4 C 2.414936 3.275500 1.521723 0
M  V30 5 C 2.820513 2.156169 0.828589 0
M  V30 6 C 4.250017 1.872268 0.776398 0
M  V30 7 O 5.029300 2.670906 1.370706 0
M  V30 8 N 4.825940 0.773504 0.112372 0
M  V30 9 C 6.256267 0.583289 0.121429 0
M  V30 10 C 6.807103 -0.849460 0.186925 0
M  V30 11 C 6.948752 -0.011765 -1.047888 0
M  V30 12 C 1.887086 1.356579 0.219439 0
M  V30 13 C 0.576020 1.728270 0.339946 0
M  V30 14 N -0.426254 0.904650 -0.291277 0
M  V30 15 C -0.888550 -0.105096 0.575627 0
M  V30 16 O -0.478748 -0.278428 1.771577 0
M  V30 17 C -1.912902 -1.061179 0.140696 0
M  V30 18 C -2.576289 -1.178028 -1.064904 0
M  V30 19 N -3.435208 -2.228584 -0.971843 0
M  V30 20 N -3.354301 -2.785160 0.225110 0
M  V30 21 C -4.113266 -3.913107 0.674556 0
M  V30 22 C -5.341346 -3.524109 1.172132 0
M  V30 23 C -6.242252 -4.451850 1.662991 0
M  V30 24 C -5.857630 -5.794391 1.633789 0
M  V30 25 C -4.626702 -6.164212 1.132975 0
M  V30 26 C -3.738640 -5.227083 0.646768 0
M  V30 27 C -2.422073 -2.081845 0.927704 0
M  V30 28 N -2.101661 -2.435758 2.264758 0
M  V30 29 H -1.476711 4.288128 1.001135 0
M  V30 30 H -1.832925 2.580010 0.375923 0
M  V30 31 H -1.642977 2.909194 2.164218 0
M  V30 32 H 0.721799 4.511884 2.171278 0
M  V30 33 H 3.104904 3.961439 2.033963 0
M  V30 34 H 4.200410 0.102143 -0.384459 0
M  V30 35 H 6.845329 1.342243 0.671832 0
M  V30 36 H 7.692977 -1.048631 0.818057 0
M  V30 37 H 6.053104 -1.659934 0.213506 0
M  V30 38 H 7.985626 0.303042 -1.279074 0
M  V30 39 H 6.379665 -0.249239 -1.971876 0
M  V30 40 H 2.181732 0.485822 -0.321706 0
M  V30 41 H -0.865195 0.920390 -1.259831 0
M  V30 42 H -2.367872 -0.493590 -1.877506 0
M  V30 43 H -5.725773 -2.495300 1.233792 0
M  V30 44 H -7.226655 -4.231550 2.071332 0
M  V30 45 H -6.558570 -6.538424 2.018002 0
M  V30 46 H -4.322921 -7.198771 1.107232 0
M  V30 47 H -2.758704 -5.425592 0.238122 0
M  V30 48 H -2.237404 -1.712604 3.012798 0
M  V30 49 H -1.740975 -3.398318 2.476133 0
M  V30 END ATOM
M  V30 BEGIN BOND
M  V30 1 1 1 2
M  V30 2 2 2 3
M  V30 3 1 3 4
M  V30 4 2 4 5
M  V30 5 1 5 6
M  V30 6 2 6 7
M  V30 7 1 6 8
M  V30 8 1 8 9
M  V30 9 1 9 10
M  V30 10 1 10 11
M  V30 11 1 5 12
M  V30 12 2 12 13
M  V30 13 1 13 14
M  V30 14 1 14 15
M  V30 15 2 15 16
M  V30 16 1 15 17
M  V30 17 1 17 18
M  V30 18 2 18 19
M  V30 19 1 19 20
M  V30 20 1 20 21
M  V30 21 2 21 22
M  V30 22 1 22 23
M  V30 23 2 23 24
M  V30 24 1 24 25
M  V30 25 2 25 26
M  V30 26 1 20 27
M  V30 27 1 27 28
M  V30 28 1 13 2
M  V30 29 2 27 17
M  V30 30 1 11 9
M  V30 31 1 26 21
M  V30 32 1 1 29
M  V30 33 1 1 30
M  V30 34 1 1 31
M  V30 35 1 3 32
M  V30 36 1 4 33
M  V30 37 1 8 34
M  V30 38 1 9 35
M  V30 39 1 10 36
M  V30 40 1 10 37
M  V30 41 1 11 38
M  V30 42 1 11 39
M  V30 43 1 12 40
M  V30 44 1 14 41
M  V30 45 1 18 42
M  V30 46 1 22 43
M  V30 47 1 23 44
M  V30 48 1 24 45
M  V30 49 1 25 46
M  V30 50 1 26 47
M  V30 51 1 28 48
M  V30 52 1 28 49
M  V30 END BOND
M  V30 END CTAB
M  END
>  <Dataset>  (417) 
ChEMBL_Kinases

>  <Ligand_Instance>  (417) 
nan

>  <PDB_ID>  (417) 
nan

>  <Standardized_SMILES>  (417) 
Cc1ccc(C(=O)NC2CC2)cc1NC(=O)c1cnn(-c2ccccc2)c1N

>  <Name>  (417) 
nan

>  <Pocket>  (417) 
nan

>  <ATP_Site>  (417) 
nan

>  <Peripheral>  (417) 
nan

>  <Num_H_Atoms_ProtBoundConf>  (417) 
nan

>  <Num_Resolved_Atoms>  (417) 
nan

>  <Num_Not_Resolved_Atoms>  (417) 
nan

$$$$
CHEMBL2037199
     RDKit          3D

  0  0  0  0  0  0  0  0  0  0999 V3000
M  V30 BEGIN CTAB
M  V30 COUNTS 49 52 0 0 0
M  V30 BEGIN ATOM
M  V30 1 O 3.638785 -5.836049 -2.067863 0
M  V30 2 C 2.482615 -5.354839 -2.148786 0
M  V30 3 N 1.221894 -5.940596 -2.443361 0
M  V30 4 C 0.229743 -4.927528 -2.401023 0
M  V30 5 C -1.112011 -5.030292 -2.632309 0
M  V30 6 C -1.919970 -3.917861 -2.561351 0
M  V30 7 C -1.359331 -2.672972 -2.249686 0
M  V30 8 Cl -2.509885 -1.338066 -2.195281 0
M  V30 9 C -0.007104 -2.607380 -2.022604 0
M  V30 10 C 0.789879 -3.708589 -2.091851 0
M  V30 11 C 2.191932 -3.945297 -1.928291 0
M  V30 12 C 3.023852 -2.970305 -1.659076 0
M  V30 13 C 2.862006 -1.550734 -1.413976 0
M  V30 14 C 3.528608 -0.595053 -2.156831 0
M  V30 15 C 3.232213 0.683797 -1.745038 0
M  V30 16 C 2.359650 0.468168 -0.722083 0
M  V30 17 C 1.683452 1.447350 0.129882 0
M  V30 18 C 1.883491 2.789741 -0.133733 0
M  V30 19 C 1.249502 3.716228 0.687193 0
M  V30 20 C 0.445881 3.321422 1.732683 0
M  V30 21 C 0.232809 1.985566 2.014059 0
M  V30 22 C -0.581940 1.432014 3.090506 0
M  V30 23 O -0.691416 0.171002 3.277887 0
M  V30 24 N -1.319605 2.214474 4.019833 0
M  V30 25 C -2.135364 1.710396 5.101869 0
M  V30 26 C -3.265432 0.818042 4.632169 0
M  V30 27 C -4.078814 0.324060 5.835193 0
M  V30 28 O -3.305459 -0.399700 6.724584 0
M  V30 29 C 0.870156 1.099270 1.188014 0
M  V30 30 O 2.185567 -0.809697 -0.577327 0
M  V30 31 H 1.087400 -6.944659 -2.650117 0
M  V30 32 H -1.551049 -5.965912 -2.870184 0
M  V30 33 H -2.975507 -4.039709 -2.749900 0
M  V30 34 H 0.242343 -1.609411 -1.824189 0
M  V30 35 H 4.081881 -3.263247 -1.595186 0
M  V30 36 H 4.220609 -0.780936 -2.981299 0
M  V30 37 H 3.565385 1.644752 -2.093505 0
M  V30 38 H 2.502812 3.165910 -0.939538 0
M  V30 39 H 1.343470 4.795355 0.561491 0
M  V30 40 H -0.056893 4.025367 2.383573 0
M  V30 41 H -1.222494 3.260930 3.850979 0
M  V30 42 H -1.542134 1.116205 5.840043 0
M  V30 43 H -2.534133 2.603477 5.643087 0
M  V30 44 H -2.894118 -0.003923 4.009206 0
M  V30 45 H -3.976386 1.493460 4.085818 0
M  V30 46 H -4.894280 -0.318287 5.439740 0
M  V30 47 H -4.499772 1.240589 6.310269 0
M  V30 48 H -2.894621 -1.136003 6.214367 0
M  V30 49 H 0.764683 0.032018 1.327539 0
M  V30 END ATOM
M  V30 BEGIN BOND
M  V30 1 2 1 2
M  V30 2 1 2 3
M  V30 3 1 3 4
M  V30 4 2 4 5
M  V30 5 1 5 6
M  V30 6 2 6 7
M  V30 7 1 7 8
M  V30 8 1 7 9
M  V30 9 2 9 10
M  V30 10 1 10 11
M  V30 11 2 11 12
M  V30 12 1 12 13
M  V30 13 2 13 14
M  V30 14 1 14 15
M  V30 15 2 15 16
M  V30 16 1 16 17
M  V30 17 2 17 18
M  V30 18 1 18 19
M  V30 19 2 19 20
M  V30 20 1 20 21
M  V30 21 1 21 22
M  V30 22 2 22 23
M  V30 23 1 22 24
M  V30 24 1 24 25
M  V30 25 1 25 26
M  V30 26 1 26 27
M  V30 27 1 27 28
M  V30 28 2 21 29
M  V30 29 1 16 30
M  V30 30 1 11 2
M  V30 31 1 30 13
M  V30 32 1 10 4
M  V30 33 1 29 17
M  V30 34 1 3 31
M  V30 35 1 5 32
M  V30 36 1 6 33
M  V30 37 1 9 34
M  V30 38 1 12 35
M  V30 39 1 14 36
M  V30 40 1 15 37
M  V30 41 1 18 38
M  V30 42 1 19 39
M  V30 43 1 20 40
M  V30 44 1 24 41
M  V30 45 1 25 42
M  V30 46 1 25 43
M  V30 47 1 26 44
M  V30 48 1 26 45
M  V30 49 1 27 46
M  V30 50 1 27 47
M  V30 51 1 28 48
M  V30 52 1 29 49
M  V30 END BOND
M  V30 END CTAB
M  END
>  <Dataset>  (418) 
ChEMBL_Kinases

>  <Ligand_Instance>  (418) 
nan

>  <PDB_ID>  (418) 
nan

>  <Standardized_SMILES>  (418) 
O=C1Nc2ccc(Cl)cc2/C1=C\c1ccc(-c2cccc(C(=O)NCCCO)c2)o1

>  <Name>  (418) 
nan

>  <Pocket>  (418) 
nan

>  <ATP_Site>  (418) 
nan

>  <Peripheral>  (418) 
nan

>  <Num_H_Atoms_ProtBoundConf>  (418) 
nan

>  <Num_Resolved_Atoms>  (418) 
nan

>  <Num_Not_Resolved_Atoms>  (418) 
nan

$$$$
CHEMBL2030393
     RDKit          3D

  0  0  0  0  0  0  0  0  0  0999 V3000
M  V30 BEGIN CTAB
M  V30 COUNTS 32 35 0 0 0
M  V30 BEGIN ATOM
M  V30 1 O 0.517696 1.342447 3.902151 0
M  V30 2 C 0.261143 0.673742 2.856721 0
M  V30 3 N 0.889399 -0.506094 2.726346 0
M  V30 4 C 0.661853 -1.265885 1.639929 0
M  V30 5 C 1.228363 -2.587449 1.276305 0 CFG=2
M  V30 6 C 2.456483 -2.960218 2.060840 0
M  V30 7 C 3.079425 -3.965088 1.087499 0
M  V30 8 C 2.888987 -3.238642 -0.226285 0
M  V30 9 N 1.620080 -2.566327 -0.114667 0
M  V30 10 N -0.207578 -0.821281 0.685727 0
M  V30 11 C -0.842521 0.362622 0.809384 0
M  V30 12 C -0.621433 1.151300 1.913144 0
M  V30 13 O -1.346805 2.242123 1.804508 0
M  V30 14 C -2.035672 2.200462 0.672296 0
M  V30 15 C -2.930487 3.096781 0.109208 0
M  V30 16 C -3.514711 2.786820 -1.113279 0
M  V30 17 C -3.213837 1.606785 -1.763022 0
M  V30 18 Br -4.023384 1.188729 -3.446061 0
M  V30 19 C -2.326536 0.700168 -1.221682 0
M  V30 20 C -1.760849 1.032318 -0.007405 0
M  V30 21 H 1.565013 -0.938515 3.384822 0
M  V30 22 H 0.431892 -3.336503 1.479917 0
M  V30 23 H 2.221889 -3.482038 3.006548 0
M  V30 24 H 3.176708 -2.156399 2.206909 0
M  V30 25 H 4.140729 -4.160215 1.324238 0
M  V30 26 H 2.464413 -4.893283 1.031873 0
M  V30 27 H 2.858563 -3.938731 -1.087842 0
M  V30 28 H 3.748172 -2.562819 -0.418216 0
M  V30 29 H 1.785229 -1.569560 -0.440579 0
M  V30 30 H -3.191403 4.031283 0.587844 0
M  V30 31 H -4.231119 3.440187 -1.625449 0
M  V30 32 H -2.051815 -0.251017 -1.694350 0
M  V30 END ATOM
M  V30 BEGIN BOND
M  V30 1 2 1 2
M  V30 2 1 2 3
M  V30 3 1 3 4
M  V30 4 1 4 5
M  V30 5 1 5 6
M  V30 6 1 6 7
M  V30 7 1 7 8
M  V30 8 1 8 9
M  V30 9 2 4 10
M  V30 10 1 10 11
M  V30 11 2 11 12
M  V30 12 1 12 13
M  V30 13 1 13 14
M  V30 14 2 14 15
M  V30 15 1 15 16
M  V30 16 2 16 17
M  V30 17 1 17 18
M  V30 18 1 17 19
M  V30 19 2 19 20
M  V30 20 1 12 2
M  V30 21 1 20 14
M  V30 22 1 9 5
M  V30 23 1 20 11
M  V30 24 1 3 21
M  V30 25 1 5 22 CFG=3
M  V30 26 1 6 23
M  V30 27 1 6 24
M  V30 28 1 7 25
M  V30 29 1 7 26
M  V30 30 1 8 27
M  V30 31 1 8 28
M  V30 32 1 9 29
M  V30 33 1 15 30
M  V30 34 1 16 31
M  V30 35 1 19 32
M  V30 END BOND
M  V30 END CTAB
M  END
>  <Dataset>  (419) 
ChEMBL_Kinases

>  <Ligand_Instance>  (419) 
nan

>  <PDB_ID>  (419) 
nan

>  <Standardized_SMILES>  (419) 
O=c1[nH]c([C@@H]2CCCN2)nc2c1oc1ccc(Br)cc12

>  <Name>  (419) 
nan

>  <Pocket>  (419) 
nan

>  <ATP_Site>  (419) 
nan

>  <Peripheral>  (419) 
nan

>  <Num_H_Atoms_ProtBoundConf>  (419) 
nan

>  <Num_Resolved_Atoms>  (419) 
nan

>  <Num_Not_Resolved_Atoms>  (419) 
nan

$$$$
CHEMBL2030392
     RDKit          3D

  0  0  0  0  0  0  0  0  0  0999 V3000
M  V30 BEGIN CTAB
M  V30 COUNTS 29 32 0 0 0
M  V30 BEGIN ATOM
M  V30 1 O -2.221929 0.688256 -1.859644 0
M  V30 2 C -1.496892 0.092682 -1.046479 0
M  V30 3 N -1.634204 -1.241557 -0.848314 0
M  V30 4 C -0.825698 -1.868349 0.049384 0
M  V30 5 C -0.957244 -3.346753 0.287975 0
M  V30 6 C 0.377249 -4.060651 0.370914 0
M  V30 7 N -0.007855 -4.644611 1.633912 0
M  V30 8 C -1.015091 -3.616517 1.774352 0
M  V30 9 N 0.105412 -1.198421 0.744487 0
M  V30 10 C 0.309649 0.124896 0.610660 0
M  V30 11 C -0.525451 0.727732 -0.305714 0
M  V30 12 O -0.230022 2.005527 -0.344423 0
M  V30 13 C 0.740651 2.309820 0.476115 0
M  V30 14 C 1.433598 3.448849 0.837537 0
M  V30 15 C 2.445233 3.407880 1.779869 0
M  V30 16 C 2.779338 2.199725 2.381840 0
M  V30 17 Br 4.188779 2.158682 3.690835 0
M  V30 18 C 2.107726 1.018295 2.050395 0
M  V30 19 C 1.110790 1.136571 1.102795 0
M  V30 20 H -2.353688 -1.792000 -1.377458 0
M  V30 21 H -1.734951 -3.824607 -0.312521 0
M  V30 22 H 1.207725 -3.346710 0.516188 0
M  V30 23 H 0.562186 -4.779982 -0.450308 0
M  V30 24 H -0.413993 -5.605214 1.526348 0
M  V30 25 H -1.987769 -4.046634 2.113628 0
M  V30 26 H -0.670632 -2.771906 2.388295 0
M  V30 27 H 1.114712 4.357201 0.322562 0
M  V30 28 H 2.955868 4.339898 2.023654 0
M  V30 29 H 2.359403 0.075499 2.511810 0
M  V30 END ATOM
M  V30 BEGIN BOND
M  V30 1 2 1 2
M  V30 2 1 2 3
M  V30 3 1 3 4
M  V30 4 1 4 5
M  V30 5 1 5 6
M  V30 6 1 6 7
M  V30 7 1 7 8
M  V30 8 2 4 9
M  V30 9 1 9 10
M  V30 10 2 10 11
M  V30 11 1 11 12
M  V30 12 1 12 13
M  V30 13 2 13 14
M  V30 14 1 14 15
M  V30 15 2 15 16
M  V30 16 1 16 17
M  V30 17 1 16 18
M  V30 18 2 18 19
M  V30 19 1 11 2
M  V30 20 1 19 13
M  V30 21 1 8 5
M  V30 22 1 19 10
M  V30 23 1 3 20
M  V30 24 1 5 21
M  V30 25 1 6 22
M  V30 26 1 6 23
M  V30 27 1 7 24
M  V30 28 1 8 25
M  V30 29 1 8 26
M  V30 30 1 14 27
M  V30 31 1 15 28
M  V30 32 1 18 29
M  V30 END BOND
M  V30 END CTAB
M  END
>  <Dataset>  (420) 
ChEMBL_Kinases

>  <Ligand_Instance>  (420) 
nan

>  <PDB_ID>  (420) 
nan

>  <Standardized_SMILES>  (420) 
O=c1[nH]c(C2CNC2)nc2c1oc1ccc(Br)cc12

>  <Name>  (420) 
nan

>  <Pocket>  (420) 
nan

>  <ATP_Site>  (420) 
nan

>  <Peripheral>  (420) 
nan

>  <Num_H_Atoms_ProtBoundConf>  (420) 
nan

>  <Num_Resolved_Atoms>  (420) 
nan

>  <Num_Not_Resolved_Atoms>  (420) 
nan

$$$$
CHEMBL2030391
     RDKit          3D

  0  0  0  0  0  0  0  0  0  0999 V3000
M  V30 BEGIN CTAB
M  V30 COUNTS 38 41 0 0 0
M  V30 BEGIN ATOM
M  V30 1 O 0.940454 -3.724111 4.376538 0
M  V30 2 C 0.347999 -3.400457 3.295747 0
M  V30 3 O -0.904981 -2.830418 3.524647 0
M  V30 4 C 0.720708 -3.508209 1.869671 0
M  V30 5 C 2.089817 -4.133170 1.665019 0
M  V30 6 C 2.866101 -3.242487 0.751985 0
M  V30 7 N 1.886308 -2.378200 0.179205 0
M  V30 8 C 2.439966 -1.126879 -0.303044 0
M  V30 9 C 1.304294 -0.339884 -0.867327 0
M  V30 10 N 0.689900 0.457477 0.011375 0
M  V30 11 C -0.356554 1.246121 -0.306323 0
M  V30 12 C -0.786765 1.199788 -1.617581 0
M  V30 13 O -1.793951 2.030976 -1.693516 0
M  V30 14 C -2.036204 2.602372 -0.528191 0
M  V30 15 C -2.966457 3.532326 -0.081341 0
M  V30 16 C -2.974141 3.954313 1.242401 0
M  V30 17 C -2.040329 3.442426 2.137222 0
M  V30 18 Br -1.959594 3.953312 3.983470 0
M  V30 19 C -1.097751 2.517375 1.739331 0
M  V30 20 C -1.134143 2.132583 0.414875 0
M  V30 21 C -0.142059 0.370424 -2.516268 0
M  V30 22 O -0.509554 0.308108 -3.708835 0
M  V30 23 N 0.905948 -0.404626 -2.151053 0
M  V30 24 C 0.890330 -2.175600 1.193299 0
M  V30 25 H -1.450670 -3.008775 4.373917 0
M  V30 26 H -0.073677 -4.077108 1.347636 0
M  V30 27 H 1.947087 -5.139993 1.252807 0
M  V30 28 H 2.569071 -4.138188 2.666178 0
M  V30 29 H 3.648704 -2.654600 1.268965 0
M  V30 30 H 3.394416 -3.788777 -0.055975 0
M  V30 31 H 3.136976 -1.347129 -1.132338 0
M  V30 32 H 2.935402 -0.603427 0.517702 0
M  V30 33 H -3.702351 3.940037 -0.772752 0
M  V30 34 H -3.677303 4.675432 1.638088 0
M  V30 35 H -0.352682 2.092193 2.399899 0
M  V30 36 H 1.423239 -1.046541 -2.797135 0
M  V30 37 H 1.333282 -1.476185 1.952238 0
M  V30 38 H -0.036113 -1.731635 0.811646 0
M  V30 END ATOM
M  V30 BEGIN BOND
M  V30 1 2 1 2
M  V30 2 1 2 3
M  V30 3 1 2 4
M  V30 4 1 4 5
M  V30 5 1 5 6
M  V30 6 1 6 7
M  V30 7 1 7 8
M  V30 8 1 8 9
M  V30 9 2 9 10
M  V30 10 1 10 11
M  V30 11 2 11 12
M  V30 12 1 12 13
M  V30 13 1 13 14
M  V30 14 2 14 15
M  V30 15 1 15 16
M  V30 16 2 16 17
M  V30 17 1 17 18
M  V30 18 1 17 19
M  V30 19 2 19 20
M  V30 20 1 12 21
M  V30 21 2 21 22
M  V30 22 1 21 23
M  V30 23 1 7 24
M  V30 24 1 24 4
M  V30 25 1 23 9
M  V30 26 1 20 11
M  V30 27 1 20 14
M  V30 28 1 3 25
M  V30 29 1 4 26
M  V30 30 1 5 27
M  V30 31 1 5 28
M  V30 32 1 6 29
M  V30 33 1 6 30
M  V30 34 1 8 31
M  V30 35 1 8 32
M  V30 36 1 15 33
M  V30 37 1 16 34
M  V30 38 1 19 35
M  V30 39 1 23 36
M  V30 40 1 24 37
M  V30 41 1 24 38
M  V30 END BOND
M  V30 END CTAB
M  END
>  <Dataset>  (421) 
ChEMBL_Kinases

>  <Ligand_Instance>  (421) 
nan

>  <PDB_ID>  (421) 
nan

>  <Standardized_SMILES>  (421) 
O=C(O)C1CCN(Cc2nc3c(oc4ccc(Br)cc43)c(=O)[nH]2)C1

>  <Name>  (421) 
nan

>  <Pocket>  (421) 
nan

>  <ATP_Site>  (421) 
nan

>  <Peripheral>  (421) 
nan

>  <Num_H_Atoms_ProtBoundConf>  (421) 
nan

>  <Num_Resolved_Atoms>  (421) 
nan

>  <Num_Not_Resolved_Atoms>  (421) 
nan

$$$$
CHEMBL2030390
     RDKit          3D

  0  0  0  0  0  0  0  0  0  0999 V3000
M  V30 BEGIN CTAB
M  V30 COUNTS 39 42 0 0 0
M  V30 BEGIN ATOM
M  V30 1 C -1.971807 -5.457707 2.882435 0
M  V30 2 O -1.426587 -4.971080 1.705295 0
M  V30 3 C -0.830264 -3.743118 1.829797 0 CFG=1
M  V30 4 C 0.674317 -3.856524 1.559937 0
M  V30 5 C 0.930088 -2.636590 0.660003 0
M  V30 6 N -0.275036 -2.670772 -0.115935 0
M  V30 7 C -0.389417 -1.667533 -1.114609 0
M  V30 8 C -0.355213 -0.285964 -0.615983 0
M  V30 9 N 0.794171 0.437018 -0.475867 0
M  V30 10 C 0.709404 1.714403 -0.002427 0
M  V30 11 C -0.515142 2.265096 0.328523 0
M  V30 12 O -0.312724 3.494836 0.753982 0
M  V30 13 C 0.968642 3.778054 0.720136 0
M  V30 14 C 1.725912 4.887977 1.042798 0
M  V30 15 C 3.097477 4.879440 0.893254 0
M  V30 16 C 3.782927 3.759781 0.413015 0
M  V30 17 Br 5.671708 3.750031 0.207824 0
M  V30 18 C 3.039893 2.630538 0.081811 0
M  V30 19 C 1.679437 2.692080 0.249439 0
M  V30 20 C -1.685796 1.542179 0.190701 0
M  V30 21 O -2.825591 1.994297 0.476758 0
M  V30 22 N -1.536460 0.305232 -0.274931 0
M  V30 23 C -1.318106 -2.698139 0.852168 0
M  V30 24 H -2.420581 -6.450197 2.649837 0
M  V30 25 H -1.168643 -5.675071 3.632519 0
M  V30 26 H -2.749973 -4.836806 3.321089 0
M  V30 27 H -0.910625 -3.376493 2.892898 0
M  V30 28 H 1.264852 -3.826113 2.474692 0
M  V30 29 H 0.861381 -4.736463 0.914988 0
M  V30 30 H 1.803835 -2.773811 0.010959 0
M  V30 31 H 0.986497 -1.784332 1.357668 0
M  V30 32 H -1.360386 -1.826481 -1.629109 0
M  V30 33 H 0.394710 -1.835966 -1.880113 0
M  V30 34 H 1.177600 5.750607 1.414957 0
M  V30 35 H 3.676539 5.774460 1.156819 0
M  V30 36 H 3.549266 1.758244 -0.289694 0
M  V30 37 H -2.426326 -0.261980 -0.386134 0
M  V30 38 H -2.314398 -2.942223 0.435559 0
M  V30 39 H -1.408616 -1.741714 1.421056 0
M  V30 END ATOM
M  V30 BEGIN BOND
M  V30 1 1 1 2
M  V30 2 1 2 3
M  V30 3 1 3 4
M  V30 4 1 4 5
M  V30 5 1 5 6
M  V30 6 1 6 7
M  V30 7 1 7 8
M  V30 8 2 8 9
M  V30 9 1 9 10
M  V30 10 2 10 11
M  V30 11 1 11 12
M  V30 12 1 12 13
M  V30 13 2 13 14
M  V30 14 1 14 15
M  V30 15 2 15 16
M  V30 16 1 16 17
M  V30 17 1 16 18
M  V30 18 2 18 19
M  V30 19 1 11 20
M  V30 20 2 20 21
M  V30 21 1 20 22
M  V30 22 1 6 23
M  V30 23 1 23 3
M  V30 24 1 22 8
M  V30 25 1 19 10
M  V30 26 1 19 13
M  V30 27 1 1 24
M  V30 28 1 1 25
M  V30 29 1 1 26
M  V30 30 1 3 27 CFG=1
M  V30 31 1 4 28
M  V30 32 1 4 29
M  V30 33 1 5 30
M  V30 34 1 5 31
M  V30 35 1 7 32
M  V30 36 1 7 33
M  V30 37 1 14 34
M  V30 38 1 15 35
M  V30 39 1 18 36
M  V30 40 1 22 37
M  V30 41 1 23 38
M  V30 42 1 23 39
M  V30 END BOND
M  V30 END CTAB
M  END
>  <Dataset>  (422) 
ChEMBL_Kinases

>  <Ligand_Instance>  (422) 
nan

>  <PDB_ID>  (422) 
nan

>  <Standardized_SMILES>  (422) 
CO[C@H]1CCN(Cc2nc3c(oc4ccc(Br)cc43)c(=O)[nH]2)C1

>  <Name>  (422) 
nan

>  <Pocket>  (422) 
nan

>  <ATP_Site>  (422) 
nan

>  <Peripheral>  (422) 
nan

>  <Num_H_Atoms_ProtBoundConf>  (422) 
nan

>  <Num_Resolved_Atoms>  (422) 
nan

>  <Num_Not_Resolved_Atoms>  (422) 
nan

$$$$
CHEMBL550795
     RDKit          3D

  0  0  0  0  0  0  0  0  0  0999 V3000
M  V30 BEGIN CTAB
M  V30 COUNTS 38 41 0 0 0
M  V30 BEGIN ATOM
M  V30 1 O 1.483716 -5.504962 4.591978 0
M  V30 2 C 0.947223 -5.111231 3.525365 0
M  V30 3 O -0.126289 -5.889050 3.068382 0
M  V30 4 C 1.363754 -3.935046 2.766121 0
M  V30 5 C 0.720489 -3.567064 1.599421 0
M  V30 6 C 1.129312 -2.443289 0.888044 0
M  V30 7 C 2.192377 -1.686635 1.355720 0
M  V30 8 C 2.543367 -0.528214 0.540117 0
M  V30 9 C 3.805133 -0.133222 0.142348 0
M  V30 10 N 3.725526 0.975745 -0.598505 0
M  V30 11 C 2.455467 1.358072 -0.724890 0
M  V30 12 N 1.814030 2.367724 -1.339591 0
M  V30 13 C 0.477071 2.526190 -1.307169 0
M  V30 14 C -0.320950 1.622376 -0.613764 0
M  V30 15 C -1.778980 1.743607 -0.543227 0
M  V30 16 C -2.577213 2.269128 -1.538079 0
M  V30 17 C -3.951874 2.342690 -1.380322 0
M  V30 18 C -4.523253 1.880695 -0.206028 0
M  V30 19 C -3.743681 1.342766 0.821062 0
M  V30 20 C -2.364268 1.282827 0.631235 0
M  V30 21 C 0.318987 0.577196 0.025156 0
M  V30 22 C 1.690726 0.430910 -0.019269 0
M  V30 23 C 2.829258 -2.061009 2.521582 0
M  V30 24 C 2.417365 -3.182567 3.226881 0
M  V30 25 H -0.807727 -6.316430 3.693341 0
M  V30 26 H -0.101711 -4.218354 1.307406 0
M  V30 27 H 0.528636 -2.297522 0.009268 0
M  V30 28 H 4.743407 -0.634987 0.384046 0
M  V30 29 H 4.561868 1.470707 -1.019898 0
M  V30 30 H -0.033673 3.332295 -1.798037 0
M  V30 31 H -2.049280 2.604354 -2.416383 0
M  V30 32 H -4.551006 2.759393 -2.177941 0
M  V30 33 H -5.593534 1.921893 -0.047023 0
M  V30 34 H -4.229909 0.993127 1.722764 0
M  V30 35 H -1.839733 0.855401 1.468997 0
M  V30 36 H -0.287580 -0.118859 0.559854 0
M  V30 37 H 3.658390 -1.414050 2.826562 0
M  V30 38 H 2.949278 -3.435736 4.136658 0
M  V30 END ATOM
M  V30 BEGIN BOND
M  V30 1 2 1 2
M  V30 2 1 2 3
M  V30 3 1 2 4
M  V30 4 2 4 5
M  V30 5 1 5 6
M  V30 6 2 6 7
M  V30 7 1 7 8
M  V30 8 2 8 9
M  V30 9 1 9 10
M  V30 10 1 10 11
M  V30 11 2 11 12
M  V30 12 1 12 13
M  V30 13 2 13 14
M  V30 14 1 14 15
M  V30 15 2 15 16
M  V30 16 1 16 17
M  V30 17 2 17 18
M  V30 18 1 18 19
M  V30 19 2 19 20
M  V30 20 1 14 21
M  V30 21 2 21 22
M  V30 22 1 7 23
M  V30 23 2 23 24
M  V30 24 1 24 4
M  V30 25 1 22 8
M  V30 26 1 22 11
M  V30 27 1 20 15
M  V30 28 1 3 25
M  V30 29 1 5 26
M  V30 30 1 6 27
M  V30 31 1 9 28
M  V30 32 1 10 29
M  V30 33 1 13 30
M  V30 34 1 16 31
M  V30 35 1 17 32
M  V30 36 1 18 33
M  V30 37 1 19 34
M  V30 38 1 20 35
M  V30 39 1 21 36
M  V30 40 1 23 37
M  V30 41 1 24 38
M  V30 END BOND
M  V30 END CTAB
M  END
>  <Dataset>  (423) 
ChEMBL_Kinases

>  <Ligand_Instance>  (423) 
nan

>  <PDB_ID>  (423) 
nan

>  <Standardized_SMILES>  (423) 
O=C(O)c1ccc(-c2c[nH]c3ncc(-c4ccccc4)cc23)cc1

>  <Name>  (423) 
nan

>  <Pocket>  (423) 
nan

>  <ATP_Site>  (423) 
nan

>  <Peripheral>  (423) 
nan

>  <Num_H_Atoms_ProtBoundConf>  (423) 
nan

>  <Num_Resolved_Atoms>  (423) 
nan

>  <Num_Not_Resolved_Atoms>  (423) 
nan

$$$$
CHEMBL2030375
     RDKit          3D

  0  0  0  0  0  0  0  0  0  0999 V3000
M  V30 BEGIN CTAB
M  V30 COUNTS 20 22 0 0 0
M  V30 BEGIN ATOM
M  V30 1 O 1.837576 -3.288091 2.215742 0
M  V30 2 C 1.695631 -2.044689 2.332478 0
M  V30 3 N 2.113393 -1.409547 3.423516 0
M  V30 4 C 1.948435 -0.058491 3.527803 0
M  V30 5 N 1.355894 0.601564 2.501731 0
M  V30 6 C 0.937148 -0.029967 1.409827 0
M  V30 7 C 1.089028 -1.409970 1.268359 0
M  V30 8 O 0.599907 -1.790751 0.112167 0
M  V30 9 C 0.129915 -0.715246 -0.517314 0
M  V30 10 C -0.471681 -0.640005 -1.757794 0
M  V30 11 C -0.858271 0.625867 -2.148224 0
M  V30 12 C -0.706302 1.806930 -1.433987 0
M  V30 13 Br -1.294345 3.468003 -2.116214 0
M  V30 14 C -0.088199 1.644474 -0.187917 0
M  V30 15 C 0.320288 0.408571 0.258593 0
M  V30 16 H 2.561590 -2.008331 4.166390 0
M  V30 17 H 2.320409 0.365371 4.451949 0
M  V30 18 H -0.653434 -1.475614 -2.419295 0
M  V30 19 H -1.335063 0.729908 -3.116516 0
M  V30 20 H 0.058177 2.548896 0.422142 0
M  V30 END ATOM
M  V30 BEGIN BOND
M  V30 1 2 1 2
M  V30 2 1 2 3
M  V30 3 1 3 4
M  V30 4 2 4 5
M  V30 5 1 5 6
M  V30 6 2 6 7
M  V30 7 1 7 8
M  V30 8 1 8 9
M  V30 9 2 9 10
M  V30 10 1 10 11
M  V30 11 2 11 12
M  V30 12 1 12 13
M  V30 13 1 12 14
M  V30 14 2 14 15
M  V30 15 1 7 2
M  V30 16 1 15 9
M  V30 17 1 15 6
M  V30 18 1 3 16
M  V30 19 1 4 17
M  V30 20 1 10 18
M  V30 21 1 11 19
M  V30 22 1 14 20
M  V30 END BOND
M  V30 END CTAB
M  END
>  <Dataset>  (424) 
ChEMBL_Kinases

>  <Ligand_Instance>  (424) 
nan

>  <PDB_ID>  (424) 
nan

>  <Standardized_SMILES>  (424) 
O=c1[nH]cnc2c1oc1ccc(Br)cc12

>  <Name>  (424) 
nan

>  <Pocket>  (424) 
nan

>  <ATP_Site>  (424) 
nan

>  <Peripheral>  (424) 
nan

>  <Num_H_Atoms_ProtBoundConf>  (424) 
nan

>  <Num_Resolved_Atoms>  (424) 
nan

>  <Num_Not_Resolved_Atoms>  (424) 
nan

$$$$
CHEMBL203009
     RDKit          3D

  0  0  0  0  0  0  0  0  0  0999 V3000
M  V30 BEGIN CTAB
M  V30 COUNTS 56 59 0 0 0
M  V30 BEGIN ATOM
M  V30 1 C -0.900654 2.064659 5.359376 0
M  V30 2 O 0.063724 1.706377 4.440062 0
M  V30 3 C 0.852997 0.694594 4.955993 0
M  V30 4 C 2.308618 1.051817 5.012476 0
M  V30 5 C 3.022824 0.738810 3.704161 0
M  V30 6 C 3.048998 -0.739560 3.559670 0
M  V30 7 C 2.790831 -1.237563 2.187791 0
M  V30 8 O 1.831779 -2.018742 1.860572 0
M  V30 9 N 3.581924 -0.911806 1.034282 0
M  V30 10 C 3.002263 -1.594447 -0.101883 0
M  V30 11 C 2.027373 -0.835958 -0.756004 0
M  V30 12 C 1.425553 -1.405352 -1.843795 0
M  V30 13 C 0.398586 -0.670380 -2.574270 0
M  V30 14 C 0.359120 0.710587 -2.722483 0
M  V30 15 C -0.665688 1.295377 -3.436915 0
M  V30 16 N -1.633672 0.563564 -3.997714 0
M  V30 17 C -1.638483 -0.778045 -3.881653 0
M  V30 18 N -2.710806 -1.467402 -4.513218 0
M  V30 19 C -3.881182 -1.674735 -3.715002 0
M  V30 20 C -3.948276 -1.227423 -2.410994 0
M  V30 21 C -5.023221 -1.375368 -1.562191 0
M  V30 22 C -6.127101 -2.039283 -2.093293 0
M  V30 23 C -6.132038 -2.513721 -3.387699 0
M  V30 24 C -5.014716 -2.324641 -4.173291 0
M  V30 25 C -0.622559 -1.379209 -3.171420 0
M  V30 26 C 1.799699 -2.673555 -2.236997 0
M  V30 27 C 2.778088 -3.407378 -1.562615 0
M  V30 28 N 3.362249 -2.832516 -0.491941 0
M  V30 29 C 1.969315 -1.402751 4.426010 0
M  V30 30 C 0.709094 -0.595691 4.172659 0
M  V30 31 H -1.575536 1.213416 5.629184 0
M  V30 32 H -0.476463 2.413504 6.343833 0
M  V30 33 H -1.556145 2.876239 4.985126 0
M  V30 34 H 0.480044 0.457799 5.974012 0
M  V30 35 H 2.836722 0.475935 5.800681 0
M  V30 36 H 2.432959 2.115374 5.297250 0
M  V30 37 H 4.055230 1.123059 3.840831 0
M  V30 38 H 2.563527 1.302314 2.870974 0
M  V30 39 H 4.020487 -1.129047 3.912445 0
M  V30 40 H 4.411842 -0.264311 1.188774 0
M  V30 41 H 1.737415 0.146291 -0.451973 0
M  V30 42 H 1.149187 1.269656 -2.261786 0
M  V30 43 H -0.705349 2.370106 -3.557860 0
M  V30 44 H -2.768340 -1.853560 -5.499381 0
M  V30 45 H -3.080876 -0.703608 -1.988346 0
M  V30 46 H -5.017138 -1.002987 -0.549435 0
M  V30 47 H -7.022026 -2.203037 -1.496805 0
M  V30 48 H -7.004962 -3.023493 -3.766128 0
M  V30 49 H -5.021580 -2.697624 -5.186464 0
M  V30 50 H -0.693158 -2.455486 -3.121250 0
M  V30 51 H 1.300407 -3.097035 -3.107065 0
M  V30 52 H 3.061531 -4.402208 -1.883092 0
M  V30 53 H 2.250763 -1.452381 5.483210 0
M  V30 54 H 1.757891 -2.434070 4.071155 0
M  V30 55 H -0.202742 -1.157130 4.433508 0
M  V30 56 H 0.655175 -0.413844 3.081773 0
M  V30 END ATOM
M  V30 BEGIN BOND
M  V30 1 1 1 2
M  V30 2 1 2 3
M  V30 3 1 3 4
M  V30 4 1 4 5
M  V30 5 1 5 6
M  V30 6 1 6 7
M  V30 7 2 7 8
M  V30 8 1 7 9
M  V30 9 1 9 10
M  V30 10 2 10 11
M  V30 11 1 11 12
M  V30 12 1 12 13
M  V30 13 2 13 14
M  V30 14 1 14 15
M  V30 15 2 15 16
M  V30 16 1 16 17
M  V30 17 1 17 18
M  V30 18 1 18 19
M  V30 19 2 19 20
M  V30 20 1 20 21
M  V30 21 2 21 22
M  V30 22 1 22 23
M  V30 23 2 23 24
M  V30 24 2 17 25
M  V30 25 2 12 26
M  V30 26 1 26 27
M  V30 27 2 27 28
M  V30 28 1 6 29
M  V30 29 1 29 30
M  V30 30 1 30 3
M  V30 31 1 28 10
M  V30 32 1 25 13
M  V30 33 1 24 19
M  V30 34 1 1 31
M  V30 35 1 1 32
M  V30 36 1 1 33
M  V30 37 1 3 34
M  V30 38 1 4 35
M  V30 39 1 4 36
M  V30 40 1 5 37
M  V30 41 1 5 38
M  V30 42 1 6 39
M  V30 43 1 9 40
M  V30 44 1 11 41
M  V30 45 1 14 42
M  V30 46 1 15 43
M  V30 47 1 18 44
M  V30 48 1 20 45
M  V30 49 1 21 46
M  V30 50 1 22 47
M  V30 51 1 23 48
M  V30 52 1 24 49
M  V30 53 1 25 50
M  V30 54 1 26 51
M  V30 55 1 27 52
M  V30 56 1 29 53
M  V30 57 1 29 54
M  V30 58 1 30 55
M  V30 59 1 30 56
M  V30 END BOND
M  V30 END CTAB
M  END
>  <Dataset>  (425) 
ChEMBL_Kinases

>  <Ligand_Instance>  (425) 
nan

>  <PDB_ID>  (425) 
nan

>  <Standardized_SMILES>  (425) 
COC1CCC(C(=O)Nc2cc(-c3ccnc(Nc4ccccc4)c3)ccn2)CC1

>  <Name>  (425) 
nan

>  <Pocket>  (425) 
nan

>  <ATP_Site>  (425) 
nan

>  <Peripheral>  (425) 
nan

>  <Num_H_Atoms_ProtBoundConf>  (425) 
nan

>  <Num_Resolved_Atoms>  (425) 
nan

>  <Num_Not_Resolved_Atoms>  (425) 
nan

$$$$
CHEMBL550658
     RDKit          3D

  0  0  0  0  0  0  0  0  0  0999 V3000
M  V30 BEGIN CTAB
M  V30 COUNTS 39 42 0 0 0
M  V30 BEGIN ATOM
M  V30 1 N 0.661471 -5.505345 1.918591 0
M  V30 2 C 0.806266 -4.250301 1.237941 0
M  V30 3 N 1.723045 -4.112178 0.264648 0
M  V30 4 C 1.833304 -2.926970 -0.351759 0
M  V30 5 C 1.028884 -1.835884 -0.015842 0
M  V30 6 C 1.130017 -0.554705 -0.662996 0
M  V30 7 C 0.848513 -0.648810 -2.031300 0
M  V30 8 C 0.890176 0.479743 -2.855207 0
M  V30 9 C 1.217347 1.714250 -2.301787 0
M  V30 10 C 1.250795 2.884918 -3.210909 0
M  V30 11 F 1.925044 3.935451 -2.650251 0
M  V30 12 F 1.862630 2.451066 -4.390953 0
M  V30 13 F -0.061780 3.217117 -3.540825 0
M  V30 14 C 1.490091 1.790082 -0.961611 0
M  V30 15 C 1.452371 0.682995 -0.136584 0
M  V30 16 C 0.097345 -2.008425 0.986635 0
M  V30 17 C -0.816366 -0.971056 1.453892 0
M  V30 18 C -1.833185 -0.250563 0.860772 0
M  V30 19 N -2.360776 0.594418 1.769673 0
M  V30 20 C -1.710585 0.441538 2.943405 0
M  V30 21 C -1.839747 1.040600 4.180226 0
M  V30 22 C -1.052219 0.720692 5.255877 0
M  V30 23 C -0.072286 -0.256647 5.096669 0
M  V30 24 C 0.058797 -0.853544 3.870576 0
M  V30 25 C -0.741604 -0.529137 2.775187 0
M  V30 26 N 0.003444 -3.204458 1.591470 0
M  V30 27 H 1.215278 -6.316448 1.602149 0
M  V30 28 H -0.000893 -5.575959 2.721302 0
M  V30 29 H 2.532338 -2.705754 -1.143577 0
M  V30 30 H 0.580374 -1.566813 -2.572614 0
M  V30 31 H 0.672991 0.419620 -3.919316 0
M  V30 32 H 1.745200 2.734533 -0.514664 0
M  V30 33 H 1.649355 0.657423 0.905135 0
M  V30 34 H -2.092174 -0.409434 -0.174254 0
M  V30 35 H -3.145429 1.261663 1.600368 0
M  V30 36 H -2.617194 1.801798 4.268856 0
M  V30 37 H -1.158191 1.197652 6.234618 0
M  V30 38 H 0.599178 -0.574254 5.898843 0
M  V30 39 H 0.815138 -1.609677 3.743730 0
M  V30 END ATOM
M  V30 BEGIN BOND
M  V30 1 1 1 2
M  V30 2 2 2 3
M  V30 3 1 3 4
M  V30 4 2 4 5
M  V30 5 1 5 6
M  V30 6 2 6 7
M  V30 7 1 7 8
M  V30 8 2 8 9
M  V30 9 1 9 10
M  V30 10 1 10 11
M  V30 11 1 10 12
M  V30 12 1 10 13
M  V30 13 1 9 14
M  V30 14 2 14 15
M  V30 15 1 5 16
M  V30 16 1 16 17
M  V30 17 2 17 18
M  V30 18 1 18 19
M  V30 19 1 19 20
M  V30 20 2 20 21
M  V30 21 1 21 22
M  V30 22 2 22 23
M  V30 23 1 23 24
M  V30 24 2 24 25
M  V30 25 2 16 26
M  V30 26 1 26 2
M  V30 27 1 15 6
M  V30 28 1 25 17
M  V30 29 1 25 20
M  V30 30 1 1 27
M  V30 31 1 1 28
M  V30 32 1 4 29
M  V30 33 1 7 30
M  V30 34 1 8 31
M  V30 35 1 14 32
M  V30 36 1 15 33
M  V30 37 1 18 34
M  V30 38 1 19 35
M  V30 39 1 21 36
M  V30 40 1 22 37
M  V30 41 1 23 38
M  V30 42 1 24 39
M  V30 END BOND
M  V30 END CTAB
M  END
>  <Dataset>  (426) 
ChEMBL_Kinases

>  <Ligand_Instance>  (426) 
nan

>  <PDB_ID>  (426) 
nan

>  <Standardized_SMILES>  (426) 
Nc1ncc(-c2ccc(C(F)(F)F)cc2)c(-c2c[nH]c3ccccc23)n1

>  <Name>  (426) 
nan

>  <Pocket>  (426) 
nan

>  <ATP_Site>  (426) 
nan

>  <Peripheral>  (426) 
nan

>  <Num_H_Atoms_ProtBoundConf>  (426) 
nan

>  <Num_Resolved_Atoms>  (426) 
nan

>  <Num_Not_Resolved_Atoms>  (426) 
nan

$$$$
CHEMBL4740381
     RDKit          3D

  0  0  0  0  0  0  0  0  0  0999 V3000
M  V30 BEGIN CTAB
M  V30 COUNTS 57 62 0 0 0
M  V30 BEGIN ATOM
M  V30 1 C 0.928961 -5.641789 -4.086417 0
M  V30 2 C 1.906544 -5.529087 -2.946857 0
M  V30 3 C 2.095760 -4.318278 -2.317269 0
M  V30 4 C 2.995515 -4.162508 -1.252926 0
M  V30 5 C 3.073644 -2.818188 -0.693324 0
M  V30 6 C 4.170887 -2.031865 -0.408991 0
M  V30 7 N 3.747263 -0.865780 0.113065 0
M  V30 8 C 2.393846 -0.892638 0.167367 0
M  V30 9 C 1.571671 0.111081 0.640428 0
M  V30 10 C 0.214596 -0.136013 0.602624 0
M  V30 11 C -0.756993 0.848424 1.076146 0
M  V30 12 C -0.526657 2.214118 0.973493 0
M  V30 13 C -1.421098 3.167359 1.410938 0
M  V30 14 C -2.613315 2.781324 1.983758 0
M  V30 15 N -3.616253 3.659554 2.475424 0
M  V30 16 C -4.889052 3.387459 3.064563 0
M  V30 17 C -6.034736 4.022877 2.307884 0
M  V30 18 N -5.551380 4.751483 1.138957 0
M  V30 19 C -4.615319 5.747184 1.624127 0
M  V30 20 C -3.596739 5.105381 2.504523 0
M  V30 21 C -2.882142 1.435580 2.105214 0
M  V30 22 C -1.973295 0.496056 1.660782 0
M  V30 23 C -0.253927 -1.338333 0.109065 0
M  V30 24 C 0.671028 -2.262523 -0.335200 0
M  V30 25 N 2.003223 -2.080949 -0.324331 0
M  V30 26 C 3.671148 -5.287682 -0.880325 0
M  V30 27 C 4.539871 -5.144320 0.155178 0
M  V30 28 C 5.276995 -6.210623 0.625122 0
M  V30 29 C 5.115118 -7.456480 0.013246 0
M  V30 30 C 4.218528 -7.558014 -1.038736 0
M  V30 31 C 3.479929 -6.496950 -1.511969 0
M  V30 32 N 2.607584 -6.627154 -2.537387 0
M  V30 33 H 1.148176 -4.846775 -4.852374 0
M  V30 34 H 1.074979 -6.593820 -4.630481 0
M  V30 35 H -0.108535 -5.518549 -3.776883 0
M  V30 36 H 1.492942 -3.485109 -2.711703 0
M  V30 37 H 5.202114 -2.274684 -0.569972 0
M  V30 38 H 1.965506 1.040382 1.020331 0
M  V30 39 H 0.397051 2.572462 0.530222 0
M  V30 40 H -1.199666 4.217819 1.310271 0
M  V30 41 H -4.978276 3.718916 4.130166 0
M  V30 42 H -5.099152 2.300739 3.060756 0
M  V30 43 H -6.769660 3.286755 1.919050 0
M  V30 44 H -6.589103 4.749613 2.921218 0
M  V30 45 H -6.403498 5.266633 0.770272 0
M  V30 46 H -4.121086 6.228330 0.755994 0
M  V30 47 H -5.196245 6.536567 2.185104 0
M  V30 48 H -2.577888 5.422618 2.133106 0
M  V30 49 H -3.627601 5.522483 3.545003 0
M  V30 50 H -3.734753 0.938672 2.513808 0
M  V30 51 H -2.097106 -0.593303 1.713664 0
M  V30 52 H -1.327958 -1.536907 0.077848 0
M  V30 53 H 0.242964 -3.174008 -0.703535 0
M  V30 54 H 4.693375 -4.209440 0.661092 0
M  V30 55 H 5.988836 -6.135788 1.458524 0
M  V30 56 H 5.676908 -8.305778 0.358924 0
M  V30 57 H 4.058482 -8.510283 -1.547488 0
M  V30 END ATOM
M  V30 BEGIN BOND
M  V30 1 1 1 2
M  V30 2 2 2 3
M  V30 3 1 3 4
M  V30 4 1 4 5
M  V30 5 2 5 6
M  V30 6 1 6 7
M  V30 7 2 7 8
M  V30 8 1 8 9
M  V30 9 2 9 10
M  V30 10 1 10 11
M  V30 11 2 11 12
M  V30 12 1 12 13
M  V30 13 2 13 14
M  V30 14 1 14 15
M  V30 15 1 15 16
M  V30 16 1 16 17
M  V30 17 1 17 18
M  V30 18 1 18 19
M  V30 19 1 19 20
M  V30 20 1 14 21
M  V30 21 2 21 22
M  V30 22 1 10 23
M  V30 23 2 23 24
M  V30 24 1 24 25
M  V30 25 2 4 26
M  V30 26 1 26 27
M  V30 27 2 27 28
M  V30 28 1 28 29
M  V30 29 2 29 30
M  V30 30 1 30 31
M  V30 31 2 31 32
M  V30 32 1 32 2
M  V30 33 1 25 5
M  V30 34 1 31 26
M  V30 35 1 25 8
M  V30 36 1 22 11
M  V30 37 1 20 15
M  V30 38 1 1 33
M  V30 39 1 1 34
M  V30 40 1 1 35
M  V30 41 1 3 36
M  V30 42 1 6 37
M  V30 43 1 9 38
M  V30 44 1 12 39
M  V30 45 1 13 40
M  V30 46 1 16 41
M  V30 47 1 16 42
M  V30 48 1 17 43
M  V30 49 1 17 44
M  V30 50 1 18 45
M  V30 51 1 19 46
M  V30 52 1 19 47
M  V30 53 1 20 48
M  V30 54 1 20 49
M  V30 55 1 21 50
M  V30 56 1 22 51
M  V30 57 1 23 52
M  V30 58 1 24 53
M  V30 59 1 27 54
M  V30 60 1 28 55
M  V30 61 1 29 56
M  V30 62 1 30 57
M  V30 END BOND
M  V30 END CTAB
M  END
>  <Dataset>  (427) 
ChEMBL_Kinases

>  <Ligand_Instance>  (427) 
nan

>  <PDB_ID>  (427) 
nan

>  <Standardized_SMILES>  (427) 
Cc1cc(-c2cnc3cc(-c4ccc(N5CCNCC5)cc4)ccn23)c2ccccc2n1

>  <Name>  (427) 
nan

>  <Pocket>  (427) 
nan

>  <ATP_Site>  (427) 
nan

>  <Peripheral>  (427) 
nan

>  <Num_H_Atoms_ProtBoundConf>  (427) 
nan

>  <Num_Resolved_Atoms>  (427) 
nan

>  <Num_Not_Resolved_Atoms>  (427) 
nan

$$$$
CHEMBL471795
     RDKit          3D

  0  0  0  0  0  0  0  0  0  0999 V3000
M  V30 BEGIN CTAB
M  V30 COUNTS 55 59 0 0 0
M  V30 BEGIN ATOM
M  V30 1 C 2.171896 -4.455778 2.296119 0
M  V30 2 C 1.884172 -4.299527 0.855691 0
M  V30 3 C 2.368368 -3.168343 0.226480 0
M  V30 4 N 3.111058 -2.168776 0.872240 0
M  V30 5 C 3.540535 -1.063199 0.090541 0
M  V30 6 C 4.756024 -1.118228 -0.545731 0
M  V30 7 C 5.557368 -2.323444 -0.386610 0
M  V30 8 N 6.197536 -3.278210 -0.265365 0
M  V30 9 C 5.308201 -0.134415 -1.334117 0
M  V30 10 N 4.543120 0.959562 -1.457967 0
M  V30 11 C 3.332256 1.027187 -0.830453 0
M  V30 12 S 2.077077 2.432491 -0.840842 0
M  V30 13 C 0.948066 1.533986 0.220201 0
M  V30 14 C -0.359795 2.060833 0.673452 0
M  V30 15 C -1.175353 1.306719 1.491631 0
M  V30 16 C -2.392608 1.805906 1.909211 0
M  V30 17 C -2.754902 3.067903 1.482800 0
M  V30 18 C -4.069703 3.586045 1.944255 0
M  V30 19 N -5.134297 3.237137 1.027141 0
M  V30 20 C -5.273294 1.804385 0.877281 0
M  V30 21 C -6.367866 3.734603 1.605829 0
M  V30 22 C -1.941612 3.824409 0.664672 0
M  V30 23 C -0.725541 3.319480 0.250577 0
M  V30 24 C 1.521387 0.360335 0.488154 0
M  V30 25 C 2.745534 0.054083 -0.028510 0
M  V30 26 C 2.067456 -3.072721 -1.131456 0
M  V30 27 C 1.333759 -4.031601 -1.831880 0
M  V30 28 C 0.882281 -5.132448 -1.144227 0
M  V30 29 N 0.162083 -6.206454 -1.541003 0
M  V30 30 C -0.051416 -7.055443 -0.496605 0
M  V30 31 C 0.575556 -6.453517 0.578200 0
M  V30 32 C 1.155950 -5.268435 0.198127 0
M  V30 33 H 1.706705 -3.683114 2.934389 0
M  V30 34 H 3.260986 -4.392462 2.517165 0
M  V30 35 H 1.854927 -5.442556 2.685973 0
M  V30 36 H 3.300152 -2.303910 1.889779 0
M  V30 37 H 6.232444 -0.124734 -1.843433 0
M  V30 38 H -0.830181 0.325570 1.788475 0
M  V30 39 H -2.998432 1.178915 2.550029 0
M  V30 40 H -4.338614 3.230686 2.952606 0
M  V30 41 H -4.002956 4.689429 1.986736 0
M  V30 42 H -5.564300 1.289413 1.812970 0
M  V30 43 H -6.138649 1.654099 0.181046 0
M  V30 44 H -4.391227 1.320660 0.439488 0
M  V30 45 H -6.591032 3.074492 2.468765 0
M  V30 46 H -6.299567 4.797492 1.892817 0
M  V30 47 H -7.224127 3.583980 0.891807 0
M  V30 48 H -2.251335 4.811667 0.345454 0
M  V30 49 H -0.088493 3.896397 -0.382529 0
M  V30 50 H 0.981431 -0.343254 1.131163 0
M  V30 51 H 2.420444 -2.206369 -1.681505 0
M  V30 52 H 1.134471 -3.904609 -2.870622 0
M  V30 53 H -0.194213 -6.385643 -2.508496 0
M  V30 54 H -0.606962 -7.990660 -0.568885 0
M  V30 55 H 0.580314 -6.900949 1.576220 0
M  V30 END ATOM
M  V30 BEGIN BOND
M  V30 1 1 1 2
M  V30 2 2 2 3
M  V30 3 1 3 4
M  V30 4 1 4 5
M  V30 5 2 5 6
M  V30 6 1 6 7
M  V30 7 3 7 8
M  V30 8 1 6 9
M  V30 9 2 9 10
M  V30 10 1 10 11
M  V30 11 1 11 12
M  V30 12 1 12 13
M  V30 13 1 13 14
M  V30 14 2 14 15
M  V30 15 1 15 16
M  V30 16 2 16 17
M  V30 17 1 17 18
M  V30 18 1 18 19
M  V30 19 1 19 20
M  V30 20 1 19 21
M  V30 21 1 17 22
M  V30 22 2 22 23
M  V30 23 2 13 24
M  V30 24 1 24 25
M  V30 25 1 3 26
M  V30 26 2 26 27
M  V30 27 1 27 28
M  V30 28 1 28 29
M  V30 29 1 29 30
M  V30 30 2 30 31
M  V30 31 1 31 32
M  V30 32 1 32 2
M  V30 33 1 25 5
M  V30 34 2 32 28
M  V30 35 2 25 11
M  V30 36 1 23 14
M  V30 37 1 1 33
M  V30 38 1 1 34
M  V30 39 1 1 35
M  V30 40 1 4 36
M  V30 41 1 9 37
M  V30 42 1 15 38
M  V30 43 1 16 39
M  V30 44 1 18 40
M  V30 45 1 18 41
M  V30 46 1 20 42
M  V30 47 1 20 43
M  V30 48 1 20 44
M  V30 49 1 21 45
M  V30 50 1 21 46
M  V30 51 1 21 47
M  V30 52 1 22 48
M  V30 53 1 23 49
M  V30 54 1 24 50
M  V30 55 1 26 51
M  V30 56 1 27 52
M  V30 57 1 29 53
M  V30 58 1 30 54
M  V30 59 1 31 55
M  V30 END BOND
M  V30 END CTAB
M  END
>  <Dataset>  (428) 
ChEMBL_Kinases

>  <Ligand_Instance>  (428) 
nan

>  <PDB_ID>  (428) 
nan

>  <Standardized_SMILES>  (428) 
Cc1c(Nc2c(C#N)cnc3sc(-c4ccc(CN(C)C)cc4)cc23)ccc2[nH]ccc12

>  <Name>  (428) 
nan

>  <Pocket>  (428) 
nan

>  <ATP_Site>  (428) 
nan

>  <Peripheral>  (428) 
nan

>  <Num_H_Atoms_ProtBoundConf>  (428) 
nan

>  <Num_Resolved_Atoms>  (428) 
nan

>  <Num_Not_Resolved_Atoms>  (428) 
nan

$$$$
CHEMBL550110
     RDKit          3D

  0  0  0  0  0  0  0  0  0  0999 V3000
M  V30 BEGIN CTAB
M  V30 COUNTS 44 47 0 0 0
M  V30 BEGIN ATOM
M  V30 1 C -0.254938 -5.549628 1.469470 0
M  V30 2 C -1.113686 -5.000535 0.374685 0
M  V30 3 C -1.225629 -3.528611 0.465844 0
M  V30 4 C -0.491126 -2.748227 -0.412413 0
M  V30 5 C -0.617349 -1.366758 -0.299528 0
M  V30 6 C 0.168719 -0.570482 -1.239407 0
M  V30 7 C 0.260751 -0.852380 -2.585461 0
M  V30 8 N 1.060117 0.069708 -3.165626 0
M  V30 9 C 1.492529 0.938149 -2.261578 0
M  V30 10 N 2.288844 2.017577 -2.310904 0
M  V30 11 C 2.575207 2.744055 -1.216009 0
M  V30 12 C 2.042569 2.387020 0.017893 0
M  V30 13 C 2.292141 3.112034 1.277134 0
M  V30 14 C 2.297208 2.382805 2.464636 0
M  V30 15 C 2.524345 3.005923 3.674485 0
M  V30 16 C 2.751184 4.387552 3.697352 0
M  V30 17 C 2.746629 5.116004 2.516808 0
M  V30 18 C 2.515955 4.480901 1.291531 0
M  V30 19 C 1.212286 1.263691 0.077274 0
M  V30 20 C 0.947514 0.555119 -1.056407 0
M  V30 21 C -1.433604 -0.773743 0.639933 0
M  V30 22 C -2.177171 -1.551689 1.528668 0
M  V30 23 C -2.025965 -2.914080 1.385910 0
M  V30 24 C -2.823264 -3.670090 2.331781 0
M  V30 25 O -3.605637 -3.252558 3.236302 0
M  V30 26 O -3.146436 -4.937356 2.734468 0
M  V30 27 H 0.622478 -6.067637 1.020552 0
M  V30 28 H 0.133713 -4.753793 2.148589 0
M  V30 29 H -0.821197 -6.256212 2.120726 0
M  V30 30 H -2.131757 -5.467989 0.467452 0
M  V30 31 H -0.720814 -5.312109 -0.632073 0
M  V30 32 H 0.144299 -3.212748 -1.143469 0
M  V30 33 H -0.237273 -1.686577 -3.080367 0
M  V30 34 H 1.257275 0.030824 -4.186557 0
M  V30 35 H 3.214484 3.619564 -1.228834 0
M  V30 36 H 2.129193 1.319433 2.509612 0
M  V30 37 H 2.542406 2.506690 4.628471 0
M  V30 38 H 2.942134 4.991757 4.590355 0
M  V30 39 H 2.910105 6.176016 2.434937 0
M  V30 40 H 2.502937 5.007763 0.344162 0
M  V30 41 H 0.794437 0.972703 1.008084 0
M  V30 42 H -1.489189 0.311188 0.678311 0
M  V30 43 H -2.807631 -1.064662 2.252782 0
M  V30 44 H -3.848909 -5.529434 2.308015 0
M  V30 END ATOM
M  V30 BEGIN BOND
M  V30 1 1 1 2
M  V30 2 1 2 3
M  V30 3 2 3 4
M  V30 4 1 4 5
M  V30 5 1 5 6
M  V30 6 2 6 7
M  V30 7 1 7 8
M  V30 8 1 8 9
M  V30 9 2 9 10
M  V30 10 1 10 11
M  V30 11 2 11 12
M  V30 12 1 12 13
M  V30 13 2 13 14
M  V30 14 1 14 15
M  V30 15 2 15 16
M  V30 16 1 16 17
M  V30 17 2 17 18
M  V30 18 1 12 19
M  V30 19 2 19 20
M  V30 20 2 5 21
M  V30 21 1 21 22
M  V30 22 2 22 23
M  V30 23 1 23 24
M  V30 24 2 24 25
M  V30 25 1 24 26
M  V30 26 1 23 3
M  V30 27 1 20 6
M  V30 28 1 20 9
M  V30 29 1 18 13
M  V30 30 1 1 27
M  V30 31 1 1 28
M  V30 32 1 1 29
M  V30 33 1 2 30
M  V30 34 1 2 31
M  V30 35 1 4 32
M  V30 36 1 7 33
M  V30 37 1 8 34
M  V30 38 1 11 35
M  V30 39 1 14 36
M  V30 40 1 15 37
M  V30 41 1 16 38
M  V30 42 1 17 39
M  V30 43 1 18 40
M  V30 44 1 19 41
M  V30 45 1 21 42
M  V30 46 1 22 43
M  V30 47 1 26 44
M  V30 END BOND
M  V30 END CTAB
M  END
>  <Dataset>  (429) 
ChEMBL_Kinases

>  <Ligand_Instance>  (429) 
nan

>  <PDB_ID>  (429) 
nan

>  <Standardized_SMILES>  (429) 
CCc1cc(-c2c[nH]c3ncc(-c4ccccc4)cc23)ccc1C(=O)O

>  <Name>  (429) 
nan

>  <Pocket>  (429) 
nan

>  <ATP_Site>  (429) 
nan

>  <Peripheral>  (429) 
nan

>  <Num_H_Atoms_ProtBoundConf>  (429) 
nan

>  <Num_Resolved_Atoms>  (429) 
nan

>  <Num_Not_Resolved_Atoms>  (429) 
nan

$$$$
CHEMBL4740694
     RDKit          3D

  0  0  0  0  0  0  0  0  0  0999 V3000
M  V30 BEGIN CTAB
M  V30 COUNTS 46 49 0 0 0
M  V30 BEGIN ATOM
M  V30 1 C -0.029787 -4.059160 3.481305 0
M  V30 2 C 0.187326 -2.947446 2.525687 0
M  V30 3 C 1.022861 -1.928574 2.924395 0
M  V30 4 C 1.230639 -0.896144 2.049165 0
M  V30 5 N 2.091851 0.150190 2.456900 0
M  V30 6 C 1.796703 1.527248 2.614955 0
M  V30 7 C 0.533442 2.022916 2.446702 0
M  V30 8 C 0.322747 3.380585 2.614831 0
M  V30 9 N 1.338713 4.197030 2.937217 0
M  V30 10 C 2.604540 3.722106 3.109268 0
M  V30 11 N 3.682199 4.590511 3.451656 0
M  V30 12 C 2.832135 2.372259 2.945563 0
M  V30 13 C 0.595658 -0.922694 0.811235 0
M  V30 14 O 0.866196 0.074535 0.102193 0
M  V30 15 N -0.234915 -1.911439 0.386078 0
M  V30 16 C -0.406736 -2.903337 1.281231 0
M  V30 17 C -1.303375 -3.933696 0.735550 0
M  V30 18 O -1.779520 -5.010237 1.113838 0
M  V30 19 N -1.610220 -3.412909 -0.553336 0
M  V30 20 C -0.977382 -2.104567 -0.838954 0
M  V30 21 C -0.140718 -2.221491 -2.050808 0
M  V30 22 C 0.029554 -1.006544 -2.880553 0
M  V30 23 C -1.239859 -0.202322 -3.039318 0
M  V30 24 C -1.901917 0.083409 -1.734922 0
M  V30 25 C -2.143670 -1.173996 -0.985997 0
M  V30 26 H -1.036350 -4.506399 3.279807 0
M  V30 27 H -0.043156 -3.635744 4.504043 0
M  V30 28 H 0.702406 -4.887448 3.376875 0
M  V30 29 H 1.485096 -1.953629 3.881268 0
M  V30 30 H 3.040529 -0.237718 2.641338 0
M  V30 31 H -0.308409 1.396663 2.189463 0
M  V30 32 H -0.700844 3.748068 2.473142 0
M  V30 33 H 4.187972 4.791301 4.331643 0
M  V30 34 H 3.863618 5.026505 2.501209 0
M  V30 35 H 3.852824 2.005297 3.086766 0
M  V30 36 H -2.208351 -3.824523 -1.302738 0
M  V30 37 H -0.612368 -3.016897 -2.700149 0
M  V30 38 H 0.855181 -2.635653 -1.810042 0
M  V30 39 H 0.835365 -0.324350 -2.615000 0
M  V30 40 H 0.278472 -1.351751 -3.927472 0
M  V30 41 H -0.939709 0.789235 -3.478384 0
M  V30 42 H -1.934509 -0.639288 -3.783850 0
M  V30 43 H -1.394206 0.893660 -1.173918 0
M  V30 44 H -2.920605 0.494941 -1.986447 0
M  V30 45 H -2.527932 -0.939437 0.049706 0
M  V30 46 H -2.953194 -1.725535 -1.553241 0
M  V30 END ATOM
M  V30 BEGIN BOND
M  V30 1 1 1 2
M  V30 2 1 2 3
M  V30 3 2 3 4
M  V30 4 1 4 5
M  V30 5 1 5 6
M  V30 6 2 6 7
M  V30 7 1 7 8
M  V30 8 2 8 9
M  V30 9 1 9 10
M  V30 10 1 10 11
M  V30 11 2 10 12
M  V30 12 1 4 13
M  V30 13 2 13 14
M  V30 14 1 13 15
M  V30 15 1 15 16
M  V30 16 1 16 17
M  V30 17 2 17 18
M  V30 18 1 17 19
M  V30 19 1 19 20
M  V30 20 1 20 21
M  V30 21 1 21 22
M  V30 22 1 22 23
M  V30 23 1 23 24
M  V30 24 1 24 25
M  V30 25 2 16 2
M  V30 26 1 25 20
M  V30 27 1 12 6
M  V30 28 1 20 15
M  V30 29 1 1 26
M  V30 30 1 1 27
M  V30 31 1 1 28
M  V30 32 1 3 29
M  V30 33 1 5 30
M  V30 34 1 7 31
M  V30 35 1 8 32
M  V30 36 1 11 33
M  V30 37 1 11 34
M  V30 38 1 12 35
M  V30 39 1 19 36
M  V30 40 1 21 37
M  V30 41 1 21 38
M  V30 42 1 22 39
M  V30 43 1 22 40
M  V30 44 1 23 41
M  V30 45 1 23 42
M  V30 46 1 24 43
M  V30 47 1 24 44
M  V30 48 1 25 45
M  V30 49 1 25 46
M  V30 END BOND
M  V30 END CTAB
M  END
>  <Dataset>  (430) 
ChEMBL_Kinases

>  <Ligand_Instance>  (430) 
nan

>  <PDB_ID>  (430) 
nan

>  <Standardized_SMILES>  (430) 
Cc1cc(Nc2ccnc(N)c2)c(=O)n2c1C(=O)NC21CCCCC1

>  <Name>  (430) 
nan

>  <Pocket>  (430) 
nan

>  <ATP_Site>  (430) 
nan

>  <Peripheral>  (430) 
nan

>  <Num_H_Atoms_ProtBoundConf>  (430) 
nan

>  <Num_Resolved_Atoms>  (430) 
nan

>  <Num_Not_Resolved_Atoms>  (430) 
nan

$$$$
CHEMBL202887
     RDKit          3D

  0  0  0  0  0  0  0  0  0  0999 V3000
M  V30 BEGIN CTAB
M  V30 COUNTS 55 59 0 0 0
M  V30 BEGIN ATOM
M  V30 1 O 4.199651 -2.983942 1.396180 0
M  V30 2 C 3.577058 -1.941241 1.209875 0
M  V30 3 N 4.404717 -0.816641 0.868552 0
M  V30 4 C 5.820020 -0.815954 0.733219 0
M  V30 5 C 6.558580 -0.037016 1.784724 0
M  V30 6 C 6.915882 1.353395 1.309828 0
M  V30 7 O 6.144543 1.759165 0.232375 0
M  V30 8 C 6.393397 0.996924 -0.905532 0
M  V30 9 C 6.298948 -0.471081 -0.661828 0
M  V30 10 C 2.135904 -1.773317 1.306874 0
M  V30 11 C 1.400080 -2.892679 1.678581 0
M  V30 12 C 0.015511 -2.885789 1.809032 0
M  V30 13 C -0.628679 -1.670411 1.543122 0
M  V30 14 C -2.069878 -1.668615 1.684802 0
M  V30 15 C -2.860700 -0.567165 1.444555 0
M  V30 16 C -4.243414 -0.594510 1.574173 0
M  V30 17 C -5.122420 0.541852 1.310818 0
M  V30 18 C -5.656526 1.607774 2.023670 0
M  V30 19 N -6.420238 2.346722 1.229971 0
M  V30 20 N -6.408212 1.800378 0.009123 0
M  V30 21 C -5.622044 0.689574 0.018897 0
M  V30 22 C -5.372723 -0.170478 -1.161007 0
M  V30 23 C -4.842061 0.110455 -2.406861 0
M  V30 24 C -4.721090 -0.911486 -3.291982 0
M  V30 25 C -5.118577 -2.197942 -2.955655 0
M  V30 26 C -5.646770 -2.469421 -1.711083 0
M  V30 27 N -5.756462 -1.429230 -0.845297 0
M  V30 28 C -4.879843 -1.779286 1.964448 0
M  V30 29 C -4.040624 -2.840749 2.190158 0
M  V30 30 N -2.708255 -2.783186 2.055545 0
M  V30 31 C 0.115891 -0.571178 1.175390 0
M  V30 32 C 1.489909 -0.589086 1.049265 0
M  V30 33 H 4.043552 0.145070 0.679943 0
M  V30 34 H 6.154478 -1.883231 0.893257 0
M  V30 35 H 7.538283 -0.526334 2.043855 0
M  V30 36 H 6.015797 -0.005097 2.752953 0
M  V30 37 H 6.703313 2.044378 2.154128 0
M  V30 38 H 7.996774 1.450809 1.082717 0
M  V30 39 H 5.746448 1.295335 -1.752857 0
M  V30 40 H 7.426576 1.243630 -1.225790 0
M  V30 41 H 7.282861 -0.954959 -0.856852 0
M  V30 42 H 5.614726 -0.921395 -1.411053 0
M  V30 43 H 1.895007 -3.842514 1.886732 0
M  V30 44 H -0.489403 -3.795211 2.100906 0
M  V30 45 H -2.404756 0.365245 1.137886 0
M  V30 46 H -5.378854 1.674512 3.077516 0
M  V30 47 H -6.925309 3.206115 1.550895 0
M  V30 48 H -4.597193 1.161495 -2.471449 0
M  V30 49 H -4.293612 -0.611319 -4.249130 0
M  V30 50 H -4.968768 -2.922053 -3.751998 0
M  V30 51 H -5.941380 -3.482015 -1.498207 0
M  V30 52 H -5.956903 -1.818603 2.069936 0
M  V30 53 H -4.524138 -3.768895 2.494844 0
M  V30 54 H -0.380367 0.365589 0.973255 0
M  V30 55 H 2.036375 0.292677 0.761831 0
M  V30 END ATOM
M  V30 BEGIN BOND
M  V30 1 2 1 2
M  V30 2 1 2 3
M  V30 3 1 3 4
M  V30 4 1 4 5
M  V30 5 1 5 6
M  V30 6 1 6 7
M  V30 7 1 7 8
M  V30 8 1 8 9
M  V30 9 1 2 10
M  V30 10 2 10 11
M  V30 11 1 11 12
M  V30 12 2 12 13
M  V30 13 1 13 14
M  V30 14 2 14 15
M  V30 15 1 15 16
M  V30 16 1 16 17
M  V30 17 2 17 18
M  V30 18 1 18 19
M  V30 19 1 19 20
M  V30 20 2 20 21
M  V30 21 1 21 22
M  V30 22 2 22 23
M  V30 23 1 23 24
M  V30 24 2 24 25
M  V30 25 1 25 26
M  V30 26 2 26 27
M  V30 27 2 16 28
M  V30 28 1 28 29
M  V30 29 2 29 30
M  V30 30 1 13 31
M  V30 31 2 31 32
M  V30 32 1 9 4
M  V30 33 1 32 10
M  V30 34 1 30 14
M  V30 35 1 21 17
M  V30 36 1 27 22
M  V30 37 1 3 33
M  V30 38 1 4 34
M  V30 39 1 5 35
M  V30 40 1 5 36
M  V30 41 1 6 37
M  V30 42 1 6 38
M  V30 43 1 8 39
M  V30 44 1 8 40
M  V30 45 1 9 41
M  V30 46 1 9 42
M  V30 47 1 11 43
M  V30 48 1 12 44
M  V30 49 1 15 45
M  V30 50 1 18 46
M  V30 51 1 19 47
M  V30 52 1 23 48
M  V30 53 1 24 49
M  V30 54 1 25 50
M  V30 55 1 26 51
M  V30 56 1 28 52
M  V30 57 1 29 53
M  V30 58 1 31 54
M  V30 59 1 32 55
M  V30 END BOND
M  V30 END CTAB
M  END
>  <Dataset>  (431) 
ChEMBL_Kinases

>  <Ligand_Instance>  (431) 
nan

>  <PDB_ID>  (431) 
nan

>  <Standardized_SMILES>  (431) 
O=C(NC1CCOCC1)c1ccc(-c2cc(-c3c[nH]nc3-c3ccccn3)ccn2)cc1

>  <Name>  (431) 
nan

>  <Pocket>  (431) 
nan

>  <ATP_Site>  (431) 
nan

>  <Peripheral>  (431) 
nan

>  <Num_H_Atoms_ProtBoundConf>  (431) 
nan

>  <Num_Resolved_Atoms>  (431) 
nan

>  <Num_Not_Resolved_Atoms>  (431) 
nan

$$$$
CHEMBL4740767
     RDKit          3D

  0  0  0  0  0  0  0  0  0  0999 V3000
M  V30 BEGIN CTAB
M  V30 COUNTS 55 59 0 0 0
M  V30 BEGIN ATOM
M  V30 1 C 1.592687 -7.317445 1.083869 0
M  V30 2 C 1.735431 -5.970160 1.691569 0
M  V30 3 C 0.641429 -5.288209 2.197642 0
M  V30 4 C 0.928798 -4.050890 2.729486 0
M  V30 5 C 2.158180 -3.440624 2.806441 0
M  V30 6 N 2.416205 -2.165371 3.353580 0
M  V30 7 C 1.536138 -1.180827 3.929183 0
M  V30 8 C 0.598081 -0.628810 2.919914 0
M  V30 9 N 1.056886 0.418968 2.175291 0
M  V30 10 C 0.117844 0.836250 1.309523 0
M  V30 11 C 0.182743 1.920980 0.335439 0
M  V30 12 C -0.509184 3.115228 0.316540 0
M  V30 13 C -0.283401 3.994034 -0.722373 0
M  V30 14 C 0.603320 3.736983 -1.747583 0
M  V30 15 C 1.307829 2.524456 -1.731142 0
M  V30 16 C 2.087238 2.588311 -2.871772 0
M  V30 17 N 1.860767 3.750239 -3.513780 0
M  V30 18 N 0.960709 4.464025 -2.845756 0
M  V30 19 C 0.377992 5.783476 -3.119602 0
M  V30 20 C 1.081630 1.626641 -0.675718 0
M  V30 21 C -0.979794 0.041319 1.494207 0
M  V30 22 C -2.291898 0.005266 0.861088 0
M  V30 23 C -3.317120 0.925644 0.838966 0
M  V30 24 C -4.479401 0.643863 0.152380 0
M  V30 25 C -4.648219 -0.538295 -0.516822 0
M  V30 26 C -3.606264 -1.447826 -0.481251 0
M  V30 27 C -3.807272 -2.731491 -1.214854 0
M  V30 28 N -2.467933 -1.172702 0.190856 0
M  V30 29 N -0.651620 -0.823855 2.468211 0
M  V30 30 C 3.196767 -4.180976 2.282158 0
M  V30 31 C 2.999035 -5.424990 1.732158 0
M  V30 32 H 0.550496 -7.665220 1.092781 0
M  V30 33 H 2.021267 -7.239039 0.055371 0
M  V30 34 H 2.290292 -7.980755 1.666034 0
M  V30 35 H -0.346795 -5.701655 2.171342 0
M  V30 36 H 0.074349 -3.528204 3.128117 0
M  V30 37 H 3.425755 -1.853147 3.351891 0
M  V30 38 H 0.902045 -1.719800 4.695982 0
M  V30 39 H 2.085455 -0.379926 4.446176 0
M  V30 40 H -1.172081 3.242767 1.141703 0
M  V30 41 H -0.868537 4.923463 -0.671210 0
M  V30 42 H 2.754986 1.804061 -3.157680 0
M  V30 43 H 1.097374 6.344878 -3.729427 0
M  V30 44 H -0.632885 5.709534 -3.518229 0
M  V30 45 H 0.314109 6.330790 -2.133760 0
M  V30 46 H 1.695337 0.754960 -0.812204 0
M  V30 47 H -3.062691 1.811183 1.402592 0
M  V30 48 H -5.216197 1.436499 0.202132 0
M  V30 49 H -5.586346 -0.701880 -1.039580 0
M  V30 50 H -4.286511 -3.446213 -0.515273 0
M  V30 51 H -2.833835 -3.151374 -1.564282 0
M  V30 52 H -4.522159 -2.597225 -2.055065 0
M  V30 53 H -1.211868 -1.584250 2.902703 0
M  V30 54 H 4.216489 -3.793188 2.290174 0
M  V30 55 H 3.859430 -5.970409 1.329111 0
M  V30 END ATOM
M  V30 BEGIN BOND
M  V30 1 1 1 2
M  V30 2 2 2 3
M  V30 3 1 3 4
M  V30 4 2 4 5
M  V30 5 1 5 6
M  V30 6 1 6 7
M  V30 7 1 7 8
M  V30 8 2 8 9
M  V30 9 1 9 10
M  V30 10 1 10 11
M  V30 11 2 11 12
M  V30 12 1 12 13
M  V30 13 2 13 14
M  V30 14 1 14 15
M  V30 15 1 15 16
M  V30 16 2 16 17
M  V30 17 1 17 18
M  V30 18 1 18 19
M  V30 19 2 15 20
M  V30 20 2 10 21
M  V30 21 1 21 22
M  V30 22 2 22 23
M  V30 23 1 23 24
M  V30 24 2 24 25
M  V30 25 1 25 26
M  V30 26 1 26 27
M  V30 27 2 26 28
M  V30 28 1 21 29
M  V30 29 1 5 30
M  V30 30 2 30 31
M  V30 31 1 31 2
M  V30 32 1 29 8
M  V30 33 1 20 11
M  V30 34 1 28 22
M  V30 35 1 18 14
M  V30 36 1 1 32
M  V30 37 1 1 33
M  V30 38 1 1 34
M  V30 39 1 3 35
M  V30 40 1 4 36
M  V30 41 1 6 37
M  V30 42 1 7 38
M  V30 43 1 7 39
M  V30 44 1 12 40
M  V30 45 1 13 41
M  V30 46 1 16 42
M  V30 47 1 19 43
M  V30 48 1 19 44
M  V30 49 1 19 45
M  V30 50 1 20 46
M  V30 51 1 23 47
M  V30 52 1 24 48
M  V30 53 1 25 49
M  V30 54 1 27 50
M  V30 55 1 27 51
M  V30 56 1 27 52
M  V30 57 1 29 53
M  V30 58 1 30 54
M  V30 59 1 31 55
M  V30 END BOND
M  V30 END CTAB
M  END
>  <Dataset>  (432) 
ChEMBL_Kinases

>  <Ligand_Instance>  (432) 
nan

>  <PDB_ID>  (432) 
nan

>  <Standardized_SMILES>  (432) 
Cc1ccc(NCc2nc(-c3ccc4c(cnn4C)c3)c(-c3cccc(C)n3)[nH]2)cc1

>  <Name>  (432) 
nan

>  <Pocket>  (432) 
nan

>  <ATP_Site>  (432) 
nan

>  <Peripheral>  (432) 
nan

>  <Num_H_Atoms_ProtBoundConf>  (432) 
nan

>  <Num_Resolved_Atoms>  (432) 
nan

>  <Num_Not_Resolved_Atoms>  (432) 
nan

$$$$
CHEMBL202695
     RDKit          3D

  0  0  0  0  0  0  0  0  0  0999 V3000
M  V30 BEGIN CTAB
M  V30 COUNTS 56 59 0 0 0
M  V30 BEGIN ATOM
M  V30 1 C 0.991564 -4.518479 2.742223 0
M  V30 2 N 2.384682 -4.647730 3.155241 0
M  V30 3 C 2.685391 -3.716408 4.232317 0
M  V30 4 S 3.444075 -4.451487 1.799668 0
M  V30 5 O 3.109484 -5.526314 0.814383 0
M  V30 6 O 4.851755 -4.673176 2.288912 0
M  V30 7 C 3.259775 -2.838922 1.101043 0
M  V30 8 C 4.177108 -1.890869 1.465565 0
M  V30 9 C 4.000659 -0.628620 0.946702 0
M  V30 10 C 2.937413 -0.321685 0.089113 0
M  V30 11 N 2.803065 1.014210 -0.389757 0
M  V30 12 C 1.600577 1.292155 -1.095581 0
M  V30 13 C 0.488253 1.325343 -0.276415 0
M  V30 14 C -0.784002 1.595077 -0.800120 0
M  V30 15 N -1.900154 1.612273 0.080531 0
M  V30 16 C -3.282143 1.874069 -0.267828 0 CFG=1
M  V30 17 C -3.849557 0.917142 -1.273812 0
M  V30 18 C -4.330518 -0.383301 -0.696369 0
M  V30 19 C -3.717559 -0.648028 0.658824 0 CFG=2
M  V30 20 N -4.314548 -1.840335 1.223523 0
M  V30 21 C -3.937044 0.476614 1.622796 0
M  V30 22 C -4.169550 1.818810 0.960271 0
M  V30 23 N -0.854845 1.815295 -2.124391 0
M  V30 24 C 0.240024 1.782900 -2.935493 0
M  V30 25 N 0.418655 1.970447 -4.250391 0
M  V30 26 C 1.724717 1.829817 -4.537536 0
M  V30 27 N 2.350944 1.544479 -3.350762 0
M  V30 28 N 1.434398 1.523499 -2.402834 0
M  V30 29 C 2.051412 -1.327183 -0.236023 0
M  V30 30 C 2.205258 -2.601150 0.268935 0
M  V30 31 H 0.383689 -5.103505 3.450688 0
M  V30 32 H 0.813292 -4.926400 1.721999 0
M  V30 33 H 0.687195 -3.462327 2.869287 0
M  V30 34 H 2.447740 -2.681946 3.975163 0
M  V30 35 H 1.943918 -3.988068 5.040951 0
M  V30 36 H 3.678475 -3.908377 4.636135 0
M  V30 37 H 5.037758 -2.028779 2.121988 0
M  V30 38 H 4.689132 0.159473 1.191638 0
M  V30 39 H 3.560311 1.703525 -0.209979 0
M  V30 40 H 0.546849 1.141130 0.806690 0
M  V30 41 H -1.735381 1.417393 1.099215 0
M  V30 42 H -3.307888 2.897322 -0.735072 0
M  V30 43 H -4.772623 1.403574 -1.703095 0
M  V30 44 H -3.191533 0.763847 -2.172477 0
M  V30 45 H -4.003142 -1.197073 -1.375320 0
M  V30 46 H -5.434868 -0.466929 -0.612567 0
M  V30 47 H -2.646730 -0.883641 0.461399 0
M  V30 48 H -4.647463 -2.466258 0.453770 0
M  V30 49 H -3.560665 -2.358361 1.724613 0
M  V30 50 H -4.837622 0.282868 2.267439 0
M  V30 51 H -3.096787 0.521662 2.333564 0
M  V30 52 H -3.748475 2.584291 1.666798 0
M  V30 53 H -5.198330 2.014712 0.670771 0
M  V30 54 H 2.264779 1.907414 -5.489664 0
M  V30 55 H 1.228320 -1.104949 -0.893453 0
M  V30 56 H 1.504266 -3.404910 0.009630 0
M  V30 END ATOM
M  V30 BEGIN BOND
M  V30 1 1 1 2
M  V30 2 1 2 3
M  V30 3 1 2 4
M  V30 4 2 4 5
M  V30 5 2 4 6
M  V30 6 1 4 7
M  V30 7 2 7 8
M  V30 8 1 8 9
M  V30 9 2 9 10
M  V30 10 1 10 11
M  V30 11 1 11 12
M  V30 12 2 12 13
M  V30 13 1 13 14
M  V30 14 1 14 15
M  V30 15 1 15 16
M  V30 16 1 16 17
M  V30 17 1 17 18
M  V30 18 1 18 19
M  V30 19 1 19 20
M  V30 20 1 19 21
M  V30 21 1 21 22
M  V30 22 2 14 23
M  V30 23 1 23 24
M  V30 24 2 24 25
M  V30 25 1 25 26
M  V30 26 2 26 27
M  V30 27 1 27 28
M  V30 28 1 10 29
M  V30 29 2 29 30
M  V30 30 1 30 7
M  V30 31 1 28 12
M  V30 32 1 22 16
M  V30 33 1 28 24
M  V30 34 1 1 31
M  V30 35 1 1 32
M  V30 36 1 1 33
M  V30 37 1 3 34
M  V30 38 1 3 35
M  V30 39 1 3 36
M  V30 40 1 8 37
M  V30 41 1 9 38
M  V30 42 1 11 39
M  V30 43 1 13 40
M  V30 44 1 15 41
M  V30 45 1 16 42 CFG=3
M  V30 46 1 17 43
M  V30 47 1 17 44
M  V30 48 1 18 45
M  V30 49 1 18 46
M  V30 50 1 19 47 CFG=3
M  V30 51 1 20 48
M  V30 52 1 20 49
M  V30 53 1 21 50
M  V30 54 1 21 51
M  V30 55 1 22 52
M  V30 56 1 22 53
M  V30 57 1 26 54
M  V30 58 1 29 55
M  V30 59 1 30 56
M  V30 END BOND
M  V30 END CTAB
M  END
>  <Dataset>  (433) 
ChEMBL_Kinases

>  <Ligand_Instance>  (433) 
nan

>  <PDB_ID>  (433) 
nan

>  <Standardized_SMILES>  (433) 
CN(C)S(=O)(=O)c1ccc(Nc2cc(N[C@H]3CC[C@H](N)CC3)nc3ncnn23)cc1

>  <Name>  (433) 
nan

>  <Pocket>  (433) 
nan

>  <ATP_Site>  (433) 
nan

>  <Peripheral>  (433) 
nan

>  <Num_H_Atoms_ProtBoundConf>  (433) 
nan

>  <Num_Resolved_Atoms>  (433) 
nan

>  <Num_Not_Resolved_Atoms>  (433) 
nan

$$$$
CHEMBL4741081
     RDKit          3D

  0  0  0  0  0  0  0  0  0  0999 V3000
M  V30 BEGIN CTAB
M  V30 COUNTS 62 66 0 0 0
M  V30 BEGIN ATOM
M  V30 1 C 3.790923 -3.322457 6.321280 0
M  V30 2 C 2.716679 -2.389659 5.895718 0
M  V30 3 O 1.505353 -2.625496 6.234474 0
M  V30 4 N 2.984053 -1.231346 5.117415 0
M  V30 5 C 4.357954 -0.979968 4.729085 0
M  V30 6 C 4.480895 -0.823618 3.248473 0
M  V30 7 N 3.271740 -0.301166 2.641094 0
M  V30 8 C 3.282347 -0.171461 1.203405 0
M  V30 9 C 2.234209 0.456888 0.523138 0
M  V30 10 C 2.177468 0.597370 -0.866758 0
M  V30 11 N 0.999780 1.290365 -1.250692 0
M  V30 12 C -0.375919 0.927983 -1.256860 0
M  V30 13 C -1.026378 1.846270 -0.414771 0
M  V30 14 C -2.408982 1.757206 -0.196329 0
M  V30 15 C -3.169200 2.694152 0.687305 0
M  V30 16 C -3.091256 0.745670 -0.833739 0
M  V30 17 N -2.448324 -0.119352 -1.632999 0
M  V30 18 C -1.123692 -0.060516 -1.862900 0
M  V30 19 O -0.375472 -0.765220 -2.560760 0
M  V30 20 C -3.290264 -1.149100 -2.224694 0
M  V30 21 C -3.181894 -0.970956 -3.712561 0
M  V30 22 C -4.225010 -1.833553 -4.394308 0
M  V30 23 C -4.572346 -3.070773 -3.656262 0
M  V30 24 C -3.601179 -3.548379 -2.639261 0
M  V30 25 C -2.884795 -2.521579 -1.846123 0
M  V30 26 N -4.592747 -0.766295 -1.733294 0
M  V30 27 C -4.504068 0.358789 -0.866903 0
M  V30 28 O -5.363655 0.996488 -0.201506 0
M  V30 29 N 3.212535 0.083252 -1.550177 0
M  V30 30 C 4.240072 -0.531087 -0.895498 0
M  V30 31 N 4.297881 -0.668079 0.446667 0
M  V30 32 C 2.075386 0.086022 3.314701 0
M  V30 33 C 1.932306 -0.334886 4.730879 0
M  V30 34 H 4.334600 -3.646521 5.411073 0
M  V30 35 H 4.508414 -2.757053 6.979385 0
M  V30 36 H 3.382056 -4.204572 6.840626 0
M  V30 37 H 5.052193 -1.717313 5.146375 0
M  V30 38 H 4.619722 -0.002897 5.213275 0
M  V30 39 H 4.663552 -1.833374 2.807614 0
M  V30 40 H 5.367079 -0.198351 2.958858 0
M  V30 41 H 1.454326 0.832887 1.188444 0
M  V30 42 H 1.311818 2.250124 -1.586014 0
M  V30 43 H -0.622006 2.682186 0.145409 0
M  V30 44 H -2.434214 3.367769 1.194294 0
M  V30 45 H -3.748165 3.357658 0.016810 0
M  V30 46 H -3.837790 2.173335 1.382021 0
M  V30 47 H -3.279300 0.107670 -3.974301 0
M  V30 48 H -2.190318 -1.372653 -4.010564 0
M  V30 49 H -3.958972 -2.066234 -5.436363 0
M  V30 50 H -5.142616 -1.177605 -4.443249 0
M  V30 51 H -5.619314 -2.994756 -3.257740 0
M  V30 52 H -4.684828 -3.893348 -4.438536 0
M  V30 53 H -2.866823 -4.224834 -3.177389 0
M  V30 54 H -4.153408 -4.272925 -1.964750 0
M  V30 55 H -1.783140 -2.601463 -2.084695 0
M  V30 56 H -2.924373 -2.717067 -0.750933 0
M  V30 57 H -5.580880 -1.104881 -1.853967 0
M  V30 58 H 5.004541 -0.895710 -1.541483 0
M  V30 59 H 1.233211 -0.423446 2.752346 0
M  V30 60 H 1.882044 1.197934 3.291753 0
M  V30 61 H 0.952901 -0.863014 4.930350 0
M  V30 62 H 1.934108 0.520704 5.447820 0
M  V30 END ATOM
M  V30 BEGIN BOND
M  V30 1 1 1 2
M  V30 2 2 2 3
M  V30 3 1 2 4
M  V30 4 1 4 5
M  V30 5 1 5 6
M  V30 6 1 6 7
M  V30 7 1 7 8
M  V30 8 2 8 9
M  V30 9 1 9 10
M  V30 10 1 10 11
M  V30 11 1 11 12
M  V30 12 2 12 13
M  V30 13 1 13 14
M  V30 14 1 14 15
M  V30 15 2 14 16
M  V30 16 1 16 17
M  V30 17 1 17 18
M  V30 18 2 18 19
M  V30 19 1 17 20
M  V30 20 1 20 21
M  V30 21 1 21 22
M  V30 22 1 22 23
M  V30 23 1 23 24
M  V30 24 1 24 25
M  V30 25 1 20 26
M  V30 26 1 26 27
M  V30 27 2 27 28
M  V30 28 2 10 29
M  V30 29 1 29 30
M  V30 30 2 30 31
M  V30 31 1 7 32
M  V30 32 1 32 33
M  V30 33 1 33 4
M  V30 34 1 31 8
M  V30 35 1 18 12
M  V30 36 1 25 20
M  V30 37 1 27 16
M  V30 38 1 1 34
M  V30 39 1 1 35
M  V30 40 1 1 36
M  V30 41 1 5 37
M  V30 42 1 5 38
M  V30 43 1 6 39
M  V30 44 1 6 40
M  V30 45 1 9 41
M  V30 46 1 11 42
M  V30 47 1 13 43
M  V30 48 1 15 44
M  V30 49 1 15 45
M  V30 50 1 15 46
M  V30 51 1 21 47
M  V30 52 1 21 48
M  V30 53 1 22 49
M  V30 54 1 22 50
M  V30 55 1 23 51
M  V30 56 1 23 52
M  V30 57 1 24 53
M  V30 58 1 24 54
M  V30 59 1 25 55
M  V30 60 1 25 56
M  V30 61 1 26 57
M  V30 62 1 30 58
M  V30 63 1 32 59
M  V30 64 1 32 60
M  V30 65 1 33 61
M  V30 66 1 33 62
M  V30 END BOND
M  V30 END CTAB
M  END
>  <Dataset>  (434) 
ChEMBL_Kinases

>  <Ligand_Instance>  (434) 
nan

>  <PDB_ID>  (434) 
nan

>  <Standardized_SMILES>  (434) 
CC(=O)N1CCN(c2cc(Nc3cc(C)c4n(c3=O)C3(CCCCC3)NC4=O)ncn2)CC1

>  <Name>  (434) 
nan

>  <Pocket>  (434) 
nan

>  <ATP_Site>  (434) 
nan

>  <Peripheral>  (434) 
nan

>  <Num_H_Atoms_ProtBoundConf>  (434) 
nan

>  <Num_Resolved_Atoms>  (434) 
nan

>  <Num_Not_Resolved_Atoms>  (434) 
nan

$$$$
CHEMBL4741111
     RDKit          3D

  0  0  0  0  0  0  0  0  0  0999 V3000
M  V30 BEGIN CTAB
M  V30 COUNTS 47 50 0 0 0
M  V30 BEGIN ATOM
M  V30 1 C 1.365315 -6.816350 -1.308533 0
M  V30 2 C 0.688317 -5.625428 -0.757645 0
M  V30 3 C 1.025778 -4.387655 -1.243956 0
M  V30 4 C 0.353276 -3.322622 -0.683049 0
M  V30 5 N 0.667966 -2.018438 -1.154337 0
M  V30 6 C 0.203237 -0.714786 -0.824000 0
M  V30 7 C -0.399420 0.112920 -1.745052 0
M  V30 8 C -0.859210 1.376203 -1.461153 0
M  V30 9 C -1.500245 2.219493 -2.498887 0
M  V30 10 C -0.696346 1.819388 -0.170903 0
M  V30 11 N -0.115140 1.058625 0.775848 0
M  V30 12 C 0.321164 -0.171475 0.457493 0
M  V30 13 O 0.869251 -0.873193 1.374616 0
M  V30 14 C -0.065796 1.766869 2.062955 0
M  V30 15 C 1.383310 1.957825 2.382827 0
M  V30 16 C 1.696293 2.224926 3.809483 0
M  V30 17 C 0.826805 1.538175 4.801082 0
M  V30 18 C -0.115720 0.526188 4.257730 0
M  V30 19 C -0.876251 1.093067 3.107930 0
M  V30 20 N -0.688797 3.043197 1.768207 0
M  V30 21 C -1.086423 3.103991 0.402552 0
M  V30 22 O -1.650414 4.091374 -0.127021 0
M  V30 23 C -0.602798 -3.445540 0.303587 0
M  V30 24 C -0.864065 -4.734917 0.718368 0
M  V30 25 N -0.243130 -5.815345 0.211699 0
M  V30 26 H 0.704321 -7.712894 -1.225128 0
M  V30 27 H 1.654429 -6.694261 -2.367920 0
M  V30 28 H 2.271634 -7.064624 -0.717990 0
M  V30 29 H 1.768756 -4.278916 -2.012218 0
M  V30 30 H 1.376701 -1.846238 -1.902604 0
M  V30 31 H -0.526735 -0.247095 -2.774813 0
M  V30 32 H -1.914373 1.583188 -3.308761 0
M  V30 33 H -0.754811 2.941974 -2.871713 0
M  V30 34 H -2.329163 2.795286 -2.018167 0
M  V30 35 H 2.023477 1.125360 1.993833 0
M  V30 36 H 1.732440 2.846223 1.806513 0
M  V30 37 H 1.735529 3.319234 4.013681 0
M  V30 38 H 2.755521 1.881159 3.995577 0
M  V30 39 H 1.424947 1.024302 5.604217 0
M  V30 40 H 0.224339 2.305009 5.353768 0
M  V30 41 H -0.863501 0.320559 5.074895 0
M  V30 42 H 0.342962 -0.463696 4.061884 0
M  V30 43 H -1.674136 1.764182 3.538202 0
M  V30 44 H -1.457073 0.254027 2.628903 0
M  V30 45 H -0.787989 3.763755 2.529448 0
M  V30 46 H -1.143087 -2.641972 0.759986 0
M  V30 47 H -1.611061 -4.925321 1.500161 0
M  V30 END ATOM
M  V30 BEGIN BOND
M  V30 1 1 1 2
M  V30 2 2 2 3
M  V30 3 1 3 4
M  V30 4 1 4 5
M  V30 5 1 5 6
M  V30 6 2 6 7
M  V30 7 1 7 8
M  V30 8 1 8 9
M  V30 9 2 8 10
M  V30 10 1 10 11
M  V30 11 1 11 12
M  V30 12 2 12 13
M  V30 13 1 11 14
M  V30 14 1 14 15
M  V30 15 1 15 16
M  V30 16 1 16 17
M  V30 17 1 17 18
M  V30 18 1 18 19
M  V30 19 1 14 20
M  V30 20 1 20 21
M  V30 21 2 21 22
M  V30 22 2 4 23
M  V30 23 1 23 24
M  V30 24 2 24 25
M  V30 25 1 25 2
M  V30 26 1 12 6
M  V30 27 1 19 14
M  V30 28 1 21 10
M  V30 29 1 1 26
M  V30 30 1 1 27
M  V30 31 1 1 28
M  V30 32 1 3 29
M  V30 33 1 5 30
M  V30 34 1 7 31
M  V30 35 1 9 32
M  V30 36 1 9 33
M  V30 37 1 9 34
M  V30 38 1 15 35
M  V30 39 1 15 36
M  V30 40 1 16 37
M  V30 41 1 16 38
M  V30 42 1 17 39
M  V30 43 1 17 40
M  V30 44 1 18 41
M  V30 45 1 18 42
M  V30 46 1 19 43
M  V30 47 1 19 44
M  V30 48 1 20 45
M  V30 49 1 23 46
M  V30 50 1 24 47
M  V30 END BOND
M  V30 END CTAB
M  END
>  <Dataset>  (435) 
ChEMBL_Kinases

>  <Ligand_Instance>  (435) 
nan

>  <PDB_ID>  (435) 
nan

>  <Standardized_SMILES>  (435) 
Cc1cc(Nc2cc(C)c3n(c2=O)C2(CCCCC2)NC3=O)ccn1

>  <Name>  (435) 
nan

>  <Pocket>  (435) 
nan

>  <ATP_Site>  (435) 
nan

>  <Peripheral>  (435) 
nan

>  <Num_H_Atoms_ProtBoundConf>  (435) 
nan

>  <Num_Resolved_Atoms>  (435) 
nan

>  <Num_Not_Resolved_Atoms>  (435) 
nan

$$$$
CHEMBL4741185
     RDKit          3D

  0  0  0  0  0  0  0  0  0  0999 V3000
M  V30 BEGIN CTAB
M  V30 COUNTS 38 40 0 0 0
M  V30 BEGIN ATOM
M  V30 1 C -1.228065 -4.592661 2.764962 0
M  V30 2 C -0.302749 -4.633357 1.583945 0
M  V30 3 C 0.451256 -3.389474 1.352003 0
M  V30 4 C 1.778932 -3.144959 1.635880 0
M  V30 5 N 2.366356 -1.962605 1.380354 0
M  V30 6 N 3.603319 -1.548352 1.579297 0
M  V30 7 C 3.737717 -0.265740 1.162116 0
M  V30 8 C 2.514121 0.147146 0.673646 0
M  V30 9 C 1.986075 1.397683 0.084281 0
M  V30 10 C 2.594727 2.176297 -0.878470 0
M  V30 11 C 1.953917 3.308931 -1.309176 0
M  V30 12 N 0.759435 3.699120 -0.838663 0
M  V30 13 C 0.104783 2.992968 0.099651 0
M  V30 14 O -1.138049 3.305391 0.658334 0
M  V30 15 C -1.837832 4.464410 0.245180 0
M  V30 16 C 0.743162 1.841607 0.545757 0
M  V30 17 C 1.665548 -0.955873 0.827457 0
M  V30 18 N 0.364810 -1.173636 0.541531 0
M  V30 19 C -0.249624 -2.344516 0.785537 0
M  V30 20 N -1.625105 -2.424623 0.430448 0
M  V30 21 C -2.520607 -1.452435 -0.165703 0
M  V30 22 H -1.517023 -3.560304 3.059470 0
M  V30 23 H -2.163111 -5.164256 2.592375 0
M  V30 24 H -0.676182 -5.105209 3.601785 0
M  V30 25 H 0.456625 -5.463054 1.671450 0
M  V30 26 H -0.912494 -4.920340 0.694891 0
M  V30 27 H 2.319363 -3.972444 2.081085 0
M  V30 28 H 4.563011 0.435242 1.144339 0
M  V30 29 H 3.562190 1.809898 -1.222094 0
M  V30 30 H 2.457040 3.897844 -2.064802 0
M  V30 31 H -2.872145 4.195645 -0.117454 0
M  V30 32 H -1.263298 5.020391 -0.509886 0
M  V30 33 H -1.927480 5.141653 1.141972 0
M  V30 34 H 0.243655 1.249611 1.301335 0
M  V30 35 H -2.178169 -3.318792 0.596399 0
M  V30 36 H -2.939033 -1.834783 -1.138555 0
M  V30 37 H -3.365851 -1.185885 0.511557 0
M  V30 38 H -2.034505 -0.491673 -0.420054 0
M  V30 END ATOM
M  V30 BEGIN BOND
M  V30 1 1 1 2
M  V30 2 1 2 3
M  V30 3 2 3 4
M  V30 4 1 4 5
M  V30 5 1 5 6
M  V30 6 2 6 7
M  V30 7 1 7 8
M  V30 8 1 8 9
M  V30 9 2 9 10
M  V30 10 1 10 11
M  V30 11 2 11 12
M  V30 12 1 12 13
M  V30 13 1 13 14
M  V30 14 1 14 15
M  V30 15 2 13 16
M  V30 16 2 8 17
M  V30 17 1 17 18
M  V30 18 2 18 19
M  V30 19 1 19 20
M  V30 20 1 20 21
M  V30 21 1 19 3
M  V30 22 1 17 5
M  V30 23 1 16 9
M  V30 24 1 1 22
M  V30 25 1 1 23
M  V30 26 1 1 24
M  V30 27 1 2 25
M  V30 28 1 2 26
M  V30 29 1 4 27
M  V30 30 1 7 28
M  V30 31 1 10 29
M  V30 32 1 11 30
M  V30 33 1 15 31
M  V30 34 1 15 32
M  V30 35 1 15 33
M  V30 36 1 16 34
M  V30 37 1 20 35
M  V30 38 1 21 36
M  V30 39 1 21 37
M  V30 40 1 21 38
M  V30 END BOND
M  V30 END CTAB
M  END
>  <Dataset>  (436) 
ChEMBL_Kinases

>  <Ligand_Instance>  (436) 
nan

>  <PDB_ID>  (436) 
nan

>  <Standardized_SMILES>  (436) 
CCc1cn2ncc(-c3ccnc(OC)c3)c2nc1NC

>  <Name>  (436) 
nan

>  <Pocket>  (436) 
nan

>  <ATP_Site>  (436) 
nan

>  <Peripheral>  (436) 
nan

>  <Num_H_Atoms_ProtBoundConf>  (436) 
nan

>  <Num_Resolved_Atoms>  (436) 
nan

>  <Num_Not_Resolved_Atoms>  (436) 
nan

$$$$
CHEMBL536520
     RDKit          3D

  0  0  0  0  0  0  0  0  0  0999 V3000
M  V30 BEGIN CTAB
M  V30 COUNTS 42 45 0 0 0
M  V30 BEGIN ATOM
M  V30 1 C 0.094058 -6.145890 1.033234 0
M  V30 2 N 1.396886 -6.064503 0.491039 0
M  V30 3 C 2.314114 -5.146940 1.046774 0
M  V30 4 C 2.065500 -3.697711 0.843516 0
M  V30 5 N 0.816419 -3.275320 1.423927 0
M  V30 6 C 0.521583 -1.876145 1.207970 0
M  V30 7 N 1.362510 -1.048589 0.521699 0
M  V30 8 C 1.116710 0.249175 0.310243 0
M  V30 9 C 2.036101 0.993762 -0.395704 0
M  V30 10 C 1.745849 2.323277 -0.590520 0
M  V30 11 C 2.692737 3.030310 -1.301151 0
M  V30 12 C 2.452120 4.373227 -1.526682 0
M  V30 13 C 1.312828 5.019652 -1.070593 0
M  V30 14 C 0.401822 4.261486 -0.366056 0
M  V30 15 C 0.578747 2.912628 -0.104024 0
M  V30 16 C -0.299209 2.102866 0.596857 0
M  V30 17 C -0.049921 0.772570 0.814511 0
M  V30 18 N -0.934470 0.040794 1.498897 0
M  V30 19 C -2.107014 0.353905 2.062265 0
M  V30 20 C -2.878578 1.604012 2.153918 0
M  V30 21 C -2.497822 -0.876249 2.606986 0
M  V30 22 N -1.614058 -1.844037 2.378211 0
M  V30 23 C -0.615249 -1.248835 1.667841 0
M  V30 24 H 0.053955 -6.112623 2.141390 0
M  V30 25 H -0.296800 -7.189712 0.799523 0
M  V30 26 H -0.671030 -5.482513 0.557018 0
M  V30 27 H 1.806223 -6.993260 0.358282 0
M  V30 28 H 3.317755 -5.373307 0.561801 0
M  V30 29 H 2.493569 -5.394759 2.138259 0
M  V30 30 H 2.869911 -3.085435 1.352151 0
M  V30 31 H 2.127751 -3.379746 -0.218238 0
M  V30 32 H 0.081943 -3.763939 1.973377 0
M  V30 33 H 2.921008 0.503573 -0.754818 0
M  V30 34 H 3.592440 2.582319 -1.677099 0
M  V30 35 H 3.156037 4.998086 -2.083321 0
M  V30 36 H 1.118414 6.069217 -1.243573 0
M  V30 37 H -0.517837 4.716685 0.020518 0
M  V30 38 H -1.139621 2.680408 0.904758 0
M  V30 39 H -2.421898 2.391902 2.788947 0
M  V30 40 H -3.816681 1.344822 2.742580 0
M  V30 41 H -3.304450 1.966429 1.196523 0
M  V30 42 H -3.417462 -1.084138 3.170474 0
M  V30 END ATOM
M  V30 BEGIN BOND
M  V30 1 1 1 2
M  V30 2 1 2 3
M  V30 3 1 3 4
M  V30 4 1 4 5
M  V30 5 1 5 6
M  V30 6 2 6 7
M  V30 7 1 7 8
M  V30 8 2 8 9
M  V30 9 1 9 10
M  V30 10 2 10 11
M  V30 11 1 11 12
M  V30 12 2 12 13
M  V30 13 1 13 14
M  V30 14 2 14 15
M  V30 15 1 15 16
M  V30 16 2 16 17
M  V30 17 1 17 18
M  V30 18 1 18 19
M  V30 19 1 19 20
M  V30 20 2 19 21
M  V30 21 1 21 22
M  V30 22 2 22 23
M  V30 23 1 23 6
M  V30 24 1 17 8
M  V30 25 1 23 18
M  V30 26 1 15 10
M  V30 27 1 1 24
M  V30 28 1 1 25
M  V30 29 1 1 26
M  V30 30 1 2 27
M  V30 31 1 3 28
M  V30 32 1 3 29
M  V30 33 1 4 30
M  V30 34 1 4 31
M  V30 35 1 5 32
M  V30 36 1 9 33
M  V30 37 1 11 34
M  V30 38 1 12 35
M  V30 39 1 13 36
M  V30 40 1 14 37
M  V30 41 1 16 38
M  V30 42 1 20 39
M  V30 43 1 20 40
M  V30 44 1 20 41
M  V30 45 1 21 42
M  V30 END BOND
M  V30 END CTAB
M  END
>  <Dataset>  (437) 
ChEMBL_Kinases

>  <Ligand_Instance>  (437) 
nan

>  <PDB_ID>  (437) 
nan

>  <Standardized_SMILES>  (437) 
CNCCNc1nc2cc3ccccc3cc2n2c(C)cnc12

>  <Name>  (437) 
nan

>  <Pocket>  (437) 
nan

>  <ATP_Site>  (437) 
nan

>  <Peripheral>  (437) 
nan

>  <Num_H_Atoms_ProtBoundConf>  (437) 
nan

>  <Num_Resolved_Atoms>  (437) 
nan

>  <Num_Not_Resolved_Atoms>  (437) 
nan

$$$$
CHEMBL4740450
     RDKit          3D

  0  0  0  0  0  0  0  0  0  0999 V3000
M  V30 BEGIN CTAB
M  V30 COUNTS 52 56 0 0 0
M  V30 BEGIN ATOM
M  V30 1 C 0.694752 0.929253 3.816139 0
M  V30 2 N 1.911444 1.019164 4.560164 0
M  V30 3 C 2.823414 1.996803 4.037485 0
M  V30 4 C 3.470969 1.533523 2.764876 0
M  V30 5 C 4.919835 1.189061 3.136673 0
M  V30 6 C 4.800998 -0.224299 3.686550 0
M  V30 7 C 3.348798 -0.625227 3.486691 0
M  V30 8 C 2.577750 -0.246781 4.710835 0
M  V30 9 N 2.989596 0.243588 2.382345 0
M  V30 10 C 2.305768 -0.252744 1.241543 0
M  V30 11 O 2.169032 -1.491753 1.526065 0
M  V30 12 N 1.897625 0.474622 0.100259 0
M  V30 13 C 1.235628 -0.377498 -0.836354 0
M  V30 14 C -0.134073 -0.519840 -0.724392 0
M  V30 15 C -0.774546 -1.345941 -1.631868 0
M  V30 16 C -2.141994 -1.549587 -1.598184 0
M  V30 17 C -2.823406 -2.366368 -2.485319 0
M  V30 18 C -4.288262 -2.491255 -2.331581 0
M  V30 19 C -5.129839 -3.539318 -2.603568 0
M  V30 20 N -6.373313 -3.129146 -2.282733 0
M  V30 21 N -6.383999 -1.899530 -1.827554 0
M  V30 22 C -7.601628 -1.227559 -1.413682 0
M  V30 23 C -5.089900 -1.476491 -1.847866 0
M  V30 24 C -2.101822 -3.010448 -3.452829 0
M  V30 25 C -0.727684 -2.848122 -3.540256 0
M  V30 26 C -0.068427 -2.018117 -2.631757 0
M  V30 27 C 1.304421 -1.841693 -2.701397 0
M  V30 28 N 1.925656 -1.034005 -1.813100 0
M  V30 29 H -0.190691 1.293529 4.384118 0
M  V30 30 H 0.448571 -0.101973 3.460997 0
M  V30 31 H 0.785619 1.564567 2.918161 0
M  V30 32 H 2.290444 2.952897 3.800441 0
M  V30 33 H 3.563714 2.270013 4.826350 0
M  V30 34 H 3.428748 2.290798 1.960148 0
M  V30 35 H 5.291134 1.868525 3.941098 0
M  V30 36 H 5.575044 1.200601 2.255160 0
M  V30 37 H 5.425610 -0.942511 3.119991 0
M  V30 38 H 5.074520 -0.263772 4.754120 0
M  V30 39 H 3.259350 -1.707811 3.242154 0
M  V30 40 H 3.241671 -0.176640 5.598808 0
M  V30 41 H 1.846910 -1.056409 4.931818 0
M  V30 42 H 2.156583 1.483891 0.161993 0
M  V30 43 H -0.696240 -0.005818 0.044878 0
M  V30 44 H -2.659702 -1.004643 -0.799342 0
M  V30 45 H -4.796369 -4.491938 -3.000693 0
M  V30 46 H -7.984148 -1.681762 -0.470263 0
M  V30 47 H -8.335899 -1.241951 -2.235964 0
M  V30 48 H -7.363756 -0.162202 -1.177584 0
M  V30 49 H -4.827701 -0.478082 -1.515269 0
M  V30 50 H -2.623614 -3.650531 -4.150797 0
M  V30 51 H -0.170595 -3.375196 -4.324896 0
M  V30 52 H 1.888341 -2.350413 -3.468924 0
M  V30 END ATOM
M  V30 BEGIN BOND
M  V30 1 1 1 2
M  V30 2 1 2 3
M  V30 3 1 3 4
M  V30 4 1 4 5
M  V30 5 1 5 6
M  V30 6 1 6 7
M  V30 7 1 7 8
M  V30 8 1 7 9
M  V30 9 1 9 10
M  V30 10 2 10 11
M  V30 11 1 10 12
M  V30 12 1 12 13
M  V30 13 2 13 14
M  V30 14 1 14 15
M  V30 15 2 15 16
M  V30 16 1 16 17
M  V30 17 1 17 18
M  V30 18 1 18 19
M  V30 19 2 19 20
M  V30 20 1 20 21
M  V30 21 1 21 22
M  V30 22 1 21 23
M  V30 23 2 17 24
M  V30 24 1 24 25
M  V30 25 2 25 26
M  V30 26 1 26 27
M  V30 27 2 27 28
M  V30 28 1 8 2
M  V30 29 1 28 13
M  V30 30 1 9 4
M  V30 31 1 26 15
M  V30 32 2 23 18
M  V30 33 1 1 29
M  V30 34 1 1 30
M  V30 35 1 1 31
M  V30 36 1 3 32
M  V30 37 1 3 33
M  V30 38 1 4 34
M  V30 39 1 5 35
M  V30 40 1 5 36
M  V30 41 1 6 37
M  V30 42 1 6 38
M  V30 43 1 7 39
M  V30 44 1 8 40
M  V30 45 1 8 41
M  V30 46 1 12 42
M  V30 47 1 14 43
M  V30 48 1 16 44
M  V30 49 1 19 45
M  V30 50 1 22 46
M  V30 51 1 22 47
M  V30 52 1 22 48
M  V30 53 1 23 49
M  V30 54 1 24 50
M  V30 55 1 25 51
M  V30 56 1 27 52
M  V30 END BOND
M  V30 END CTAB
M  END
>  <Dataset>  (438) 
ChEMBL_Kinases

>  <Ligand_Instance>  (438) 
nan

>  <PDB_ID>  (438) 
nan

>  <Standardized_SMILES>  (438) 
CN1CC2CCC(C1)N2C(=O)Nc1cc2cc(-c3cnn(C)c3)ccc2cn1

>  <Name>  (438) 
nan

>  <Pocket>  (438) 
nan

>  <ATP_Site>  (438) 
nan

>  <Peripheral>  (438) 
nan

>  <Num_H_Atoms_ProtBoundConf>  (438) 
nan

>  <Num_Resolved_Atoms>  (438) 
nan

>  <Num_Not_Resolved_Atoms>  (438) 
nan

$$$$
CHEMBL555689
     RDKit          3D

  0  0  0  0  0  0  0  0  0  0999 V3000
M  V30 BEGIN CTAB
M  V30 COUNTS 31 33 0 0 0
M  V30 BEGIN ATOM
M  V30 1 C -0.748371 -1.588253 3.956302 0
M  V30 2 C -1.311776 -2.114508 2.641902 0
M  V30 3 N -0.529831 -1.476227 1.586627 0
M  V30 4 N 0.561054 -2.026768 1.123766 0
M  V30 5 C 1.321401 -1.477721 0.147790 0
M  V30 6 C 2.490030 -2.186475 -0.264718 0
M  V30 7 C 2.717508 -3.377207 -0.881702 0
M  V30 8 C 3.962124 -3.822210 -1.163080 0
M  V30 9 C 5.000729 -2.950610 -0.764249 0
M  V30 10 S 4.125584 -1.526424 0.000118 0
M  V30 11 N 1.008068 -0.292190 -0.438906 0
M  V30 12 C -0.104863 0.334285 -0.012085 0
M  V30 13 C -0.593913 1.532185 -0.470766 0
M  V30 14 O 0.069158 2.100913 -1.384865 0
M  V30 15 N -1.717677 2.053442 0.038185 0
M  V30 16 C -2.187687 3.329683 -0.490178 0
M  V30 17 C -2.443306 1.471868 1.009940 0
M  V30 18 O -3.502163 1.967451 1.486393 0
M  V30 19 N -2.000753 0.307501 1.481299 0
M  V30 20 C -0.898257 -0.298960 1.048571 0
M  V30 21 H -1.387030 -1.952723 4.767004 0
M  V30 22 H -0.657750 -0.497008 3.871687 0
M  V30 23 H 0.283899 -2.022624 4.040350 0
M  V30 24 H -2.372527 -1.836771 2.610060 0
M  V30 25 H -1.155606 -3.205349 2.585141 0
M  V30 26 H 1.800009 -3.930238 -1.123440 0
M  V30 27 H 4.152870 -4.766613 -1.652886 0
M  V30 28 H 6.118903 -3.269208 -0.975647 0
M  V30 29 H -1.330866 4.045605 -0.443022 0
M  V30 30 H -3.018611 3.736834 0.122848 0
M  V30 31 H -2.495713 3.214008 -1.536974 0
M  V30 END ATOM
M  V30 BEGIN BOND
M  V30 1 1 1 2
M  V30 2 1 2 3
M  V30 3 1 3 4
M  V30 4 2 4 5
M  V30 5 1 5 6
M  V30 6 2 6 7
M  V30 7 1 7 8
M  V30 8 2 8 9
M  V30 9 1 9 10
M  V30 10 1 5 11
M  V30 11 2 11 12
M  V30 12 1 12 13
M  V30 13 2 13 14
M  V30 14 1 13 15
M  V30 15 1 15 16
M  V30 16 1 15 17
M  V30 17 2 17 18
M  V30 18 1 17 19
M  V30 19 2 19 20
M  V30 20 1 20 3
M  V30 21 1 10 6
M  V30 22 1 20 12
M  V30 23 1 1 21
M  V30 24 1 1 22
M  V30 25 1 1 23
M  V30 26 1 2 24
M  V30 27 1 2 25
M  V30 28 1 7 26
M  V30 29 1 8 27
M  V30 30 1 9 28
M  V30 31 1 16 29
M  V30 32 1 16 30
M  V30 33 1 16 31
M  V30 END BOND
M  V30 END CTAB
M  END
>  <Dataset>  (439) 
ChEMBL_Kinases

>  <Ligand_Instance>  (439) 
nan

>  <PDB_ID>  (439) 
nan

>  <Standardized_SMILES>  (439) 
CCn1nc(-c2cccs2)nc2c(=O)n(C)c(=O)nc1-2

>  <Name>  (439) 
nan

>  <Pocket>  (439) 
nan

>  <ATP_Site>  (439) 
nan

>  <Peripheral>  (439) 
nan

>  <Num_H_Atoms_ProtBoundConf>  (439) 
nan

>  <Num_Resolved_Atoms>  (439) 
nan

>  <Num_Not_Resolved_Atoms>  (439) 
nan

$$$$
CHEMBL472521
     RDKit          3D

  0  0  0  0  0  0  0  0  0  0999 V3000
M  V30 BEGIN CTAB
M  V30 COUNTS 58 61 0 0 0
M  V30 BEGIN ATOM
M  V30 1 C 7.929737 0.260241 4.273096 0
M  V30 2 N 6.545191 0.455411 4.701355 0
M  V30 3 C 6.216037 0.797079 6.060952 0
M  V30 4 C 5.504664 0.298539 3.727299 0
M  V30 5 C 4.173608 0.482603 4.128352 0
M  V30 6 C 3.184221 0.328633 3.179800 0
M  V30 7 C 3.495615 0.003680 1.876626 0
M  V30 8 C 2.414093 -0.146462 0.908298 0
M  V30 9 O 2.499396 -0.439419 -0.312162 0
M  V30 10 O 1.077783 0.021678 1.220793 0
M  V30 11 C 0.012746 -0.112758 0.321737 0
M  V30 12 C -1.301631 0.144649 1.041696 0
M  V30 13 C -1.364958 1.594792 1.424475 0
M  V30 14 O -2.607317 1.932747 1.956030 0
M  V30 15 C -2.440993 -0.095460 0.049141 0
M  V30 16 C -2.750460 -1.505734 0.307012 0
M  V30 17 C -3.426456 -2.411857 -0.375590 0
M  V30 18 C -4.035843 -2.069934 -1.655477 0
M  V30 19 C -4.646280 -0.929682 -2.080243 0
M  V30 20 N -5.066238 -1.074389 -3.371711 0
M  V30 21 C -5.758573 -0.130951 -4.232423 0
M  V30 22 C -4.738156 -2.315356 -3.819373 0
M  V30 23 C -4.897391 -3.015496 -5.004268 0
M  V30 24 C -4.420508 -4.296272 -5.093671 0
M  V30 25 C -3.778356 -4.966768 -4.078618 0
M  V30 26 C -3.639859 -4.227860 -2.907765 0
M  V30 27 C -4.095347 -2.935790 -2.748783 0
M  V30 28 C -2.149477 -1.859415 1.578897 0
M  V30 29 O -2.120920 -2.949332 2.238535 0
M  V30 30 O -1.512553 -0.745670 2.096183 0
M  V30 31 C 4.798190 -0.180825 1.465904 0
M  V30 32 C 5.822357 -0.030477 2.410327 0
M  V30 33 H 8.655311 0.598273 5.009689 0
M  V30 34 H 8.037513 -0.794860 3.948452 0
M  V30 35 H 8.087647 0.873978 3.363205 0
M  V30 36 H 5.651267 0.019403 6.599768 0
M  V30 37 H 7.168512 1.078961 6.569084 0
M  V30 38 H 5.563959 1.715738 6.119927 0
M  V30 39 H 3.933781 0.737403 5.151612 0
M  V30 40 H 2.168978 0.477609 3.520227 0
M  V30 41 H -0.065350 -1.098392 -0.142873 0
M  V30 42 H 0.050460 0.644905 -0.493601 0
M  V30 43 H -1.184991 2.184905 0.508533 0
M  V30 44 H -0.564060 1.794750 2.134232 0
M  V30 45 H -2.559253 2.834549 2.350343 0
M  V30 46 H -2.038347 0.111341 -0.950785 0
M  V30 47 H -3.319361 0.546750 0.302334 0
M  V30 48 H -3.568530 -3.443679 -0.035964 0
M  V30 49 H -4.782768 -0.049915 -1.501592 0
M  V30 50 H -5.406634 -0.241412 -5.256287 0
M  V30 51 H -5.495374 0.923363 -3.933062 0
M  V30 52 H -6.852934 -0.194565 -4.082127 0
M  V30 53 H -5.400345 -2.524261 -5.835738 0
M  V30 54 H -4.571804 -4.793956 -6.038045 0
M  V30 55 H -3.405280 -5.979102 -4.157842 0
M  V30 56 H -3.134777 -4.731828 -2.080026 0
M  V30 57 H 5.004873 -0.437870 0.420096 0
M  V30 58 H 6.849791 -0.170087 2.111284 0
M  V30 END ATOM
M  V30 BEGIN BOND
M  V30 1 1 1 2
M  V30 2 1 2 3
M  V30 3 1 2 4
M  V30 4 2 4 5
M  V30 5 1 5 6
M  V30 6 2 6 7
M  V30 7 1 7 8
M  V30 8 2 8 9
M  V30 9 1 8 10
M  V30 10 1 10 11
M  V30 11 1 11 12
M  V30 12 1 12 13
M  V30 13 1 13 14
M  V30 14 1 12 15
M  V30 15 1 15 16
M  V30 16 2 16 17
M  V30 17 1 17 18
M  V30 18 2 18 19
M  V30 19 1 19 20
M  V30 20 1 20 21
M  V30 21 1 20 22
M  V30 22 2 22 23
M  V30 23 1 23 24
M  V30 24 2 24 25
M  V30 25 1 25 26
M  V30 26 2 26 27
M  V30 27 1 16 28
M  V30 28 2 28 29
M  V30 29 1 28 30
M  V30 30 1 7 31
M  V30 31 2 31 32
M  V30 32 1 32 4
M  V30 33 1 30 12
M  V30 34 1 27 18
M  V30 35 1 27 22
M  V30 36 1 1 33
M  V30 37 1 1 34
M  V30 38 1 1 35
M  V30 39 1 3 36
M  V30 40 1 3 37
M  V30 41 1 3 38
M  V30 42 1 5 39
M  V30 43 1 6 40
M  V30 44 1 11 41
M  V30 45 1 11 42
M  V30 46 1 13 43
M  V30 47 1 13 44
M  V30 48 1 14 45
M  V30 49 1 15 46
M  V30 50 1 15 47
M  V30 51 1 17 48
M  V30 52 1 19 49
M  V30 53 1 21 50
M  V30 54 1 21 51
M  V30 55 1 21 52
M  V30 56 1 23 53
M  V30 57 1 24 54
M  V30 58 1 25 55
M  V30 59 1 26 56
M  V30 60 1 31 57
M  V30 61 1 32 58
M  V30 END BOND
M  V30 END CTAB
M  END
>  <Dataset>  (440) 
ChEMBL_Kinases

>  <Ligand_Instance>  (440) 
nan

>  <PDB_ID>  (440) 
nan

>  <Standardized_SMILES>  (440) 
CN(C)c1ccc(C(=O)OCC2(CO)C/C(=C\c3cn(C)c4ccccc34)C(=O)O2)cc1

>  <Name>  (440) 
nan

>  <Pocket>  (440) 
nan

>  <ATP_Site>  (440) 
nan

>  <Peripheral>  (440) 
nan

>  <Num_H_Atoms_ProtBoundConf>  (440) 
nan

>  <Num_Resolved_Atoms>  (440) 
nan

>  <Num_Not_Resolved_Atoms>  (440) 
nan

$$$$
CHEMBL472694
     RDKit          3D

  0  0  0  0  0  0  0  0  0  0999 V3000
M  V30 BEGIN CTAB
M  V30 COUNTS 30 31 0 0 0
M  V30 BEGIN ATOM
M  V30 1 O 1.326709 -1.296956 5.332904 0
M  V30 2 C 0.745214 -1.017191 4.228022 0
M  V30 3 O -0.134725 -1.686051 5.069224 0
M  V30 4 C 1.224006 -0.332911 3.033213 0
M  V30 5 C 0.461994 -0.135735 1.975214 0
M  V30 6 C -0.912376 -0.642055 2.050332 0
M  V30 7 C -1.123173 -1.958184 1.331139 0
M  V30 8 C -0.068074 -2.254846 0.303046 0
M  V30 9 C 0.137808 -1.166805 -0.672369 0
M  V30 10 C -0.271641 -1.427801 -1.971928 0
M  V30 11 C -0.154561 -0.531454 -2.999448 0
M  V30 12 C 0.408381 0.694421 -2.688998 0
M  V30 13 C 0.829544 1.010337 -1.433060 0
M  V30 14 C 0.702732 0.086296 -0.399850 0
M  V30 15 C 1.209664 0.584115 0.911714 0
M  V30 16 O 2.576836 0.431369 1.033138 0
M  V30 17 H -0.804977 -2.373615 4.698025 0
M  V30 18 H 2.254482 -0.053525 3.207586 0
M  V30 19 H -1.324931 -0.652382 3.074102 0
M  V30 20 H -1.578276 0.089848 1.503410 0
M  V30 21 H -1.132862 -2.817186 2.032529 0
M  V30 22 H -2.106930 -1.991910 0.818361 0
M  V30 23 H -0.425193 -3.131143 -0.272377 0
M  V30 24 H 0.897159 -2.562143 0.761831 0
M  V30 25 H -0.699682 -2.425253 -2.096767 0
M  V30 26 H -0.494082 -0.812802 -3.966504 0
M  V30 27 H 0.520519 1.438233 -3.477793 0
M  V30 28 H 1.279154 1.976924 -1.163786 0
M  V30 29 H 0.904549 1.649360 0.989388 0
M  V30 30 H 2.955606 1.291906 1.372605 0
M  V30 END ATOM
M  V30 BEGIN BOND
M  V30 1 2 1 2
M  V30 2 1 2 3
M  V30 3 1 2 4
M  V30 4 2 4 5
M  V30 5 1 5 6
M  V30 6 1 6 7
M  V30 7 1 7 8
M  V30 8 1 8 9
M  V30 9 2 9 10
M  V30 10 1 10 11
M  V30 11 2 11 12
M  V30 12 1 12 13
M  V30 13 2 13 14
M  V30 14 1 14 15
M  V30 15 1 15 16
M  V30 16 1 15 5
M  V30 17 1 14 9
M  V30 18 1 3 17
M  V30 19 1 4 18
M  V30 20 1 6 19
M  V30 21 1 6 20
M  V30 22 1 7 21
M  V30 23 1 7 22
M  V30 24 1 8 23
M  V30 25 1 8 24
M  V30 26 1 10 25
M  V30 27 1 11 26
M  V30 28 1 12 27
M  V30 29 1 13 28
M  V30 30 1 15 29
M  V30 31 1 16 30
M  V30 END BOND
M  V30 END CTAB
M  END
>  <Dataset>  (441) 
ChEMBL_Kinases

>  <Ligand_Instance>  (441) 
nan

>  <PDB_ID>  (441) 
nan

>  <Standardized_SMILES>  (441) 
O=C(O)/C=C1\CCCc2ccccc2C1O

>  <Name>  (441) 
nan

>  <Pocket>  (441) 
nan

>  <ATP_Site>  (441) 
nan

>  <Peripheral>  (441) 
nan

>  <Num_H_Atoms_ProtBoundConf>  (441) 
nan

>  <Num_Resolved_Atoms>  (441) 
nan

>  <Num_Not_Resolved_Atoms>  (441) 
nan

$$$$
CHEMBL473631
     RDKit          3D

  0  0  0  0  0  0  0  0  0  0999 V3000
M  V30 BEGIN CTAB
M  V30 COUNTS 56 61 0 0 0
M  V30 BEGIN ATOM
M  V30 1 C 0.647061 -3.685093 -0.354663 0
M  V30 2 N 2.052952 -3.978384 -0.511231 0
M  V30 3 C 2.805702 -3.773698 0.709754 0
M  V30 4 C 3.016485 -2.303423 1.006282 0
M  V30 5 N 3.790050 -1.650350 -0.003973 0
M  V30 6 C 4.193224 -0.344693 0.399296 0
M  V30 7 C 5.543902 -0.088889 0.458105 0
M  V30 8 C 5.911405 1.194117 0.855196 0
M  V30 9 C 4.911051 2.116966 1.160945 0
M  V30 10 C 3.564426 1.828086 1.091715 0
M  V30 11 N 2.454892 2.560060 1.339299 0
M  V30 12 C 1.402449 1.756782 1.103734 0
M  V30 13 C -0.005167 2.116080 1.238785 0
M  V30 14 N -0.521799 3.297946 1.617974 0
M  V30 15 N -1.848374 3.235803 1.619119 0
M  V30 16 C -2.274654 2.002554 1.238531 0
M  V30 17 C -3.520277 1.427977 1.077519 0
M  V30 18 C -3.607048 0.110526 0.665204 0
M  V30 19 C -4.879713 -0.579284 0.467355 0
M  V30 20 C -5.944817 0.189719 0.042021 0
M  V30 21 C -7.184337 -0.377844 -0.171266 0
M  V30 22 C -7.313084 -1.732134 0.055988 0
M  V30 23 O -8.573170 -2.310714 -0.160704 0
M  V30 24 C -6.245296 -2.512922 0.484362 0
M  V30 25 C -5.004391 -1.945088 0.698010 0
M  V30 26 C -2.456598 -0.620143 0.417952 0
M  V30 27 C -1.209590 -0.018647 0.587347 0
M  V30 28 C -1.094786 1.307731 1.001928 0
M  V30 29 N 1.851921 0.543466 0.715459 0
M  V30 30 C 3.200284 0.545393 0.694644 0
M  V30 31 C 3.929784 -2.526518 -1.143809 0
M  V30 32 C 2.639997 -3.186788 -1.541444 0
M  V30 33 H 0.129406 -4.624764 -0.027035 0
M  V30 34 H 0.235045 -3.428070 -1.353593 0
M  V30 35 H 0.452626 -2.847768 0.344481 0
M  V30 36 H 2.303459 -4.257170 1.548075 0
M  V30 37 H 3.804601 -4.229365 0.555345 0
M  V30 38 H 3.619688 -2.275982 1.955330 0
M  V30 39 H 2.038129 -1.827933 1.184752 0
M  V30 40 H 6.282822 -0.831893 0.212962 0
M  V30 41 H 6.954103 1.484618 0.929789 0
M  V30 42 H 5.232600 3.112663 1.468265 0
M  V30 43 H 2.433326 3.574032 1.658243 0
M  V30 44 H -2.552084 3.992880 1.868027 0
M  V30 45 H -4.418771 1.981169 1.265057 0
M  V30 46 H -5.882370 1.250625 -0.146279 0
M  V30 47 H -8.030397 0.203358 -0.503180 0
M  V30 48 H -8.553004 -3.209196 -0.641967 0
M  V30 49 H -6.395583 -3.567929 0.648644 0
M  V30 50 H -4.145523 -2.513134 1.031136 0
M  V30 51 H -2.521459 -1.662532 0.091839 0
M  V30 52 H -0.297409 -0.558227 0.403621 0
M  V30 53 H 4.247295 -1.879022 -2.006186 0
M  V30 54 H 4.742786 -3.240193 -0.965727 0
M  V30 55 H 1.924372 -2.342907 -1.768439 0
M  V30 56 H 2.787359 -3.707720 -2.489747 0
M  V30 END ATOM
M  V30 BEGIN BOND
M  V30 1 1 1 2
M  V30 2 1 2 3
M  V30 3 1 3 4
M  V30 4 1 4 5
M  V30 5 1 5 6
M  V30 6 2 6 7
M  V30 7 1 7 8
M  V30 8 2 8 9
M  V30 9 1 9 10
M  V30 10 1 10 11
M  V30 11 1 11 12
M  V30 12 1 12 13
M  V30 13 2 13 14
M  V30 14 1 14 15
M  V30 15 1 15 16
M  V30 16 2 16 17
M  V30 17 1 17 18
M  V30 18 1 18 19
M  V30 19 2 19 20
M  V30 20 1 20 21
M  V30 21 2 21 22
M  V30 22 1 22 23
M  V30 23 1 22 24
M  V30 24 2 24 25
M  V30 25 2 18 26
M  V30 26 1 26 27
M  V30 27 2 27 28
M  V30 28 2 12 29
M  V30 29 1 29 30
M  V30 30 1 5 31
M  V30 31 1 31 32
M  V30 32 1 32 2
M  V30 33 1 30 6
M  V30 34 2 30 10
M  V30 35 1 28 13
M  V30 36 1 28 16
M  V30 37 1 25 19
M  V30 38 1 1 33
M  V30 39 1 1 34
M  V30 40 1 1 35
M  V30 41 1 3 36
M  V30 42 1 3 37
M  V30 43 1 4 38
M  V30 44 1 4 39
M  V30 45 1 7 40
M  V30 46 1 8 41
M  V30 47 1 9 42
M  V30 48 1 11 43
M  V30 49 1 15 44
M  V30 50 1 17 45
M  V30 51 1 20 46
M  V30 52 1 21 47
M  V30 53 1 23 48
M  V30 54 1 24 49
M  V30 55 1 25 50
M  V30 56 1 26 51
M  V30 57 1 27 52
M  V30 58 1 31 53
M  V30 59 1 31 54
M  V30 60 1 32 55
M  V30 61 1 32 56
M  V30 END BOND
M  V30 END CTAB
M  END
>  <Dataset>  (442) 
ChEMBL_Kinases

>  <Ligand_Instance>  (442) 
nan

>  <PDB_ID>  (442) 
nan

>  <Standardized_SMILES>  (442) 
CN1CCN(c2cccc3[nH]c(-c4n[nH]c5cc(-c6ccc(O)cc6)ccc45)nc23)CC1

>  <Name>  (442) 
nan

>  <Pocket>  (442) 
nan

>  <ATP_Site>  (442) 
nan

>  <Peripheral>  (442) 
nan

>  <Num_H_Atoms_ProtBoundConf>  (442) 
nan

>  <Num_Resolved_Atoms>  (442) 
nan

>  <Num_Not_Resolved_Atoms>  (442) 
nan

$$$$
CHEMBL4740051
     RDKit          3D

  0  0  0  0  0  0  0  0  0  0999 V3000
M  V30 BEGIN CTAB
M  V30 COUNTS 45 48 0 0 0
M  V30 BEGIN ATOM
M  V30 1 C 2.342694 -2.698731 3.012577 0
M  V30 2 C 2.629386 -1.341849 2.398319 0
M  V30 3 C 2.469411 -0.301198 3.494437 0
M  V30 4 N 4.007733 -1.318783 1.941109 0
M  V30 5 C 5.018140 -1.948839 2.582290 0
M  V30 6 N 6.168401 -1.743731 1.920261 0
M  V30 7 N 5.868369 -0.996926 0.885202 0
M  V30 8 C 4.568798 -0.717234 0.861372 0
M  V30 9 C 3.821830 0.073354 -0.102792 0
M  V30 10 C 4.253120 0.303887 -1.397751 0
M  V30 11 C 3.560479 1.050463 -2.328139 0
M  V30 12 C 2.355009 1.612549 -1.960309 0
M  V30 13 C 1.933444 1.377366 -0.668005 0
M  V30 14 N 0.716975 1.881285 -0.126221 0
M  V30 15 C -0.506838 1.199130 -0.184449 0
M  V30 16 O -0.441921 0.084661 -0.765119 0
M  V30 17 N -1.754594 1.600805 0.312811 0
M  V30 18 C -2.901413 0.747077 0.149452 0
M  V30 19 C -3.138171 -0.175542 1.172828 0
M  V30 20 C -4.284287 -0.865848 0.778850 0
M  V30 21 C -4.974891 -1.889973 1.402834 0
M  V30 22 C -6.108207 -2.403561 0.773890 0
M  V30 23 C -6.499078 -1.872060 -0.446686 0
M  V30 24 C -5.779655 -0.842547 -1.043810 0
M  V30 25 N -4.680703 -0.358206 -0.414570 0
M  V30 26 N -3.857367 0.607833 -0.797425 0
M  V30 27 N 2.642398 0.641320 0.208521 0
M  V30 28 H 2.722738 -3.487689 2.322071 0
M  V30 29 H 2.881112 -2.821590 3.975532 0
M  V30 30 H 1.265723 -2.884027 3.143298 0
M  V30 31 H 1.900498 -1.152296 1.592838 0
M  V30 32 H 1.396972 -0.267827 3.751590 0
M  V30 33 H 2.992062 -0.685226 4.400751 0
M  V30 34 H 2.859501 0.685960 3.172863 0
M  V30 35 H 4.945625 -2.534709 3.488645 0
M  V30 36 H 5.196985 -0.121443 -1.725576 0
M  V30 37 H 3.898963 1.225841 -3.329507 0
M  V30 38 H 1.730474 2.214017 -2.605964 0
M  V30 39 H 0.679653 2.804753 0.351060 0
M  V30 40 H -1.656079 2.537711 0.764953 0
M  V30 41 H -2.613753 -0.386373 2.099054 0
M  V30 42 H -4.653334 -2.296292 2.363170 0
M  V30 43 H -6.680539 -3.215966 1.239552 0
M  V30 44 H -7.378339 -2.251056 -0.962212 0
M  V30 45 H -6.088494 -0.441494 -1.981450 0
M  V30 END ATOM
M  V30 BEGIN BOND
M  V30 1 1 1 2
M  V30 2 1 2 3
M  V30 3 1 2 4
M  V30 4 1 4 5
M  V30 5 2 5 6
M  V30 6 1 6 7
M  V30 7 2 7 8
M  V30 8 1 8 9
M  V30 9 2 9 10
M  V30 10 1 10 11
M  V30 11 2 11 12
M  V30 12 1 12 13
M  V30 13 1 13 14
M  V30 14 1 14 15
M  V30 15 2 15 16
M  V30 16 1 15 17
M  V30 17 1 17 18
M  V30 18 1 18 19
M  V30 19 2 19 20
M  V30 20 1 20 21
M  V30 21 2 21 22
M  V30 22 1 22 23
M  V30 23 2 23 24
M  V30 24 1 24 25
M  V30 25 1 25 26
M  V30 26 2 13 27
M  V30 27 1 8 4
M  V30 28 1 27 9
M  V30 29 2 26 18
M  V30 30 1 25 20
M  V30 31 1 1 28
M  V30 32 1 1 29
M  V30 33 1 1 30
M  V30 34 1 2 31
M  V30 35 1 3 32
M  V30 36 1 3 33
M  V30 37 1 3 34
M  V30 38 1 5 35
M  V30 39 1 10 36
M  V30 40 1 11 37
M  V30 41 1 12 38
M  V30 42 1 14 39
M  V30 43 1 17 40
M  V30 44 1 19 41
M  V30 45 1 21 42
M  V30 46 1 22 43
M  V30 47 1 23 44
M  V30 48 1 24 45
M  V30 END BOND
M  V30 END CTAB
M  END
>  <Dataset>  (443) 
ChEMBL_Kinases

>  <Ligand_Instance>  (443) 
nan

>  <PDB_ID>  (443) 
nan

>  <Standardized_SMILES>  (443) 
CC(C)n1cnnc1-c1cccc(NC(=O)Nc2cc3ccccn3n2)n1

>  <Name>  (443) 
nan

>  <Pocket>  (443) 
nan

>  <ATP_Site>  (443) 
nan

>  <Peripheral>  (443) 
nan

>  <Num_H_Atoms_ProtBoundConf>  (443) 
nan

>  <Num_Resolved_Atoms>  (443) 
nan

>  <Num_Not_Resolved_Atoms>  (443) 
nan

$$$$
CHEMBL4740106
     RDKit          3D

  0  0  0  0  0  0  0  0  0  0999 V3000
M  V30 BEGIN CTAB
M  V30 COUNTS 44 46 0 0 0
M  V30 BEGIN ATOM
M  V30 1 C 1.486319 -5.249029 -2.443341 0
M  V30 2 O 1.486004 -3.903560 -2.022241 0
M  V30 3 C 0.780472 -2.901360 -2.670028 0
M  V30 4 C 0.006865 -3.105520 -3.788619 0
M  V30 5 C -0.666468 -2.042235 -4.373405 0
M  V30 6 C -0.561170 -0.777998 -3.833740 0
M  V30 7 C 0.207748 -0.552024 -2.714690 0
M  V30 8 C 0.370582 0.781939 -2.074718 0 CFG=1
M  V30 9 C -0.556584 1.807812 -2.670872 0
M  V30 10 N 0.244265 0.699399 -0.636559 0
M  V30 11 C 1.262909 0.969322 0.314344 0
M  V30 12 O 2.408087 1.317824 -0.046200 0
M  V30 13 C 1.032374 0.856144 1.750775 0
M  V30 14 C 2.078435 1.137983 2.604636 0
M  V30 15 C 1.895418 1.040441 3.988363 0
M  V30 16 C 0.692914 0.667810 4.552360 0
M  V30 17 C 0.519739 0.571262 5.996961 0
M  V30 18 C 1.242337 0.040766 7.049591 0
M  V30 19 N 0.522551 0.283210 8.172073 0
M  V30 20 N -0.584593 0.924353 7.862526 0
M  V30 21 C -0.634994 1.126237 6.537530 0
M  V30 22 C -0.342830 0.389397 3.685468 0
M  V30 23 C -1.642319 -0.009728 4.176880 0
M  V30 24 N -2.689435 -0.321471 4.583547 0
M  V30 25 C -0.167873 0.483988 2.320640 0
M  V30 26 C 0.868561 -1.622548 -2.149262 0
M  V30 27 H 1.478892 -5.267876 -3.555596 0
M  V30 28 H 2.384913 -5.768239 -2.031905 0
M  V30 29 H 0.551046 -5.724123 -2.035607 0
M  V30 30 H -0.068990 -4.104508 -4.205006 0
M  V30 31 H -1.283947 -2.169628 -5.255214 0
M  V30 32 H -1.056295 0.110155 -4.230344 0
M  V30 33 H 1.407885 1.095807 -2.309765 0
M  V30 34 H -1.625849 1.543090 -2.539675 0
M  V30 35 H -0.379551 2.758772 -2.137675 0
M  V30 36 H -0.264870 1.963782 -3.726691 0
M  V30 37 H -0.712397 0.408466 -0.337706 0
M  V30 38 H 3.052947 1.436157 2.271583 0
M  V30 39 H 2.705366 1.256967 4.702775 0
M  V30 40 H 2.175852 -0.428963 6.772906 0
M  V30 41 H -1.199012 1.147655 8.696231 0
M  V30 42 H -1.519049 1.649450 6.205104 0
M  V30 43 H -0.994161 0.260351 1.676107 0
M  V30 44 H 1.485794 -1.450548 -1.253950 0
M  V30 END ATOM
M  V30 BEGIN BOND
M  V30 1 1 1 2
M  V30 2 1 2 3
M  V30 3 2 3 4
M  V30 4 1 4 5
M  V30 5 2 5 6
M  V30 6 1 6 7
M  V30 7 1 7 8
M  V30 8 1 8 9
M  V30 9 1 8 10
M  V30 10 1 10 11
M  V30 11 2 11 12
M  V30 12 1 11 13
M  V30 13 2 13 14
M  V30 14 1 14 15
M  V30 15 2 15 16
M  V30 16 1 16 17
M  V30 17 1 17 18
M  V30 18 2 18 19
M  V30 19 1 19 20
M  V30 20 1 20 21
M  V30 21 1 16 22
M  V30 22 1 22 23
M  V30 23 3 23 24
M  V30 24 2 22 25
M  V30 25 2 7 26
M  V30 26 1 26 3
M  V30 27 1 25 13
M  V30 28 2 21 17
M  V30 29 1 1 27
M  V30 30 1 1 28
M  V30 31 1 1 29
M  V30 32 1 4 30
M  V30 33 1 5 31
M  V30 34 1 6 32
M  V30 35 1 8 33 CFG=1
M  V30 36 1 9 34
M  V30 37 1 9 35
M  V30 38 1 9 36
M  V30 39 1 10 37
M  V30 40 1 14 38
M  V30 41 1 15 39
M  V30 42 1 18 40
M  V30 43 1 20 41
M  V30 44 1 21 42
M  V30 45 1 25 43
M  V30 46 1 26 44
M  V30 END BOND
M  V30 END CTAB
M  END
>  <Dataset>  (444) 
ChEMBL_Kinases

>  <Ligand_Instance>  (444) 
nan

>  <PDB_ID>  (444) 
nan

>  <Standardized_SMILES>  (444) 
COc1cccc([C@@H](C)NC(=O)c2ccc(-c3cn[nH]c3)c(C#N)c2)c1

>  <Name>  (444) 
nan

>  <Pocket>  (444) 
nan

>  <ATP_Site>  (444) 
nan

>  <Peripheral>  (444) 
nan

>  <Num_H_Atoms_ProtBoundConf>  (444) 
nan

>  <Num_Resolved_Atoms>  (444) 
nan

>  <Num_Not_Resolved_Atoms>  (444) 
nan

$$$$
CHEMBL554
     RDKit          3D

  0  0  0  0  0  0  0  0  0  0999 V3000
M  V30 BEGIN CTAB
M  V30 COUNTS 66 70 0 0 0
M  V30 BEGIN ATOM
M  V30 1 C 5.423672 -2.671652 5.582942 0
M  V30 2 S 5.145143 -2.789867 3.808381 0
M  V30 3 O 3.677012 -3.009199 3.594062 0
M  V30 4 O 5.921565 -3.944447 3.250618 0
M  V30 5 C 5.693801 -1.282119 3.123651 0
M  V30 6 C 5.527488 -1.194889 1.599528 0
M  V30 7 N 6.039331 0.092665 1.279470 0
M  V30 8 C 6.013062 0.500604 -0.081178 0
M  V30 9 C 4.550370 0.514253 -0.466039 0
M  V30 10 C 3.741720 -0.471693 -1.007197 0
M  V30 11 C 2.497766 0.113707 -1.144042 0
M  V30 12 C 2.569164 1.414719 -0.694205 0
M  V30 13 C 1.514613 2.430462 -0.636563 0
M  V30 14 C 1.842100 3.677546 -0.140368 0
M  V30 15 C 0.881388 4.691023 -0.046487 0
M  V30 16 C -0.401135 4.402203 -0.465536 0
M  V30 17 N -1.383880 5.319987 -0.398979 0
M  V30 18 C -2.646729 5.058374 -0.794253 0
M  V30 19 N -3.007163 3.858144 -1.282901 0
M  V30 20 C -2.037322 2.920069 -1.359817 0
M  V30 21 N -2.427615 1.654219 -1.868086 0
M  V30 22 C -2.694907 0.409900 -1.234829 0
M  V30 23 C -3.271894 -0.582859 -1.986816 0
M  V30 24 C -3.507108 -1.785489 -1.377305 0
M  V30 25 C -3.216061 -2.092468 -0.069903 0
M  V30 26 O -3.322069 -3.138816 0.778222 0
M  V30 27 C -3.849532 -4.397962 0.530261 0
M  V30 28 C -5.285726 -4.430376 0.157381 0
M  V30 29 C -6.106425 -4.382720 1.296548 0
M  V30 30 C -7.488134 -4.417413 1.256965 0
M  V30 31 C -8.120995 -4.504066 0.036558 0
M  V30 32 C -7.321295 -4.550932 -1.078092 0
M  V30 33 F -7.863926 -4.637422 -2.321862 0
M  V30 34 C -5.951514 -4.517200 -1.046620 0
M  V30 35 C -2.625826 -1.049438 0.668860 0
M  V30 36 Cl -2.114891 -1.067602 2.362169 0
M  V30 37 C -2.356689 0.209389 0.106376 0
M  V30 38 C -0.715353 3.149595 -0.960660 0
M  V30 39 C 0.234065 2.134447 -1.058213 0
M  V30 40 O 3.810183 1.587951 -0.307481 0
M  V30 41 H 5.525642 -3.670687 6.034484 0
M  V30 42 H 4.530142 -2.137722 6.011894 0
M  V30 43 H 6.292548 -2.007314 5.771255 0
M  V30 44 H 6.721098 -1.002160 3.412565 0
M  V30 45 H 4.992727 -0.479284 3.504500 0
M  V30 46 H 6.174372 -1.976621 1.114725 0
M  V30 47 H 4.474883 -1.362883 1.375299 0
M  V30 48 H 5.459025 0.787105 1.836585 0
M  V30 49 H 6.412351 1.526892 -0.139924 0
M  V30 50 H 6.571303 -0.199546 -0.731411 0
M  V30 51 H 4.101436 -1.454255 -1.237118 0
M  V30 52 H 1.629011 -0.377309 -1.537467 0
M  V30 53 H 2.828512 3.960783 0.203038 0
M  V30 54 H 1.087293 5.682777 0.333914 0
M  V30 55 H -3.340009 5.903796 -0.680972 0
M  V30 56 H -2.501084 1.774628 -2.899513 0
M  V30 57 H -3.565053 -0.523934 -3.014547 0
M  V30 58 H -3.945505 -2.638958 -1.858315 0
M  V30 59 H -3.704937 -5.088329 1.416729 0
M  V30 60 H -3.255366 -4.944052 -0.277782 0
M  V30 61 H -5.744002 -4.312839 2.323890 0
M  V30 62 H -8.122355 -4.380605 2.126891 0
M  V30 63 H -9.195758 -4.533549 -0.035472 0
M  V30 64 H -5.277518 -4.559967 -1.868010 0
M  V30 65 H -1.916981 1.055019 0.577491 0
M  V30 66 H -0.041247 1.164085 -1.450053 0
M  V30 END ATOM
M  V30 BEGIN BOND
M  V30 1 1 1 2
M  V30 2 2 2 3
M  V30 3 2 2 4
M  V30 4 1 2 5
M  V30 5 1 5 6
M  V30 6 1 6 7
M  V30 7 1 7 8
M  V30 8 1 8 9
M  V30 9 2 9 10
M  V30 10 1 10 11
M  V30 11 2 11 12
M  V30 12 1 12 13
M  V30 13 2 13 14
M  V30 14 1 14 15
M  V30 15 2 15 16
M  V30 16 1 16 17
M  V30 17 2 17 18
M  V30 18 1 18 19
M  V30 19 2 19 20
M  V30 20 1 20 21
M  V30 21 1 21 22
M  V30 22 2 22 23
M  V30 23 1 23 24
M  V30 24 2 24 25
M  V30 25 1 25 26
M  V30 26 1 26 27
M  V30 27 1 27 28
M  V30 28 2 28 29
M  V30 29 1 29 30
M  V30 30 2 30 31
M  V30 31 1 31 32
M  V30 32 1 32 33
M  V30 33 2 32 34
M  V30 34 1 25 35
M  V30 35 1 35 36
M  V30 36 2 35 37
M  V30 37 1 20 38
M  V30 38 2 38 39
M  V30 39 1 12 40
M  V30 40 1 40 9
M  V30 41 1 39 13
M  V30 42 1 38 16
M  V30 43 1 37 22
M  V30 44 1 34 28
M  V30 45 1 1 41
M  V30 46 1 1 42
M  V30 47 1 1 43
M  V30 48 1 5 44
M  V30 49 1 5 45
M  V30 50 1 6 46
M  V30 51 1 6 47
M  V30 52 1 7 48
M  V30 53 1 8 49
M  V30 54 1 8 50
M  V30 55 1 10 51
M  V30 56 1 11 52
M  V30 57 1 14 53
M  V30 58 1 15 54
M  V30 59 1 18 55
M  V30 60 1 21 56
M  V30 61 1 23 57
M  V30 62 1 24 58
M  V30 63 1 27 59
M  V30 64 1 27 60
M  V30 65 1 29 61
M  V30 66 1 30 62
M  V30 67 1 31 63
M  V30 68 1 34 64
M  V30 69 1 37 65
M  V30 70 1 39 66
M  V30 END BOND
M  V30 END CTAB
M  END
>  <Dataset>  (445) 
ChEMBL_Kinases

>  <Ligand_Instance>  (445) 
nan

>  <PDB_ID>  (445) 
nan

>  <Standardized_SMILES>  (445) 
CS(=O)(=O)CCNCc1ccc(-c2ccc3ncnc(Nc4ccc(OCc5cccc(F)c5)c(Cl)c4)c3c2)o1

>  <Name>  (445) 
LAPATINIB

>  <Pocket>  (445) 
nan

>  <ATP_Site>  (445) 
nan

>  <Peripheral>  (445) 
nan

>  <Num_H_Atoms_ProtBoundConf>  (445) 
nan

>  <Num_Resolved_Atoms>  (445) 
nan

>  <Num_Not_Resolved_Atoms>  (445) 
nan

$$$$
CHEMBL552407
     RDKit          3D

  0  0  0  0  0  0  0  0  0  0999 V3000
M  V30 BEGIN CTAB
M  V30 COUNTS 40 43 0 0 0
M  V30 BEGIN ATOM
M  V30 1 C -2.312838 -3.382517 1.523359 0
M  V30 2 O -1.254924 -4.090155 0.930195 0
M  V30 3 C -0.295062 -3.453092 0.181283 0
M  V30 4 C 0.707548 -4.265037 -0.358731 0
M  V30 5 C 1.719764 -3.722651 -1.127365 0
M  V30 6 C 1.744933 -2.344693 -1.370330 0
M  V30 7 C 0.745720 -1.552871 -0.829270 0
M  V30 8 C 0.849455 -0.138811 -1.132199 0
M  V30 9 C 0.754099 0.239378 -2.460393 0
M  V30 10 N 0.842842 1.537682 -2.800163 0
M  V30 11 C 1.027256 2.497992 -1.847248 0
M  V30 12 N 1.136471 3.898307 -2.072444 0
M  V30 13 N 1.117126 2.109281 -0.564650 0
M  V30 14 C 1.035483 0.826970 -0.167976 0
M  V30 15 C 1.137188 0.443792 1.238289 0
M  V30 16 C 2.096256 -0.375208 1.828904 0
M  V30 17 N 1.759453 -0.420664 3.150093 0
M  V30 18 C 0.668009 0.313279 3.386978 0
M  V30 19 C 0.034169 0.505655 4.602104 0
M  V30 20 C -1.088441 1.320061 4.577353 0
M  V30 21 C -1.562002 1.910980 3.429214 0
M  V30 22 C -0.884366 1.678248 2.254523 0
M  V30 23 C 0.242068 0.879606 2.194612 0
M  V30 24 C -0.262352 -2.098921 -0.062821 0
M  V30 25 H -1.998759 -2.717080 2.342096 0
M  V30 26 H -2.803022 -2.785384 0.702343 0
M  V30 27 H -3.066996 -4.105569 1.933433 0
M  V30 28 H 0.704656 -5.343298 -0.179887 0
M  V30 29 H 2.500606 -4.366923 -1.545868 0
M  V30 30 H 2.576043 -2.001405 -1.984615 0
M  V30 31 H 0.607868 -0.491853 -3.246820 0
M  V30 32 H 1.168474 4.391419 -2.993167 0
M  V30 33 H 1.166471 4.368818 -3.018250 0
M  V30 34 H 2.922644 -0.858130 1.314938 0
M  V30 35 H 2.357873 -0.990243 3.787607 0
M  V30 36 H 0.396448 0.044744 5.519784 0
M  V30 37 H -1.615504 1.500536 5.493661 0
M  V30 38 H -2.449262 2.548657 3.437133 0
M  V30 39 H -1.199097 2.113813 1.294878 0
M  V30 40 H -1.022817 -1.473156 0.345242 0
M  V30 END ATOM
M  V30 BEGIN BOND
M  V30 1 1 1 2
M  V30 2 1 2 3
M  V30 3 2 3 4
M  V30 4 1 4 5
M  V30 5 2 5 6
M  V30 6 1 6 7
M  V30 7 1 7 8
M  V30 8 2 8 9
M  V30 9 1 9 10
M  V30 10 2 10 11
M  V30 11 1 11 12
M  V30 12 1 11 13
M  V30 13 2 13 14
M  V30 14 1 14 15
M  V30 15 2 15 16
M  V30 16 1 16 17
M  V30 17 1 17 18
M  V30 18 2 18 19
M  V30 19 1 19 20
M  V30 20 2 20 21
M  V30 21 1 21 22
M  V30 22 2 22 23
M  V30 23 2 7 24
M  V30 24 1 24 3
M  V30 25 1 14 8
M  V30 26 1 23 15
M  V30 27 1 23 18
M  V30 28 1 1 25
M  V30 29 1 1 26
M  V30 30 1 1 27
M  V30 31 1 4 28
M  V30 32 1 5 29
M  V30 33 1 6 30
M  V30 34 1 9 31
M  V30 35 1 12 32
M  V30 36 1 12 33
M  V30 37 1 16 34
M  V30 38 1 17 35
M  V30 39 1 19 36
M  V30 40 1 20 37
M  V30 41 1 21 38
M  V30 42 1 22 39
M  V30 43 1 24 40
M  V30 END BOND
M  V30 END CTAB
M  END
>  <Dataset>  (446) 
ChEMBL_Kinases

>  <Ligand_Instance>  (446) 
nan

>  <PDB_ID>  (446) 
nan

>  <Standardized_SMILES>  (446) 
COc1cccc(-c2cnc(N)nc2-c2c[nH]c3ccccc23)c1

>  <Name>  (446) 
nan

>  <Pocket>  (446) 
nan

>  <ATP_Site>  (446) 
nan

>  <Peripheral>  (446) 
nan

>  <Num_H_Atoms_ProtBoundConf>  (446) 
nan

>  <Num_Resolved_Atoms>  (446) 
nan

>  <Num_Not_Resolved_Atoms>  (446) 
nan

$$$$
CHEMBL2030405
     RDKit          3D

  0  0  0  0  0  0  0  0  0  0999 V3000
M  V30 BEGIN CTAB
M  V30 COUNTS 36 39 0 0 0
M  V30 BEGIN ATOM
M  V30 1 C -2.208622 -4.616585 2.016826 0
M  V30 2 O -0.939152 -5.179501 1.777859 0
M  V30 3 C 0.124330 -4.497911 1.231471 0
M  V30 4 C 1.381328 -5.025015 0.985748 0
M  V30 5 C 2.409851 -4.286818 0.433606 0
M  V30 6 C 2.157011 -2.963949 0.117734 0
M  V30 7 O 2.909457 -2.014841 -0.409002 0
M  V30 8 C 2.241381 -0.915773 -0.524241 0
M  V30 9 C 2.517568 0.354086 -0.994207 0
M  V30 10 O 3.645159 0.644945 -1.443903 0
M  V30 11 N 1.590568 1.320132 -0.986294 0
M  V30 12 C 0.340639 1.140580 -0.530685 0
M  V30 13 C -0.812539 2.055919 -0.434423 0 CFG=2
M  V30 14 C -0.348740 3.477370 -0.450602 0
M  V30 15 C 0.216928 3.622916 0.958944 0 CFG=1
M  V30 16 F 0.030248 4.914372 1.412232 0
M  V30 17 C -0.604301 2.650969 1.780269 0
M  V30 18 N -1.481989 1.949156 0.852287 0
M  V30 19 N 0.003185 -0.092993 -0.051933 0
M  V30 20 C 0.949924 -1.067067 -0.063786 0
M  V30 21 C 0.909074 -2.405396 0.351104 0
M  V30 22 C -0.102804 -3.157461 0.902060 0
M  V30 23 H -2.718823 -4.571325 1.032447 0
M  V30 24 H -2.182574 -3.609641 2.466862 0
M  V30 25 H -2.797721 -5.313985 2.647714 0
M  V30 26 H 1.534282 -6.076879 1.252360 0
M  V30 27 H 3.358826 -4.736254 0.263557 0
M  V30 28 H 1.760125 2.273264 -1.327186 0
M  V30 29 H -1.506294 1.866182 -1.264249 0
M  V30 30 H 0.368956 3.712560 -1.233315 0
M  V30 31 H -1.223401 4.180959 -0.508551 0
M  V30 32 H 1.277816 3.326285 0.924114 0
M  V30 33 H -1.191867 3.172811 2.553201 0
M  V30 34 H 0.035065 1.900958 2.259118 0
M  V30 35 H -2.376042 2.501297 0.739644 0
M  V30 36 H -1.053186 -2.660238 1.058205 0
M  V30 END ATOM
M  V30 BEGIN BOND
M  V30 1 1 1 2
M  V30 2 1 2 3
M  V30 3 2 3 4
M  V30 4 1 4 5
M  V30 5 2 5 6
M  V30 6 1 6 7
M  V30 7 1 7 8
M  V30 8 1 8 9
M  V30 9 2 9 10
M  V30 10 1 9 11
M  V30 11 1 11 12
M  V30 12 1 12 13
M  V30 13 1 13 14
M  V30 14 1 14 15
M  V30 15 1 15 16
M  V30 16 1 15 17
M  V30 17 1 17 18
M  V30 18 2 12 19
M  V30 19 1 19 20
M  V30 20 1 20 21
M  V30 21 2 21 22
M  V30 22 1 22 3
M  V30 23 1 21 6
M  V30 24 2 20 8
M  V30 25 1 18 13
M  V30 26 1 1 23
M  V30 27 1 1 24
M  V30 28 1 1 25
M  V30 29 1 4 26
M  V30 30 1 5 27
M  V30 31 1 11 28
M  V30 32 1 13 29 CFG=3
M  V30 33 1 14 30
M  V30 34 1 14 31
M  V30 35 1 15 32 CFG=3
M  V30 36 1 17 33
M  V30 37 1 17 34
M  V30 38 1 18 35
M  V30 39 1 22 36
M  V30 END BOND
M  V30 END CTAB
M  END
>  <Dataset>  (447) 
ChEMBL_Kinases

>  <Ligand_Instance>  (447) 
nan

>  <PDB_ID>  (447) 
nan

>  <Standardized_SMILES>  (447) 
COc1ccc2oc3c(=O)[nH]c([C@@H]4C[C@@H](F)CN4)nc3c2c1

>  <Name>  (447) 
nan

>  <Pocket>  (447) 
nan

>  <ATP_Site>  (447) 
nan

>  <Peripheral>  (447) 
nan

>  <Num_H_Atoms_ProtBoundConf>  (447) 
nan

>  <Num_Resolved_Atoms>  (447) 
nan

>  <Num_Not_Resolved_Atoms>  (447) 
nan

$$$$
CHEMBL2030394
     RDKit          3D

  0  0  0  0  0  0  0  0  0  0999 V3000
M  V30 BEGIN CTAB
M  V30 COUNTS 32 35 0 0 0
M  V30 BEGIN ATOM
M  V30 1 O 1.331566 1.305270 3.504238 0
M  V30 2 C 0.845620 0.714355 2.502271 0
M  V30 3 N 1.124138 -0.599056 2.362602 0
M  V30 4 C 0.604751 -1.234048 1.290234 0
M  V30 5 C 0.866529 -2.663706 1.074623 0 CFG=1
M  V30 6 C 2.290073 -2.988521 0.712019 0
M  V30 7 C 2.293900 -4.495821 0.868450 0
M  V30 8 C 1.236898 -4.748361 1.909811 0
M  V30 9 N 0.713970 -3.448731 2.289257 0
M  V30 10 N -0.164733 -0.592332 0.385329 0
M  V30 11 C -0.472903 0.714138 0.476443 0
M  V30 12 C 0.050166 1.379148 1.567447 0
M  V30 13 O -0.345702 2.613720 1.492764 0
M  V30 14 C -1.093845 2.809516 0.427954 0
M  V30 15 C -1.754665 3.898051 -0.116917 0
M  V30 16 C -2.474583 3.751299 -1.286397 0
M  V30 17 C -2.553067 2.533441 -1.933262 0
M  V30 18 Br -3.550271 2.323268 -3.556159 0
M  V30 19 C -1.907752 1.398586 -1.432237 0
M  V30 20 C -1.209614 1.620408 -0.263774 0
M  V30 21 H 1.707791 -1.151973 3.020390 0
M  V30 22 H 0.188504 -3.103192 0.329040 0
M  V30 23 H 2.520947 -2.673553 -0.326075 0
M  V30 24 H 3.002996 -2.581124 1.452175 0
M  V30 25 H 3.291417 -4.878433 1.163627 0
M  V30 26 H 1.934154 -4.957341 -0.094522 0
M  V30 27 H 1.716084 -5.256273 2.775776 0
M  V30 28 H 0.398539 -5.380858 1.501007 0
M  V30 29 H -0.315148 -3.516362 2.471492 0
M  V30 30 H -1.666351 4.831696 0.422200 0
M  V30 31 H -2.986246 4.611796 -1.700685 0
M  V30 32 H -1.925279 0.420694 -1.881747 0
M  V30 END ATOM
M  V30 BEGIN BOND
M  V30 1 2 1 2
M  V30 2 1 2 3
M  V30 3 1 3 4
M  V30 4 1 4 5
M  V30 5 1 5 6
M  V30 6 1 6 7
M  V30 7 1 7 8
M  V30 8 1 8 9
M  V30 9 2 4 10
M  V30 10 1 10 11
M  V30 11 2 11 12
M  V30 12 1 12 13
M  V30 13 1 13 14
M  V30 14 2 14 15
M  V30 15 1 15 16
M  V30 16 2 16 17
M  V30 17 1 17 18
M  V30 18 1 17 19
M  V30 19 2 19 20
M  V30 20 1 12 2
M  V30 21 1 20 14
M  V30 22 1 9 5
M  V30 23 1 20 11
M  V30 24 1 3 21
M  V30 25 1 5 22 CFG=3
M  V30 26 1 6 23
M  V30 27 1 6 24
M  V30 28 1 7 25
M  V30 29 1 7 26
M  V30 30 1 8 27
M  V30 31 1 8 28
M  V30 32 1 9 29
M  V30 33 1 15 30
M  V30 34 1 16 31
M  V30 35 1 19 32
M  V30 END BOND
M  V30 END CTAB
M  END
>  <Dataset>  (448) 
ChEMBL_Kinases

>  <Ligand_Instance>  (448) 
nan

>  <PDB_ID>  (448) 
nan

>  <Standardized_SMILES>  (448) 
O=c1[nH]c([C@H]2CCCN2)nc2c1oc1ccc(Br)cc12

>  <Name>  (448) 
nan

>  <Pocket>  (448) 
nan

>  <ATP_Site>  (448) 
nan

>  <Peripheral>  (448) 
nan

>  <Num_H_Atoms_ProtBoundConf>  (448) 
nan

>  <Num_Resolved_Atoms>  (448) 
nan

>  <Num_Not_Resolved_Atoms>  (448) 
nan

$$$$
CHEMBL2030403
     RDKit          3D

  0  0  0  0  0  0  0  0  0  0999 V3000
M  V30 BEGIN CTAB
M  V30 COUNTS 36 39 0 0 0
M  V30 BEGIN ATOM
M  V30 1 C 0.064113 -4.274023 4.181444 0
M  V30 2 O -0.452827 -5.070125 3.113473 0
M  V30 3 C -0.577503 -4.491668 1.855784 0
M  V30 4 C -1.080993 -5.275980 0.827200 0
M  V30 5 C -1.226145 -4.745723 -0.451156 0
M  V30 6 C -0.880429 -3.436030 -0.745913 0
M  V30 7 O -0.891779 -2.655526 -1.805209 0
M  V30 8 C -0.440973 -1.468887 -1.513036 0
M  V30 9 C -0.231812 -0.281242 -2.204457 0
M  V30 10 O -0.529166 -0.274764 -3.421611 0
M  V30 11 N 0.270195 0.836818 -1.615138 0
M  V30 12 C 0.580085 0.798937 -0.306264 0
M  V30 13 C 1.129675 2.017479 0.346087 0 CFG=2
M  V30 14 C -0.007418 3.048899 0.330953 0
M  V30 15 C 0.759146 4.308608 0.662019 0
M  V30 16 C 2.107401 4.044699 0.054754 0
M  V30 17 N 2.145814 2.679908 -0.400993 0
M  V30 18 N 0.384304 -0.341827 0.378688 0
M  V30 19 C -0.105572 -1.457126 -0.164905 0
M  V30 20 C -0.385543 -2.715500 0.330483 0
M  V30 21 C -0.219839 -3.184698 1.613134 0
M  V30 22 H -0.032262 -4.838237 5.139718 0
M  V30 23 H -0.461150 -3.291454 4.226410 0
M  V30 24 H 1.128260 -4.117349 3.957863 0
M  V30 25 H -1.372987 -6.314729 0.988629 0
M  V30 26 H -1.621701 -5.363848 -1.256690 0
M  V30 27 H 0.413845 1.715496 -2.171760 0
M  V30 28 H 1.410306 1.801808 1.393374 0
M  V30 29 H -0.787466 2.800172 1.046658 0
M  V30 30 H -0.305951 3.124980 -0.717068 0
M  V30 31 H 0.810086 4.426558 1.782810 0
M  V30 32 H 0.224432 5.162830 0.229333 0
M  V30 33 H 2.189600 4.686068 -0.865611 0
M  V30 34 H 2.933277 4.289249 0.753081 0
M  V30 35 H 3.101738 2.287405 -0.173307 0
M  V30 36 H 0.172905 -2.558051 2.396205 0
M  V30 END ATOM
M  V30 BEGIN BOND
M  V30 1 1 1 2
M  V30 2 1 2 3
M  V30 3 2 3 4
M  V30 4 1 4 5
M  V30 5 2 5 6
M  V30 6 1 6 7
M  V30 7 1 7 8
M  V30 8 1 8 9
M  V30 9 2 9 10
M  V30 10 1 9 11
M  V30 11 1 11 12
M  V30 12 1 12 13
M  V30 13 1 13 14
M  V30 14 1 14 15
M  V30 15 1 15 16
M  V30 16 1 16 17
M  V30 17 2 12 18
M  V30 18 1 18 19
M  V30 19 1 19 20
M  V30 20 2 20 21
M  V30 21 1 21 3
M  V30 22 1 20 6
M  V30 23 2 19 8
M  V30 24 1 17 13
M  V30 25 1 1 22
M  V30 26 1 1 23
M  V30 27 1 1 24
M  V30 28 1 4 25
M  V30 29 1 5 26
M  V30 30 1 11 27
M  V30 31 1 13 28 CFG=1
M  V30 32 1 14 29
M  V30 33 1 14 30
M  V30 34 1 15 31
M  V30 35 1 15 32
M  V30 36 1 16 33
M  V30 37 1 16 34
M  V30 38 1 17 35
M  V30 39 1 21 36
M  V30 END BOND
M  V30 END CTAB
M  END
>  <Dataset>  (449) 
ChEMBL_Kinases

>  <Ligand_Instance>  (449) 
nan

>  <PDB_ID>  (449) 
nan

>  <Standardized_SMILES>  (449) 
COc1ccc2oc3c(=O)[nH]c([C@@H]4CCCN4)nc3c2c1

>  <Name>  (449) 
nan

>  <Pocket>  (449) 
nan

>  <ATP_Site>  (449) 
nan

>  <Peripheral>  (449) 
nan

>  <Num_H_Atoms_ProtBoundConf>  (449) 
nan

>  <Num_Resolved_Atoms>  (449) 
nan

>  <Num_Not_Resolved_Atoms>  (449) 
nan

$$$$
CHEMBL552324
     RDKit          3D

  0  0  0  0  0  0  0  0  0  0999 V3000
M  V30 BEGIN CTAB
M  V30 COUNTS 29 31 0 0 0
M  V30 BEGIN ATOM
M  V30 1 C -2.777978 -0.889716 3.138452 0
M  V30 2 N -1.663586 -0.700290 2.250605 0
M  V30 3 C -1.648473 -1.142701 0.979611 0
M  V30 4 C -0.428816 -0.805485 0.425809 0
M  V30 5 C 0.243394 -0.997115 -0.847100 0
M  V30 6 N 1.380681 -1.677791 -0.907369 0
M  V30 7 C 2.168987 -1.974096 -1.908649 0
M  V30 8 N 3.318301 -2.727304 -1.611725 0
M  V30 9 N 1.778529 -1.521381 -3.105986 0
M  V30 10 C 0.656820 -0.810790 -3.291170 0
M  V30 11 C -0.041231 -0.592127 -2.142658 0
M  V30 12 I -1.843827 0.529479 -2.254183 0
M  V30 13 C 0.291116 -0.139389 1.421076 0
M  V30 14 C 1.531082 0.452287 1.542212 0
M  V30 15 C 2.015498 1.070461 2.670638 0
M  V30 16 C 1.181122 1.101038 3.786412 0
M  V30 17 C -0.082522 0.511151 3.701251 0
M  V30 18 C -0.495163 -0.086801 2.540902 0
M  V30 19 H -2.501275 -0.580246 4.175136 0
M  V30 20 H -3.015568 -1.988568 3.159150 0
M  V30 21 H -3.690008 -0.393617 2.774215 0
M  V30 22 H -2.370362 -1.676213 0.359289 0
M  V30 23 H 3.134220 -3.618255 -1.063415 0
M  V30 24 H 4.275062 -3.057240 -1.538676 0
M  V30 25 H 0.279570 -0.415418 -4.210763 0
M  V30 26 H 2.192721 0.441146 0.688018 0
M  V30 27 H 3.010419 1.518011 2.672590 0
M  V30 28 H 1.558845 1.592404 4.681903 0
M  V30 29 H -0.734663 0.526165 4.563119 0
M  V30 END ATOM
M  V30 BEGIN BOND
M  V30 1 1 1 2
M  V30 2 1 2 3
M  V30 3 2 3 4
M  V30 4 1 4 5
M  V30 5 2 5 6
M  V30 6 1 6 7
M  V30 7 1 7 8
M  V30 8 2 7 9
M  V30 9 1 9 10
M  V30 10 2 10 11
M  V30 11 1 11 12
M  V30 12 1 4 13
M  V30 13 2 13 14
M  V30 14 1 14 15
M  V30 15 2 15 16
M  V30 16 1 16 17
M  V30 17 2 17 18
M  V30 18 1 18 2
M  V30 19 1 11 5
M  V30 20 1 18 13
M  V30 21 1 1 19
M  V30 22 1 1 20
M  V30 23 1 1 21
M  V30 24 1 3 22
M  V30 25 1 8 23
M  V30 26 1 8 24
M  V30 27 1 10 25
M  V30 28 1 14 26
M  V30 29 1 15 27
M  V30 30 1 16 28
M  V30 31 1 17 29
M  V30 END BOND
M  V30 END CTAB
M  END
>  <Dataset>  (450) 
ChEMBL_Kinases

>  <Ligand_Instance>  (450) 
nan

>  <PDB_ID>  (450) 
nan

>  <Standardized_SMILES>  (450) 
Cn1cc(-c2nc(N)ncc2I)c2ccccc21

>  <Name>  (450) 
nan

>  <Pocket>  (450) 
nan

>  <ATP_Site>  (450) 
nan

>  <Peripheral>  (450) 
nan

>  <Num_H_Atoms_ProtBoundConf>  (450) 
nan

>  <Num_Resolved_Atoms>  (450) 
nan

>  <Num_Not_Resolved_Atoms>  (450) 
nan

$$$$
CHEMBL2030402
     RDKit          3D

  0  0  0  0  0  0  0  0  0  0999 V3000
M  V30 BEGIN CTAB
M  V30 COUNTS 32 35 0 0 0
M  V30 BEGIN ATOM
M  V30 1 O 0.489065 1.463818 3.657394 0
M  V30 2 C 0.313060 0.799323 2.600545 0
M  V30 3 N 1.259038 -0.069842 2.163772 0
M  V30 4 C 1.040893 -0.763889 1.032334 0
M  V30 5 C 2.050384 -1.702956 0.550224 0 CFG=2
M  V30 6 C 2.227512 -2.927877 1.451696 0
M  V30 7 C 3.414828 -3.572930 0.761405 0
M  V30 8 C 4.160095 -2.390432 0.195769 0
M  V30 9 N 3.409637 -1.209009 0.578936 0
M  V30 10 N -0.099490 -0.582667 0.365165 0
M  V30 11 C -1.065618 0.272366 0.766272 0
M  V30 12 C -0.876909 1.009849 1.933874 0
M  V30 13 O -1.958563 1.728731 2.054533 0
M  V30 14 C -2.804732 1.521063 1.088180 0
M  V30 15 C -4.065509 2.029903 0.775483 0
M  V30 16 C -4.714608 1.579973 -0.366148 0
M  V30 17 C -4.148627 0.631455 -1.217699 0
M  V30 18 Cl -4.953914 0.054150 -2.660380 0
M  V30 19 C -2.895416 0.105131 -0.935175 0
M  V30 20 C -2.294428 0.585362 0.209514 0
M  V30 21 H 2.155033 -0.204936 2.697999 0
M  V30 22 H 1.823772 -2.108230 -0.445665 0
M  V30 23 H 2.537620 -2.556602 2.459663 0
M  V30 24 H 1.327826 -3.563760 1.475791 0
M  V30 25 H 4.023604 -4.196210 1.442555 0
M  V30 26 H 2.992612 -4.162394 -0.089022 0
M  V30 27 H 4.168360 -2.428161 -0.924996 0
M  V30 28 H 5.202726 -2.394197 0.530749 0
M  V30 29 H 3.574554 -0.401945 -0.025337 0
M  V30 30 H -4.511092 2.765819 1.430948 0
M  V30 31 H -5.698532 1.976519 -0.610939 0
M  V30 32 H -2.385298 -0.631721 -1.540066 0
M  V30 END ATOM
M  V30 BEGIN BOND
M  V30 1 2 1 2
M  V30 2 1 2 3
M  V30 3 1 3 4
M  V30 4 1 4 5
M  V30 5 1 5 6
M  V30 6 1 6 7
M  V30 7 1 7 8
M  V30 8 1 8 9
M  V30 9 2 4 10
M  V30 10 1 10 11
M  V30 11 2 11 12
M  V30 12 1 12 13
M  V30 13 1 13 14
M  V30 14 2 14 15
M  V30 15 1 15 16
M  V30 16 2 16 17
M  V30 17 1 17 18
M  V30 18 1 17 19
M  V30 19 2 19 20
M  V30 20 1 12 2
M  V30 21 1 20 14
M  V30 22 1 9 5
M  V30 23 1 20 11
M  V30 24 1 3 21
M  V30 25 1 5 22 CFG=3
M  V30 26 1 6 23
M  V30 27 1 6 24
M  V30 28 1 7 25
M  V30 29 1 7 26
M  V30 30 1 8 27
M  V30 31 1 8 28
M  V30 32 1 9 29
M  V30 33 1 15 30
M  V30 34 1 16 31
M  V30 35 1 19 32
M  V30 END BOND
M  V30 END CTAB
M  END
>  <Dataset>  (451) 
ChEMBL_Kinases

>  <Ligand_Instance>  (451) 
nan

>  <PDB_ID>  (451) 
nan

>  <Standardized_SMILES>  (451) 
O=c1[nH]c([C@@H]2CCCN2)nc2c1oc1ccc(Cl)cc12

>  <Name>  (451) 
nan

>  <Pocket>  (451) 
nan

>  <ATP_Site>  (451) 
nan

>  <Peripheral>  (451) 
nan

>  <Num_H_Atoms_ProtBoundConf>  (451) 
nan

>  <Num_Resolved_Atoms>  (451) 
nan

>  <Num_Not_Resolved_Atoms>  (451) 
nan

$$$$
CHEMBL2030401
     RDKit          3D

  0  0  0  0  0  0  0  0  0  0999 V3000
M  V30 BEGIN CTAB
M  V30 COUNTS 32 35 0 0 0
M  V30 BEGIN ATOM
M  V30 1 O 3.120773 0.579922 -1.833938 0
M  V30 2 C 2.238068 0.200930 -1.034852 0
M  V30 3 N 2.125639 -1.083405 -0.650093 0
M  V30 4 C 1.214462 -1.560970 0.194535 0
M  V30 5 C 1.067756 -2.950290 0.630985 0 CFG=2
M  V30 6 C -0.230924 -3.524709 0.098713 0
M  V30 7 C -0.321693 -4.798747 0.924148 0 CFG=2
M  V30 8 F -1.610680 -5.250959 1.056807 0
M  V30 9 C 0.331320 -4.430640 2.223587 0
M  V30 10 N 0.858365 -3.073505 2.064214 0
M  V30 11 N 0.316608 -0.677311 0.716777 0
M  V30 12 C 0.374303 0.638498 0.368983 0
M  V30 13 C 1.325314 1.119248 -0.508519 0
M  V30 14 O 1.158741 2.426699 -0.673420 0
M  V30 15 C 0.145517 2.840052 0.049595 0
M  V30 16 C -0.376272 4.113876 0.179041 0
M  V30 17 C -1.470780 4.184670 1.046072 0
M  V30 18 C -2.040518 3.140961 1.744776 0
M  V30 19 Br -3.539431 3.463192 2.880563 0
M  V30 20 C -1.452195 1.912533 1.551247 0
M  V30 21 C -0.369337 1.747146 0.715273 0
M  V30 22 H 2.784938 -1.817666 -1.014018 0
M  V30 23 H 1.862954 -3.620461 0.261903 0
M  V30 24 H -0.153305 -3.738627 -0.985941 0
M  V30 25 H -1.054927 -2.837108 0.344265 0
M  V30 26 H 0.294450 -5.555156 0.373659 0
M  V30 27 H 1.248419 -5.070627 2.359617 0
M  V30 28 H -0.347296 -4.516238 3.079580 0
M  V30 29 H 0.023243 -2.451060 2.279473 0
M  V30 30 H -0.017981 4.995295 -0.311879 0
M  V30 31 H -1.918572 5.181586 1.179212 0
M  V30 32 H -1.889071 1.068571 2.097012 0
M  V30 END ATOM
M  V30 BEGIN BOND
M  V30 1 2 1 2
M  V30 2 1 2 3
M  V30 3 1 3 4
M  V30 4 1 4 5
M  V30 5 1 5 6
M  V30 6 1 6 7
M  V30 7 1 7 8
M  V30 8 1 7 9
M  V30 9 1 9 10
M  V30 10 2 4 11
M  V30 11 1 11 12
M  V30 12 2 12 13
M  V30 13 1 13 14
M  V30 14 1 14 15
M  V30 15 2 15 16
M  V30 16 1 16 17
M  V30 17 2 17 18
M  V30 18 1 18 19
M  V30 19 1 18 20
M  V30 20 2 20 21
M  V30 21 1 13 2
M  V30 22 1 21 15
M  V30 23 1 10 5
M  V30 24 1 21 12
M  V30 25 1 3 22
M  V30 26 1 5 23 CFG=3
M  V30 27 1 6 24
M  V30 28 1 6 25
M  V30 29 1 7 26 CFG=3
M  V30 30 1 9 27
M  V30 31 1 9 28
M  V30 32 1 10 29
M  V30 33 1 16 30
M  V30 34 1 17 31
M  V30 35 1 20 32
M  V30 END BOND
M  V30 END CTAB
M  END
>  <Dataset>  (452) 
ChEMBL_Kinases

>  <Ligand_Instance>  (452) 
nan

>  <PDB_ID>  (452) 
nan

>  <Standardized_SMILES>  (452) 
O=c1[nH]c([C@@H]2C[C@H](F)CN2)nc2c1oc1ccc(Br)cc12

>  <Name>  (452) 
nan

>  <Pocket>  (452) 
nan

>  <ATP_Site>  (452) 
nan

>  <Peripheral>  (452) 
nan

>  <Num_H_Atoms_ProtBoundConf>  (452) 
nan

>  <Num_Resolved_Atoms>  (452) 
nan

>  <Num_Not_Resolved_Atoms>  (452) 
nan

$$$$
CHEMBL2030400
     RDKit          3D

  0  0  0  0  0  0  0  0  0  0999 V3000
M  V30 BEGIN CTAB
M  V30 COUNTS 32 35 0 0 0
M  V30 BEGIN ATOM
M  V30 1 O -1.532567 -3.052934 2.277034 0
M  V30 2 C -0.934621 -2.076662 1.774509 0
M  V30 3 N 0.183068 -2.280046 1.061477 0
M  V30 4 C 0.888133 -1.297270 0.487574 0
M  V30 5 C 2.129676 -1.474398 -0.314724 0 CFG=2
M  V30 6 C 1.857506 -1.891170 -1.733648 0
M  V30 7 C 2.098774 -3.380586 -1.676837 0 CFG=1
M  V30 8 F 2.419240 -3.898919 -2.913732 0
M  V30 9 C 3.249915 -3.466314 -0.709024 0
M  V30 10 N 3.056717 -2.410116 0.234010 0
M  V30 11 N 0.415851 -0.043369 0.658639 0
M  V30 12 C -0.698640 0.209022 1.364171 0
M  V30 13 C -1.420670 -0.805947 1.952684 0
M  V30 14 O -2.456876 -0.310056 2.579455 0
M  V30 15 C -2.493359 0.986188 2.458867 0
M  V30 16 C -3.341887 1.971900 2.907450 0
M  V30 17 C -3.163431 3.304845 2.641278 0
M  V30 18 C -2.059370 3.647901 1.876251 0
M  V30 19 Br -1.754287 5.485970 1.470393 0
M  V30 20 C -1.163629 2.696342 1.392779 0
M  V30 21 C -1.398405 1.368617 1.695441 0
M  V30 22 H 0.514400 -3.247195 0.954654 0
M  V30 23 H 2.680683 -0.486506 -0.373031 0
M  V30 24 H 2.621178 -1.411611 -2.397616 0
M  V30 25 H 0.826084 -1.645929 -2.060038 0
M  V30 26 H 1.217407 -3.866038 -1.230464 0
M  V30 27 H 4.223409 -3.390314 -1.257392 0
M  V30 28 H 3.178880 -4.482355 -0.238688 0
M  V30 29 H 2.899440 -2.697531 1.209516 0
M  V30 30 H -4.175282 1.614686 3.495884 0
M  V30 31 H -3.869238 4.026957 3.025338 0
M  V30 32 H -0.300214 2.958538 0.795164 0
M  V30 END ATOM
M  V30 BEGIN BOND
M  V30 1 2 1 2
M  V30 2 1 2 3
M  V30 3 1 3 4
M  V30 4 1 4 5
M  V30 5 1 5 6
M  V30 6 1 6 7
M  V30 7 1 7 8
M  V30 8 1 7 9
M  V30 9 1 9 10
M  V30 10 2 4 11
M  V30 11 1 11 12
M  V30 12 2 12 13
M  V30 13 1 13 14
M  V30 14 1 14 15
M  V30 15 2 15 16
M  V30 16 1 16 17
M  V30 17 2 17 18
M  V30 18 1 18 19
M  V30 19 1 18 20
M  V30 20 2 20 21
M  V30 21 1 13 2
M  V30 22 1 21 15
M  V30 23 1 10 5
M  V30 24 1 21 12
M  V30 25 1 3 22
M  V30 26 1 5 23 CFG=3
M  V30 27 1 6 24
M  V30 28 1 6 25
M  V30 29 1 7 26 CFG=1
M  V30 30 1 9 27
M  V30 31 1 9 28
M  V30 32 1 10 29
M  V30 33 1 16 30
M  V30 34 1 17 31
M  V30 35 1 20 32
M  V30 END BOND
M  V30 END CTAB
M  END
>  <Dataset>  (453) 
ChEMBL_Kinases

>  <Ligand_Instance>  (453) 
nan

>  <PDB_ID>  (453) 
nan

>  <Standardized_SMILES>  (453) 
O=c1[nH]c([C@@H]2C[C@@H](F)CN2)nc2c1oc1ccc(Br)cc12

>  <Name>  (453) 
nan

>  <Pocket>  (453) 
nan

>  <ATP_Site>  (453) 
nan

>  <Peripheral>  (453) 
nan

>  <Num_H_Atoms_ProtBoundConf>  (453) 
nan

>  <Num_Resolved_Atoms>  (453) 
nan

>  <Num_Not_Resolved_Atoms>  (453) 
nan

$$$$
CHEMBL2030399
     RDKit          3D

  0  0  0  0  0  0  0  0  0  0999 V3000
M  V30 BEGIN CTAB
M  V30 COUNTS 33 36 0 0 0
M  V30 BEGIN ATOM
M  V30 1 O 2.883507 2.203703 0.322583 0
M  V30 2 C 1.941657 1.373699 0.266079 0
M  V30 3 N 2.308699 0.064633 0.156023 0
M  V30 4 C 1.300316 -0.815642 0.096206 0
M  V30 5 C 1.649437 -2.260316 -0.024569 0 CFG=2
M  V30 6 C 0.432836 -3.108825 0.252552 0
M  V30 7 C 0.821916 -4.077130 1.324154 0 CFG=1
M  V30 8 O 0.592116 -5.368114 0.812302 0
M  V30 9 C 2.262862 -3.822218 1.595218 0
M  V30 10 N 2.698033 -2.667460 0.864853 0
M  V30 11 N -0.010914 -0.469733 0.139010 0
M  V30 12 C -0.368112 0.824302 0.247734 0
M  V30 13 C 0.620659 1.766134 0.312754 0
M  V30 14 O 0.026858 2.924053 0.413138 0
M  V30 15 C -1.270915 2.787767 0.416776 0
M  V30 16 C -2.338971 3.680861 0.501095 0
M  V30 17 C -3.653782 3.275382 0.483150 0
M  V30 18 C -3.911288 1.905478 0.375242 0
M  V30 19 Br -5.704855 1.258707 0.343235 0
M  V30 20 C -2.893676 0.961397 0.287371 0
M  V30 21 C -1.609268 1.454089 0.312709 0
M  V30 22 H 3.297720 -0.266866 0.117987 0
M  V30 23 H 1.941461 -2.492090 -1.091029 0
M  V30 24 H -0.393378 -2.446930 0.631907 0
M  V30 25 H 0.029191 -3.607091 -0.662421 0
M  V30 26 H 0.165297 -3.973444 2.233465 0
M  V30 27 H 0.028132 -5.342811 0.004787 0
M  V30 28 H 2.370344 -3.701023 2.705538 0
M  V30 29 H 2.864300 -4.739596 1.349987 0
M  V30 30 H 3.539599 -2.942602 0.308298 0
M  V30 31 H -2.132046 4.747493 0.585037 0
M  V30 32 H -4.464953 3.985896 0.549798 0
M  V30 33 H -3.081802 -0.093775 0.204140 0
M  V30 END ATOM
M  V30 BEGIN BOND
M  V30 1 2 1 2
M  V30 2 1 2 3
M  V30 3 1 3 4
M  V30 4 1 4 5
M  V30 5 1 5 6
M  V30 6 1 6 7
M  V30 7 1 7 8
M  V30 8 1 7 9
M  V30 9 1 9 10
M  V30 10 2 4 11
M  V30 11 1 11 12
M  V30 12 2 12 13
M  V30 13 1 13 14
M  V30 14 1 14 15
M  V30 15 2 15 16
M  V30 16 1 16 17
M  V30 17 2 17 18
M  V30 18 1 18 19
M  V30 19 1 18 20
M  V30 20 2 20 21
M  V30 21 1 13 2
M  V30 22 1 21 15
M  V30 23 1 10 5
M  V30 24 1 21 12
M  V30 25 1 3 22
M  V30 26 1 5 23 CFG=3
M  V30 27 1 6 24
M  V30 28 1 6 25
M  V30 29 1 7 26 CFG=1
M  V30 30 1 8 27
M  V30 31 1 9 28
M  V30 32 1 9 29
M  V30 33 1 10 30
M  V30 34 1 16 31
M  V30 35 1 17 32
M  V30 36 1 20 33
M  V30 END BOND
M  V30 END CTAB
M  END
>  <Dataset>  (454) 
ChEMBL_Kinases

>  <Ligand_Instance>  (454) 
nan

>  <PDB_ID>  (454) 
nan

>  <Standardized_SMILES>  (454) 
O=c1[nH]c([C@@H]2C[C@@H](O)CN2)nc2c1oc1ccc(Br)cc12

>  <Name>  (454) 
nan

>  <Pocket>  (454) 
nan

>  <ATP_Site>  (454) 
nan

>  <Peripheral>  (454) 
nan

>  <Num_H_Atoms_ProtBoundConf>  (454) 
nan

>  <Num_Resolved_Atoms>  (454) 
nan

>  <Num_Not_Resolved_Atoms>  (454) 
nan

$$$$
CHEMBL2030398
     RDKit          3D

  0  0  0  0  0  0  0  0  0  0999 V3000
M  V30 BEGIN CTAB
M  V30 COUNTS 35 38 0 0 0
M  V30 BEGIN ATOM
M  V30 1 C 2.179287 -1.429701 -0.086113 0
M  V30 2 N 1.549608 -2.710398 -0.009490 0
M  V30 3 C 2.514880 -3.658063 0.516442 0
M  V30 4 C 2.550079 -3.267342 1.981946 0
M  V30 5 C 1.211322 -2.619012 2.265724 0
M  V30 6 C 0.484209 -2.794446 0.963058 0 CFG=1
M  V30 7 C -0.571998 -1.769134 0.772979 0
M  V30 8 N -0.202886 -0.499843 0.532655 0
M  V30 9 C -1.123247 0.492808 0.348327 0
M  V30 10 C -2.471398 0.192892 0.408887 0
M  V30 11 O -3.099775 1.324655 0.197466 0
M  V30 12 C -2.254611 2.318172 0.007688 0
M  V30 13 C -2.467929 3.673490 -0.247110 0
M  V30 14 C -1.330015 4.455926 -0.397983 0
M  V30 15 C -0.030304 3.994994 -0.315004 0
M  V30 16 Br 1.449028 5.186805 -0.544050 0
M  V30 17 C 0.151129 2.648662 -0.061803 0
M  V30 18 C -0.957111 1.842313 0.093490 0
M  V30 19 C -2.853390 -1.110367 0.655651 0
M  V30 20 O -4.075053 -1.381222 0.710359 0
M  V30 21 N -1.884434 -2.030911 0.826242 0
M  V30 22 H 2.140157 -0.811884 0.806671 0
M  V30 23 H 1.752144 -0.802390 -0.915224 0
M  V30 24 H 3.278604 -1.507264 -0.334184 0
M  V30 25 H 2.192464 -4.694000 0.348470 0
M  V30 26 H 3.515228 -3.493397 0.046093 0
M  V30 27 H 3.385797 -2.539620 2.169283 0
M  V30 28 H 2.676925 -4.177275 2.586680 0
M  V30 29 H 1.385151 -1.562208 2.544917 0
M  V30 30 H 0.683678 -3.147414 3.095000 0
M  V30 31 H 0.084727 -3.820545 0.956103 0
M  V30 32 H -3.455144 4.110831 -0.326582 0
M  V30 33 H -1.526320 5.516906 -0.597366 0
M  V30 34 H 1.157380 2.233827 0.013369 0
M  V30 35 H -2.144020 -3.037298 1.016699 0
M  V30 END ATOM
M  V30 BEGIN BOND
M  V30 1 1 1 2
M  V30 2 1 2 3
M  V30 3 1 3 4
M  V30 4 1 4 5
M  V30 5 1 5 6
M  V30 6 1 6 7
M  V30 7 2 7 8
M  V30 8 1 8 9
M  V30 9 2 9 10
M  V30 10 1 10 11
M  V30 11 1 11 12
M  V30 12 2 12 13
M  V30 13 1 13 14
M  V30 14 2 14 15
M  V30 15 1 15 16
M  V30 16 1 15 17
M  V30 17 2 17 18
M  V30 18 1 10 19
M  V30 19 2 19 20
M  V30 20 1 19 21
M  V30 21 1 6 2
M  V30 22 1 21 7
M  V30 23 1 18 9
M  V30 24 1 18 12
M  V30 25 1 1 22
M  V30 26 1 1 23
M  V30 27 1 1 24
M  V30 28 1 3 25
M  V30 29 1 3 26
M  V30 30 1 4 27
M  V30 31 1 4 28
M  V30 32 1 5 29
M  V30 33 1 5 30
M  V30 34 1 6 31 CFG=1
M  V30 35 1 13 32
M  V30 36 1 14 33
M  V30 37 1 17 34
M  V30 38 1 21 35
M  V30 END BOND
M  V30 END CTAB
M  END
>  <Dataset>  (455) 
ChEMBL_Kinases

>  <Ligand_Instance>  (455) 
nan

>  <PDB_ID>  (455) 
nan

>  <Standardized_SMILES>  (455) 
CN1CCC[C@H]1c1nc2c(oc3ccc(Br)cc32)c(=O)[nH]1

>  <Name>  (455) 
nan

>  <Pocket>  (455) 
nan

>  <ATP_Site>  (455) 
nan

>  <Peripheral>  (455) 
nan

>  <Num_H_Atoms_ProtBoundConf>  (455) 
nan

>  <Num_Resolved_Atoms>  (455) 
nan

>  <Num_Not_Resolved_Atoms>  (455) 
nan

$$$$
CHEMBL2030397
     RDKit          3D

  0  0  0  0  0  0  0  0  0  0999 V3000
M  V30 BEGIN CTAB
M  V30 COUNTS 28 30 0 0 0
M  V30 BEGIN ATOM
M  V30 1 C -1.108004 -1.872744 3.580464 0
M  V30 2 C 0.349209 -2.305536 3.392426 0
M  V30 3 N 0.357118 -3.755972 3.421768 0
M  V30 4 C 0.870949 -1.787202 2.086288 0
M  V30 5 N 0.206348 -0.791461 1.472462 0
M  V30 6 C 0.622002 -0.275877 0.290741 0
M  V30 7 C 1.776724 -0.820585 -0.273047 0
M  V30 8 O 1.956994 -0.167148 -1.376726 0
M  V30 9 C 1.029611 0.740780 -1.570987 0
M  V30 10 C 0.801809 1.667345 -2.586325 0
M  V30 11 C -0.296263 2.506759 -2.492272 0
M  V30 12 C -1.171602 2.452933 -1.422949 0
M  V30 13 Br -2.697857 3.593731 -1.256532 0
M  V30 14 C -0.977375 1.546518 -0.397150 0
M  V30 15 C 0.123893 0.725519 -0.520168 0
M  V30 16 C 2.438311 -1.849236 0.389470 0
M  V30 17 O 3.469984 -2.325427 -0.128646 0
M  V30 18 N 1.987637 -2.340009 1.576882 0
M  V30 19 H -1.632848 -2.154343 2.622765 0
M  V30 20 H -1.526645 -2.428557 4.430022 0
M  V30 21 H -1.185584 -0.771702 3.655651 0
M  V30 22 H 0.976150 -1.881917 4.200780 0
M  V30 23 H -0.567997 -4.154200 3.692688 0
M  V30 24 H 0.560602 -4.085065 2.447422 0
M  V30 25 H 1.462572 1.740963 -3.438880 0
M  V30 26 H -0.527437 3.247406 -3.248058 0
M  V30 27 H -1.592356 1.411804 0.487405 0
M  V30 28 H 2.499659 -3.119763 2.067116 0
M  V30 END ATOM
M  V30 BEGIN BOND
M  V30 1 1 1 2
M  V30 2 1 2 3
M  V30 3 1 2 4
M  V30 4 2 4 5
M  V30 5 1 5 6
M  V30 6 2 6 7
M  V30 7 1 7 8
M  V30 8 1 8 9
M  V30 9 2 9 10
M  V30 10 1 10 11
M  V30 11 2 11 12
M  V30 12 1 12 13
M  V30 13 1 12 14
M  V30 14 2 14 15
M  V30 15 1 7 16
M  V30 16 2 16 17
M  V30 17 1 16 18
M  V30 18 1 18 4
M  V30 19 1 15 6
M  V30 20 1 15 9
M  V30 21 1 1 19
M  V30 22 1 1 20
M  V30 23 1 1 21
M  V30 24 1 2 22
M  V30 25 1 3 23
M  V30 26 1 3 24
M  V30 27 1 10 25
M  V30 28 1 11 26
M  V30 29 1 14 27
M  V30 30 1 18 28
M  V30 END BOND
M  V30 END CTAB
M  END
>  <Dataset>  (456) 
ChEMBL_Kinases

>  <Ligand_Instance>  (456) 
nan

>  <PDB_ID>  (456) 
nan

>  <Standardized_SMILES>  (456) 
CC(N)c1nc2c(oc3ccc(Br)cc32)c(=O)[nH]1

>  <Name>  (456) 
nan

>  <Pocket>  (456) 
nan

>  <ATP_Site>  (456) 
nan

>  <Peripheral>  (456) 
nan

>  <Num_H_Atoms_ProtBoundConf>  (456) 
nan

>  <Num_Resolved_Atoms>  (456) 
nan

>  <Num_Not_Resolved_Atoms>  (456) 
nan

$$$$
CHEMBL2030396
     RDKit          3D

  0  0  0  0  0  0  0  0  0  0999 V3000
M  V30 BEGIN CTAB
M  V30 COUNTS 35 38 0 0 0
M  V30 BEGIN ATOM
M  V30 1 O -1.865078 -0.747246 3.773278 0
M  V30 2 C -1.245763 -0.458971 2.716206 0
M  V30 3 N -0.491584 -1.353206 2.040798 0
M  V30 4 C 0.179449 -1.080503 0.914936 0
M  V30 5 C 1.003532 -2.067628 0.181839 0
M  V30 6 C 2.109766 -2.662241 0.973977 0
M  V30 7 C 2.390457 -4.054898 0.515226 0
M  V30 8 N 2.221435 -4.306945 -0.873912 0
M  V30 9 C 0.954996 -3.883575 -1.415516 0
M  V30 10 C 0.116574 -3.213940 -0.320082 0
M  V30 11 N 0.072767 0.183111 0.451766 0
M  V30 12 C -0.660502 1.125218 1.072747 0
M  V30 13 C -1.349319 0.836635 2.232697 0
M  V30 14 O -1.966252 1.927283 2.608730 0
M  V30 15 C -1.717063 2.914701 1.755239 0
M  V30 16 C -2.119441 4.234445 1.701569 0
M  V30 17 C -1.665335 5.024343 0.642237 0
M  V30 18 C -0.827552 4.520490 -0.348550 0
M  V30 19 Br -0.230778 5.639433 -1.780440 0
M  V30 20 C -0.422364 3.209243 -0.303208 0
M  V30 21 C -0.886312 2.452260 0.754499 0
M  V30 22 H -0.436462 -2.316394 2.432557 0
M  V30 23 H 1.451981 -1.590641 -0.715588 0
M  V30 24 H 1.772113 -2.751184 2.044215 0
M  V30 25 H 3.014277 -2.022794 1.016305 0
M  V30 26 H 1.807070 -4.822734 1.086348 0
M  V30 27 H 3.456005 -4.289392 0.757759 0
M  V30 28 H 3.034900 -4.138704 -1.478982 0
M  V30 29 H 1.074675 -3.085904 -2.191995 0
M  V30 30 H 0.442308 -4.763044 -1.854031 0
M  V30 31 H -0.815261 -2.830396 -0.757158 0
M  V30 32 H -0.033252 -3.989275 0.460673 0
M  V30 33 H -2.765894 4.658687 2.448686 0
M  V30 34 H -1.940258 6.065809 0.536894 0
M  V30 35 H 0.230329 2.766502 -1.050425 0
M  V30 END ATOM
M  V30 BEGIN BOND
M  V30 1 2 1 2
M  V30 2 1 2 3
M  V30 3 1 3 4
M  V30 4 1 4 5
M  V30 5 1 5 6
M  V30 6 1 6 7
M  V30 7 1 7 8
M  V30 8 1 8 9
M  V30 9 1 9 10
M  V30 10 2 4 11
M  V30 11 1 11 12
M  V30 12 2 12 13
M  V30 13 1 13 14
M  V30 14 1 14 15
M  V30 15 2 15 16
M  V30 16 1 16 17
M  V30 17 2 17 18
M  V30 18 1 18 19
M  V30 19 1 18 20
M  V30 20 2 20 21
M  V30 21 1 13 2
M  V30 22 1 21 15
M  V30 23 1 10 5
M  V30 24 1 21 12
M  V30 25 1 3 22
M  V30 26 1 5 23
M  V30 27 1 6 24
M  V30 28 1 6 25
M  V30 29 1 7 26
M  V30 30 1 7 27
M  V30 31 1 8 28
M  V30 32 1 9 29
M  V30 33 1 9 30
M  V30 34 1 10 31
M  V30 35 1 10 32
M  V30 36 1 16 33
M  V30 37 1 17 34
M  V30 38 1 20 35
M  V30 END BOND
M  V30 END CTAB
M  END
>  <Dataset>  (457) 
ChEMBL_Kinases

>  <Ligand_Instance>  (457) 
nan

>  <PDB_ID>  (457) 
nan

>  <Standardized_SMILES>  (457) 
O=c1[nH]c(C2CCNCC2)nc2c1oc1ccc(Br)cc12

>  <Name>  (457) 
nan

>  <Pocket>  (457) 
nan

>  <ATP_Site>  (457) 
nan

>  <Peripheral>  (457) 
nan

>  <Num_H_Atoms_ProtBoundConf>  (457) 
nan

>  <Num_Resolved_Atoms>  (457) 
nan

>  <Num_Not_Resolved_Atoms>  (457) 
nan

$$$$
CHEMBL2030395
     RDKit          3D

  0  0  0  0  0  0  0  0  0  0999 V3000
M  V30 BEGIN CTAB
M  V30 COUNTS 35 38 0 0 0
M  V30 BEGIN ATOM
M  V30 1 O 2.123775 1.353116 3.970527 0
M  V30 2 C 1.550015 0.807588 2.987876 0
M  V30 3 N 1.951671 -0.408189 2.552842 0
M  V30 4 C 1.373778 -1.032679 1.510381 0
M  V30 5 C 1.848963 -2.387268 1.054593 0
M  V30 6 C 0.722734 -3.395219 1.045801 0
M  V30 7 C 0.463330 -3.931453 -0.362218 0
M  V30 8 C 0.104564 -2.722053 -1.211347 0
M  V30 9 N 1.180294 -1.782406 -1.152755 0
M  V30 10 C 2.315513 -2.220305 -0.377003 0
M  V30 11 N 0.368028 -0.423137 0.888420 0
M  V30 12 C -0.114122 0.790742 1.238055 0
M  V30 13 C 0.492803 1.421210 2.315036 0
M  V30 14 O -0.113624 2.558687 2.481169 0
M  V30 15 C -1.073991 2.742337 1.607262 0
M  V30 16 C -1.999839 3.733768 1.337154 0
M  V30 17 C -2.916881 3.624656 0.302729 0
M  V30 18 C -2.903506 2.487073 -0.482848 0
M  V30 19 Br -4.166308 2.323029 -1.916985 0
M  V30 20 C -2.021430 1.466725 -0.278777 0
M  V30 21 C -1.117486 1.620981 0.773693 0
M  V30 22 H 2.740514 -0.844615 3.069952 0
M  V30 23 H 2.684880 -2.713541 1.698218 0
M  V30 24 H -0.223488 -2.936260 1.392232 0
M  V30 25 H 1.008669 -4.222483 1.730987 0
M  V30 26 H -0.403214 -4.619716 -0.276237 0
M  V30 27 H 1.302996 -4.487157 -0.780977 0
M  V30 28 H -0.851804 -2.319777 -0.772246 0
M  V30 29 H -0.157458 -3.001065 -2.252296 0
M  V30 30 H 1.437558 -1.457984 -2.107281 0
M  V30 31 H 2.815306 -3.118105 -0.769142 0
M  V30 32 H 3.063316 -1.393991 -0.422309 0
M  V30 33 H -2.009749 4.632174 1.958237 0
M  V30 34 H -3.615784 4.433230 0.141155 0
M  V30 35 H -1.965859 0.550633 -0.864610 0
M  V30 END ATOM
M  V30 BEGIN BOND
M  V30 1 2 1 2
M  V30 2 1 2 3
M  V30 3 1 3 4
M  V30 4 1 4 5
M  V30 5 1 5 6
M  V30 6 1 6 7
M  V30 7 1 7 8
M  V30 8 1 8 9
M  V30 9 1 9 10
M  V30 10 2 4 11
M  V30 11 1 11 12
M  V30 12 2 12 13
M  V30 13 1 13 14
M  V30 14 1 14 15
M  V30 15 2 15 16
M  V30 16 1 16 17
M  V30 17 2 17 18
M  V30 18 1 18 19
M  V30 19 1 18 20
M  V30 20 2 20 21
M  V30 21 1 13 2
M  V30 22 1 21 15
M  V30 23 1 10 5
M  V30 24 1 21 12
M  V30 25 1 3 22
M  V30 26 1 5 23
M  V30 27 1 6 24
M  V30 28 1 6 25
M  V30 29 1 7 26
M  V30 30 1 7 27
M  V30 31 1 8 28
M  V30 32 1 8 29
M  V30 33 1 9 30
M  V30 34 1 10 31
M  V30 35 1 10 32
M  V30 36 1 16 33
M  V30 37 1 17 34
M  V30 38 1 20 35
M  V30 END BOND
M  V30 END CTAB
M  END
>  <Dataset>  (458) 
ChEMBL_Kinases

>  <Ligand_Instance>  (458) 
nan

>  <PDB_ID>  (458) 
nan

>  <Standardized_SMILES>  (458) 
O=c1[nH]c(C2CCCNC2)nc2c1oc1ccc(Br)cc12

>  <Name>  (458) 
nan

>  <Pocket>  (458) 
nan

>  <ATP_Site>  (458) 
nan

>  <Peripheral>  (458) 
nan

>  <Num_H_Atoms_ProtBoundConf>  (458) 
nan

>  <Num_Resolved_Atoms>  (458) 
nan

>  <Num_Not_Resolved_Atoms>  (458) 
nan

$$$$
CHEMBL2030404
     RDKit          3D

  0  0  0  0  0  0  0  0  0  0999 V3000
M  V30 BEGIN CTAB
M  V30 COUNTS 32 35 0 0 0
M  V30 BEGIN ATOM
M  V30 1 O -3.293843 -2.192491 0.726569 0
M  V30 2 C -2.196699 -1.623285 0.630909 0
M  V30 3 N -1.062823 -2.203372 0.178298 0
M  V30 4 C 0.130505 -1.602440 0.068751 0
M  V30 5 C 1.349907 -2.246226 -0.424025 0 CFG=2
M  V30 6 C 1.343882 -3.754810 -0.278082 0
M  V30 7 C 2.811870 -4.045570 -0.623542 0 CFG=1
M  V30 8 F 2.874854 -4.000679 -2.020426 0
M  V30 9 C 3.527538 -2.861559 -0.022124 0
M  V30 10 N 2.509068 -1.932067 0.425992 0
M  V30 11 N 0.158602 -0.309518 0.453353 0
M  V30 12 C -0.915217 0.339986 0.912310 0
M  V30 13 C -2.120248 -0.290521 1.015763 0
M  V30 14 O -2.990193 0.573539 1.489881 0
M  V30 15 C -2.435551 1.726082 1.703360 0
M  V30 16 C -2.861184 2.948900 2.177571 0
M  V30 17 C -2.049187 4.055390 2.314240 0
M  V30 18 C -0.709330 3.959403 1.957888 0
M  V30 19 Cl 0.450267 5.262655 2.069223 0
M  V30 20 C -0.285529 2.751608 1.488674 0
M  V30 21 C -1.087128 1.638181 1.347365 0
M  V30 22 H -1.139214 -3.207883 -0.107204 0
M  V30 23 H 1.572000 -1.983675 -1.464596 0
M  V30 24 H 0.643539 -4.268612 -0.940238 0
M  V30 25 H 1.260084 -4.035694 0.797223 0
M  V30 26 H 3.143128 -5.019886 -0.227799 0
M  V30 27 H 4.160722 -2.320667 -0.762871 0
M  V30 28 H 4.224219 -3.162057 0.789235 0
M  V30 29 H 2.221607 -2.253017 1.377579 0
M  V30 30 H -3.906572 3.081350 2.473040 0
M  V30 31 H -2.387302 5.011119 2.686205 0
M  V30 32 H 0.756114 2.621515 1.194848 0
M  V30 END ATOM
M  V30 BEGIN BOND
M  V30 1 2 1 2
M  V30 2 1 2 3
M  V30 3 1 3 4
M  V30 4 1 4 5
M  V30 5 1 5 6
M  V30 6 1 6 7
M  V30 7 1 7 8
M  V30 8 1 7 9
M  V30 9 1 9 10
M  V30 10 2 4 11
M  V30 11 1 11 12
M  V30 12 2 12 13
M  V30 13 1 13 14
M  V30 14 1 14 15
M  V30 15 2 15 16
M  V30 16 1 16 17
M  V30 17 2 17 18
M  V30 18 1 18 19
M  V30 19 1 18 20
M  V30 20 2 20 21
M  V30 21 1 13 2
M  V30 22 1 21 15
M  V30 23 1 10 5
M  V30 24 1 21 12
M  V30 25 1 3 22
M  V30 26 1 5 23 CFG=3
M  V30 27 1 6 24
M  V30 28 1 6 25
M  V30 29 1 7 26 CFG=1
M  V30 30 1 9 27
M  V30 31 1 9 28
M  V30 32 1 10 29
M  V30 33 1 16 30
M  V30 34 1 17 31
M  V30 35 1 20 32
M  V30 END BOND
M  V30 END CTAB
M  END
>  <Dataset>  (459) 
ChEMBL_Kinases

>  <Ligand_Instance>  (459) 
nan

>  <PDB_ID>  (459) 
nan

>  <Standardized_SMILES>  (459) 
O=c1[nH]c([C@@H]2C[C@@H](F)CN2)nc2c1oc1ccc(Cl)cc12

>  <Name>  (459) 
nan

>  <Pocket>  (459) 
nan

>  <ATP_Site>  (459) 
nan

>  <Peripheral>  (459) 
nan

>  <Num_H_Atoms_ProtBoundConf>  (459) 
nan

>  <Num_Resolved_Atoms>  (459) 
nan

>  <Num_Not_Resolved_Atoms>  (459) 
nan

$$$$
CHEMBL4646882
     RDKit          3D

  0  0  0  0  0  0  0  0  0  0999 V3000
M  V30 BEGIN CTAB
M  V30 COUNTS 74 78 0 0 0
M  V30 BEGIN ATOM
M  V30 1 C 5.237028 -1.169805 0.404210 0
M  V30 2 O 3.888816 -1.516184 0.475368 0
M  V30 3 C 2.843204 -0.730613 0.876831 0
M  V30 4 C 2.922753 0.573666 1.294882 0
M  V30 5 C 1.898390 1.386042 1.705330 0
M  V30 6 C 2.050119 2.785035 2.073944 0
M  V30 7 O 1.358397 3.350673 2.956802 0
M  V30 8 N 3.082648 3.426017 1.291620 0
M  V30 9 C 3.421625 4.848738 1.474151 0
M  V30 10 C 2.419427 5.616561 0.616115 0
M  V30 11 C 2.753127 5.659096 -0.829883 0
M  V30 12 N 4.109995 6.152362 -1.006869 0
M  V30 13 C 4.339993 6.147082 -2.458126 0
M  V30 14 C 4.997835 5.180253 -0.428509 0
M  V30 15 C 4.821394 5.085892 1.079565 0
M  V30 16 C 0.624677 0.843067 1.704264 0
M  V30 17 C 0.458014 -0.461549 1.296233 0
M  V30 18 C 1.540867 -1.212774 0.898148 0
M  V30 19 N 1.308636 -2.575690 0.500659 0
M  V30 20 C -0.016735 -3.073398 0.347944 0
M  V30 21 N -0.191988 -3.093221 -1.005608 0
M  V30 22 C -1.357990 -3.505256 -1.584659 0
M  V30 23 C -2.308660 -3.886589 -0.665216 0
M  V30 24 C -2.193859 -3.888322 0.709793 0
M  V30 25 N -0.988856 -3.460549 1.197173 0
M  V30 26 N -3.051196 -4.222668 1.784573 0
M  V30 27 C -2.465821 -4.652207 3.037230 0
M  V30 28 C -4.492580 -4.149635 1.673499 0
M  V30 29 C -5.041037 -4.130030 2.950599 0
M  V30 30 C -6.442966 -4.059958 3.043949 0
M  V30 31 C -7.126013 -4.016128 1.870302 0
M  V30 32 C -6.639019 -4.032070 0.601856 0
M  V30 33 C -5.277531 -4.101874 0.503972 0
M  V30 34 C -4.858788 -4.126813 -0.899790 0
M  V30 35 O -5.734817 -3.973048 -1.782183 0
M  V30 36 N -3.488798 -4.320292 -1.341911 0
M  V30 37 C -3.327778 -5.025268 -2.588326 0
M  V30 38 C -3.834382 -6.450869 -2.270847 0
M  V30 39 C -4.238782 -4.534208 -3.698050 0
M  V30 40 H 5.382062 -0.233849 0.989748 0
M  V30 41 H 5.898965 -1.912231 0.920554 0
M  V30 42 H 5.589146 -0.930829 -0.619683 0
M  V30 43 H 3.894527 1.075195 1.322180 0
M  V30 44 H 3.651141 2.918884 0.546122 0
M  V30 45 H 3.196546 5.122792 2.496870 0
M  V30 46 H 1.427787 5.122257 0.738017 0
M  V30 47 H 2.316709 6.644359 1.017838 0
M  V30 48 H 2.022706 6.332281 -1.334606 0
M  V30 49 H 2.598303 4.661080 -1.328555 0
M  V30 50 H 5.377723 5.865479 -2.722120 0
M  V30 51 H 4.178563 7.151339 -2.892921 0
M  V30 52 H 3.675370 5.381057 -2.941504 0
M  V30 53 H 6.023462 5.352289 -0.757982 0
M  V30 54 H 4.695392 4.188424 -0.878667 0
M  V30 55 H 5.552755 4.366428 1.488623 0
M  V30 56 H 5.129603 6.073238 1.481807 0
M  V30 57 H -0.225471 1.432915 2.018364 0
M  V30 58 H -0.553564 -0.863645 1.301592 0
M  V30 59 H 2.098906 -3.241348 0.312918 0
M  V30 60 H -1.608491 -3.552933 -2.637259 0
M  V30 61 H -1.410204 -4.981050 2.815569 0
M  V30 62 H -2.321196 -3.805847 3.747787 0
M  V30 63 H -2.942984 -5.541346 3.464152 0
M  V30 64 H -4.400558 -4.168718 3.816046 0
M  V30 65 H -6.917558 -4.044201 4.016473 0
M  V30 66 H -8.221571 -3.959684 1.957745 0
M  V30 67 H -7.206504 -3.996077 -0.314898 0
M  V30 68 H -2.314569 -5.219570 -2.925479 0
M  V30 69 H -4.661156 -6.723607 -2.946063 0
M  V30 70 H -4.213755 -6.550330 -1.254533 0
M  V30 71 H -3.067543 -7.225336 -2.405717 0
M  V30 72 H -3.751410 -4.699019 -4.705133 0
M  V30 73 H -4.468200 -3.456564 -3.655664 0
M  V30 74 H -5.188071 -5.082504 -3.749194 0
M  V30 END ATOM
M  V30 BEGIN BOND
M  V30 1 1 1 2
M  V30 2 1 2 3
M  V30 3 2 3 4
M  V30 4 1 4 5
M  V30 5 1 5 6
M  V30 6 2 6 7
M  V30 7 1 6 8
M  V30 8 1 8 9
M  V30 9 1 9 10
M  V30 10 1 10 11
M  V30 11 1 11 12
M  V30 12 1 12 13
M  V30 13 1 12 14
M  V30 14 1 14 15
M  V30 15 2 5 16
M  V30 16 1 16 17
M  V30 17 2 17 18
M  V30 18 1 18 19
M  V30 19 1 19 20
M  V30 20 2 20 21
M  V30 21 1 21 22
M  V30 22 2 22 23
M  V30 23 1 23 24
M  V30 24 2 24 25
M  V30 25 1 24 26
M  V30 26 1 26 27
M  V30 27 1 26 28
M  V30 28 2 28 29
M  V30 29 1 29 30
M  V30 30 2 30 31
M  V30 31 1 31 32
M  V30 32 2 32 33
M  V30 33 1 33 34
M  V30 34 2 34 35
M  V30 35 1 34 36
M  V30 36 1 36 37
M  V30 37 1 37 38
M  V30 38 1 37 39
M  V30 39 1 18 3
M  V30 40 1 25 20
M  V30 41 1 33 28
M  V30 42 1 15 9
M  V30 43 1 36 23
M  V30 44 1 1 40
M  V30 45 1 1 41
M  V30 46 1 1 42
M  V30 47 1 4 43
M  V30 48 1 8 44
M  V30 49 1 9 45
M  V30 50 1 10 46
M  V30 51 1 10 47
M  V30 52 1 11 48
M  V30 53 1 11 49
M  V30 54 1 13 50
M  V30 55 1 13 51
M  V30 56 1 13 52
M  V30 57 1 14 53
M  V30 58 1 14 54
M  V30 59 1 15 55
M  V30 60 1 15 56
M  V30 61 1 16 57
M  V30 62 1 17 58
M  V30 63 1 19 59
M  V30 64 1 22 60
M  V30 65 1 27 61
M  V30 66 1 27 62
M  V30 67 1 27 63
M  V30 68 1 29 64
M  V30 69 1 30 65
M  V30 70 1 31 66
M  V30 71 1 32 67
M  V30 72 1 37 68
M  V30 73 1 38 69
M  V30 74 1 38 70
M  V30 75 1 38 71
M  V30 76 1 39 72
M  V30 77 1 39 73
M  V30 78 1 39 74
M  V30 END BOND
M  V30 END CTAB
M  END
>  <Dataset>  (460) 
ChEMBL_Kinases

>  <Ligand_Instance>  (460) 
nan

>  <PDB_ID>  (460) 
nan

>  <Standardized_SMILES>  (460) 
COc1cc(C(=O)NC2CCN(C)CC2)ccc1Nc1ncc2c(n1)N(C)c1ccccc1C(=O)N2C(C)C

>  <Name>  (460) 
nan

>  <Pocket>  (460) 
nan

>  <ATP_Site>  (460) 
nan

>  <Peripheral>  (460) 
nan

>  <Num_H_Atoms_ProtBoundConf>  (460) 
nan

>  <Num_Resolved_Atoms>  (460) 
nan

>  <Num_Not_Resolved_Atoms>  (460) 
nan

$$$$
CHEMBL4646995
     RDKit          3D

  0  0  0  0  0  0  0  0  0  0999 V3000
M  V30 BEGIN CTAB
M  V30 COUNTS 46 49 0 0 0
M  V30 BEGIN ATOM
M  V30 1 N 0.492588 -7.065913 3.865972 0
M  V30 2 C 0.158816 -5.880982 3.183062 0
M  V30 3 C -1.100424 -5.296262 3.353770 0
M  V30 4 C -1.317614 -4.139119 2.636472 0
M  V30 5 C -0.421975 -3.524833 1.786742 0
M  V30 6 C -0.816710 -2.302804 1.105513 0
M  V30 7 C 0.160312 -1.388304 0.825982 0
M  V30 8 C -0.133277 -0.181758 0.170702 0
M  V30 9 N 0.865008 0.772599 -0.129079 0
M  V30 10 C 1.334192 2.015577 -0.630644 0
M  V30 11 C 2.857380 2.070688 -0.732805 0
M  V30 12 C 3.209331 3.538896 -0.808346 0
M  V30 13 C 3.035696 4.105923 0.574506 0
M  V30 14 N 1.750211 3.756560 1.095022 0
M  V30 15 C 0.835572 3.205373 0.168578 0
M  V30 16 C -1.452308 0.023848 -0.171987 0
M  V30 17 C -1.904841 1.148106 -0.829898 0
M  V30 18 C -3.206400 1.394333 -1.199824 0
M  V30 19 N -4.141245 0.453309 -0.896493 0
M  V30 20 C -3.809778 -0.681796 -0.256960 0
M  V30 21 C -2.486311 -0.853446 0.078905 0
M  V30 22 C -2.099040 -2.004852 0.724465 0
M  V30 23 C 0.813792 -4.117291 1.632308 0
M  V30 24 C 1.078862 -5.283530 2.333881 0
M  V30 25 H 0.394746 -7.136727 4.904137 0
M  V30 26 H 0.853208 -7.929699 3.370124 0
M  V30 27 H -1.853468 -5.719552 4.002412 0
M  V30 28 H -2.313313 -3.701137 2.788636 0
M  V30 29 H 1.193293 -1.624556 1.131055 0
M  V30 30 H 1.771039 0.381471 0.182032 0
M  V30 31 H 0.991800 2.156685 -1.670214 0
M  V30 32 H 3.245491 1.583442 -1.642620 0
M  V30 33 H 3.348728 1.669226 0.178733 0
M  V30 34 H 2.600849 4.077993 -1.547720 0
M  V30 35 H 4.294341 3.646594 -1.093423 0
M  V30 36 H 3.137393 5.219282 0.559485 0
M  V30 37 H 3.825536 3.679592 1.224096 0
M  V30 38 H 1.718198 3.427134 2.065027 0
M  V30 39 H -0.045636 2.844584 0.752784 0
M  V30 40 H 0.459677 4.003388 -0.502541 0
M  V30 41 H -1.223933 1.922756 -1.110198 0
M  V30 42 H -3.515137 2.293240 -1.715450 0
M  V30 43 H -4.502338 -1.467907 0.012740 0
M  V30 44 H -2.815562 -2.761324 0.972950 0
M  V30 45 H 1.542114 -3.669741 0.977956 0
M  V30 46 H 2.079434 -5.705537 2.168057 0
M  V30 END ATOM
M  V30 BEGIN BOND
M  V30 1 1 1 2
M  V30 2 2 2 3
M  V30 3 1 3 4
M  V30 4 2 4 5
M  V30 5 1 5 6
M  V30 6 2 6 7
M  V30 7 1 7 8
M  V30 8 1 8 9
M  V30 9 1 9 10
M  V30 10 1 10 11
M  V30 11 1 11 12
M  V30 12 1 12 13
M  V30 13 1 13 14
M  V30 14 1 14 15
M  V30 15 2 8 16
M  V30 16 1 16 17
M  V30 17 2 17 18
M  V30 18 1 18 19
M  V30 19 2 19 20
M  V30 20 1 20 21
M  V30 21 2 21 22
M  V30 22 1 5 23
M  V30 23 2 23 24
M  V30 24 1 24 2
M  V30 25 1 22 6
M  V30 26 1 15 10
M  V30 27 1 21 16
M  V30 28 1 1 25
M  V30 29 1 1 26
M  V30 30 1 3 27
M  V30 31 1 4 28
M  V30 32 1 7 29
M  V30 33 1 9 30
M  V30 34 1 10 31
M  V30 35 1 11 32
M  V30 36 1 11 33
M  V30 37 1 12 34
M  V30 38 1 12 35
M  V30 39 1 13 36
M  V30 40 1 13 37
M  V30 41 1 14 38
M  V30 42 1 15 39
M  V30 43 1 15 40
M  V30 44 1 17 41
M  V30 45 1 18 42
M  V30 46 1 20 43
M  V30 47 1 22 44
M  V30 48 1 23 45
M  V30 49 1 24 46
M  V30 END BOND
M  V30 END CTAB
M  END
>  <Dataset>  (461) 
ChEMBL_Kinases

>  <Ligand_Instance>  (461) 
nan

>  <PDB_ID>  (461) 
nan

>  <Standardized_SMILES>  (461) 
Nc1ccc(-c2cc(NC3CCCNC3)c3ccncc3c2)cc1

>  <Name>  (461) 
nan

>  <Pocket>  (461) 
nan

>  <ATP_Site>  (461) 
nan

>  <Peripheral>  (461) 
nan

>  <Num_H_Atoms_ProtBoundConf>  (461) 
nan

>  <Num_Resolved_Atoms>  (461) 
nan

>  <Num_Not_Resolved_Atoms>  (461) 
nan

$$$$
CHEMBL4647033
     RDKit          3D

  0  0  0  0  0  0  0  0  0  0999 V3000
M  V30 BEGIN CTAB
M  V30 COUNTS 28 30 0 0 0
M  V30 BEGIN ATOM
M  V30 1 N -1.871183 -2.362924 2.575664 0
M  V30 2 C -0.861041 -3.355184 2.508692 0
M  V30 3 O -1.051283 -4.466845 3.087742 0
M  V30 4 C 0.378869 -3.114996 1.790417 0
M  V30 5 C 1.340568 -4.101782 1.745099 0
M  V30 6 C 2.499443 -3.797226 1.038816 0
M  V30 7 Br 3.834625 -5.184759 0.983552 0
M  V30 8 C 2.734812 -2.599728 0.399896 0
M  V30 9 C 1.737700 -1.627394 0.469044 0
M  V30 10 N 1.613532 -0.373175 -0.016722 0
M  V30 11 C 0.423476 0.155049 0.341660 0
M  V30 12 C -0.108646 1.476304 0.028539 0
M  V30 13 C -1.356650 1.854401 0.481061 0
M  V30 14 C -1.755213 3.126285 0.123451 0
M  V30 15 N -1.053949 4.010484 -0.609186 0
M  V30 16 C 0.160547 3.625840 -1.042275 0
M  V30 17 C 0.645299 2.351937 -0.726427 0
M  V30 18 N -0.192155 -0.801023 1.063392 0
M  V30 19 C 0.577355 -1.903343 1.163572 0
M  V30 20 H -1.647786 -1.687422 3.360122 0
M  V30 21 H -2.744473 -2.169417 2.040257 0
M  V30 22 H 1.216530 -5.062009 2.225403 0
M  V30 23 H 3.631600 -2.393352 -0.133878 0
M  V30 24 H 2.356285 0.110907 -0.595439 0
M  V30 25 H -1.985008 1.209485 1.073246 0
M  V30 26 H -2.726632 3.490420 0.445224 0
M  V30 27 H 0.787076 4.278638 -1.637005 0
M  V30 28 H 1.621906 2.057846 -1.081308 0
M  V30 END ATOM
M  V30 BEGIN BOND
M  V30 1 1 1 2
M  V30 2 2 2 3
M  V30 3 1 2 4
M  V30 4 2 4 5
M  V30 5 1 5 6
M  V30 6 1 6 7
M  V30 7 2 6 8
M  V30 8 1 8 9
M  V30 9 1 9 10
M  V30 10 1 10 11
M  V30 11 1 11 12
M  V30 12 2 12 13
M  V30 13 1 13 14
M  V30 14 2 14 15
M  V30 15 1 15 16
M  V30 16 2 16 17
M  V30 17 2 11 18
M  V30 18 1 18 19
M  V30 19 1 19 4
M  V30 20 2 19 9
M  V30 21 1 17 12
M  V30 22 1 1 20
M  V30 23 1 1 21
M  V30 24 1 5 22
M  V30 25 1 8 23
M  V30 26 1 10 24
M  V30 27 1 13 25
M  V30 28 1 14 26
M  V30 29 1 16 27
M  V30 30 1 17 28
M  V30 END BOND
M  V30 END CTAB
M  END
>  <Dataset>  (462) 
ChEMBL_Kinases

>  <Ligand_Instance>  (462) 
nan

>  <PDB_ID>  (462) 
nan

>  <Standardized_SMILES>  (462) 
NC(=O)c1cc(Br)cc2[nH]c(-c3ccncc3)nc12

>  <Name>  (462) 
nan

>  <Pocket>  (462) 
nan

>  <ATP_Site>  (462) 
nan

>  <Peripheral>  (462) 
nan

>  <Num_H_Atoms_ProtBoundConf>  (462) 
nan

>  <Num_Resolved_Atoms>  (462) 
nan

>  <Num_Not_Resolved_Atoms>  (462) 
nan

$$$$
CHEMBL4647086
     RDKit          3D

  0  0  0  0  0  0  0  0  0  0999 V3000
M  V30 BEGIN CTAB
M  V30 COUNTS 49 52 0 0 0
M  V30 BEGIN ATOM
M  V30 1 C 0.186354 2.604899 3.708319 0
M  V30 2 C 1.119170 1.467968 3.945519 0
M  V30 3 N 1.005968 0.558677 4.923199 0
M  V30 4 O 1.972770 -0.305672 4.867272 0
M  V30 5 C 2.741926 0.001469 3.866745 0
M  V30 6 C 3.957196 -0.718460 3.444173 0
M  V30 7 C 2.256715 1.119182 3.237536 0
M  V30 8 C 2.721937 1.865069 2.094058 0
M  V30 9 C 3.593498 2.929751 2.077675 0
M  V30 10 N 3.904345 3.493347 0.896881 0
M  V30 11 C 3.385795 3.044184 -0.270989 0
M  V30 12 N 3.732880 3.660627 -1.507198 0
M  V30 13 C 2.507967 1.974065 -0.268665 0
M  V30 14 O 1.940504 1.467930 -1.453407 0
M  V30 15 C 1.059825 0.375816 -1.332467 0
M  V30 16 C 1.454477 -0.945919 -1.378609 0
M  V30 17 C 0.446940 -1.882525 -1.241650 0
M  V30 18 C -0.882195 -1.555191 -1.067921 0
M  V30 19 C -1.846309 -2.635543 -0.936043 0
M  V30 20 O -1.414236 -3.816619 -0.987569 0
M  V30 21 N -3.230703 -2.424138 -0.754698 0
M  V30 22 C -3.958129 -3.661292 -0.653280 0
M  V30 23 C -4.543322 -4.425827 -1.642832 0
M  V30 24 C -5.186469 -5.579326 -1.276029 0
M  V30 25 C -5.270169 -5.998332 0.020073 0
M  V30 26 C -4.682655 -5.233913 1.028153 0
M  V30 27 Cl -4.827997 -5.830097 2.668676 0
M  V30 28 C -4.022288 -4.053732 0.671051 0
M  V30 29 C -1.247854 -0.225428 -1.025634 0
M  V30 30 C -0.266573 0.751253 -1.159310 0
M  V30 31 N 2.218067 1.432518 0.934355 0
M  V30 32 H -0.853978 2.231038 3.929200 0
M  V30 33 H 0.247534 2.846887 2.623355 0
M  V30 34 H 0.401117 3.474047 4.363373 0
M  V30 35 H 4.825037 -0.242779 3.951382 0
M  V30 36 H 3.939416 -1.772754 3.758228 0
M  V30 37 H 4.078591 -0.629166 2.354075 0
M  V30 38 H 3.968531 3.235634 3.043515 0
M  V30 39 H 3.148599 4.388719 -1.966757 0
M  V30 40 H 4.647093 3.224324 -1.799476 0
M  V30 41 H 2.494758 -1.160792 -1.514765 0
M  V30 42 H 0.787872 -2.927706 -1.281937 0
M  V30 43 H -3.613844 -1.456843 -0.708647 0
M  V30 44 H -4.410194 -3.992997 -2.619715 0
M  V30 45 H -5.628797 -6.139103 -2.108078 0
M  V30 46 H -5.789529 -6.918679 0.264550 0
M  V30 47 H -3.617849 -3.565959 1.543511 0
M  V30 48 H -2.263402 0.061009 -0.893053 0
M  V30 49 H -0.595490 1.782926 -1.120543 0
M  V30 END ATOM
M  V30 BEGIN BOND
M  V30 1 1 1 2
M  V30 2 2 2 3
M  V30 3 1 3 4
M  V30 4 1 4 5
M  V30 5 1 5 6
M  V30 6 2 5 7
M  V30 7 1 7 8
M  V30 8 2 8 9
M  V30 9 1 9 10
M  V30 10 2 10 11
M  V30 11 1 11 12
M  V30 12 1 11 13
M  V30 13 1 13 14
M  V30 14 1 14 15
M  V30 15 2 15 16
M  V30 16 1 16 17
M  V30 17 2 17 18
M  V30 18 1 18 19
M  V30 19 2 19 20
M  V30 20 1 19 21
M  V30 21 1 21 22
M  V30 22 2 22 23
M  V30 23 1 23 24
M  V30 24 2 24 25
M  V30 25 1 25 26
M  V30 26 1 26 27
M  V30 27 2 26 28
M  V30 28 1 18 29
M  V30 29 2 29 30
M  V30 30 2 13 31
M  V30 31 1 7 2
M  V30 32 1 31 8
M  V30 33 1 30 15
M  V30 34 1 28 22
M  V30 35 1 1 32
M  V30 36 1 1 33
M  V30 37 1 1 34
M  V30 38 1 6 35
M  V30 39 1 6 36
M  V30 40 1 6 37
M  V30 41 1 9 38
M  V30 42 1 12 39
M  V30 43 1 12 40
M  V30 44 1 16 41
M  V30 45 1 17 42
M  V30 46 1 21 43
M  V30 47 1 23 44
M  V30 48 1 24 45
M  V30 49 1 25 46
M  V30 50 1 28 47
M  V30 51 1 29 48
M  V30 52 1 30 49
M  V30 END BOND
M  V30 END CTAB
M  END
>  <Dataset>  (463) 
ChEMBL_Kinases

>  <Ligand_Instance>  (463) 
nan

>  <PDB_ID>  (463) 
nan

>  <Standardized_SMILES>  (463) 
Cc1noc(C)c1-c1cnc(N)c(Oc2ccc(C(=O)Nc3cccc(Cl)c3)cc2)n1

>  <Name>  (463) 
nan

>  <Pocket>  (463) 
nan

>  <ATP_Site>  (463) 
nan

>  <Peripheral>  (463) 
nan

>  <Num_H_Atoms_ProtBoundConf>  (463) 
nan

>  <Num_Resolved_Atoms>  (463) 
nan

>  <Num_Not_Resolved_Atoms>  (463) 
nan

$$$$
CHEMBL568581
     RDKit          3D

  0  0  0  0  0  0  0  0  0  0999 V3000
M  V30 BEGIN CTAB
M  V30 COUNTS 68 73 0 0 0
M  V30 BEGIN ATOM
M  V30 1 C 2.708862 -1.381361 3.798663 0
M  V30 2 C 2.635237 -1.404237 2.305259 0
M  V30 3 C 2.792300 -0.297192 1.506805 0
M  V30 4 N 3.040693 0.953116 2.121369 0
M  V30 5 C 3.213430 2.144034 1.351645 0
M  V30 6 C 4.437675 2.585400 0.886117 0
M  V30 7 C 5.592751 1.798193 1.197941 0
M  V30 8 N 6.521962 1.170900 1.467251 0
M  V30 9 C 4.546422 3.735064 0.151815 0
M  V30 10 N 3.424819 4.434912 -0.110767 0
M  V30 11 C 2.211082 4.028861 0.331071 0
M  V30 12 C 2.060821 2.871258 1.076796 0
M  V30 13 C 0.735130 2.515319 1.504752 0
M  V30 14 C 0.304621 2.080554 2.744245 0
M  V30 15 O -0.982755 1.857042 2.737137 0
M  V30 16 C -1.508584 2.106697 1.558220 0
M  V30 17 C -2.920384 1.989867 1.107828 0
M  V30 18 N -3.136662 0.691390 0.596652 0
M  V30 19 C -4.474485 0.436308 0.121086 0
M  V30 20 C -4.413183 -0.760893 -0.805961 0
M  V30 21 N -3.123241 -1.340307 -0.820734 0
M  V30 22 C -2.846145 -2.243194 -1.871810 0
M  V30 23 C -3.748698 -3.449707 -1.921536 0
M  V30 24 C -2.891058 -4.557625 -2.544568 0
M  V30 25 C -1.581904 -3.864196 -2.941397 0
M  V30 26 C -1.493016 -2.862546 -1.781282 0
M  V30 27 C -2.558653 -1.639264 0.444489 0
M  V30 28 C -2.638655 -0.408865 1.349729 0
M  V30 29 C -0.432799 2.524101 0.768563 0
M  V30 30 C 2.720975 -0.337351 0.134988 0
M  V30 31 C 2.479968 -1.541281 -0.494386 0
M  V30 32 C 2.315433 -2.684274 0.280036 0
M  V30 33 N 2.076227 -3.952867 -0.069532 0
M  V30 34 C 1.988119 -4.744990 1.019886 0
M  V30 35 C 2.188659 -3.890388 2.095599 0
M  V30 36 C 2.394121 -2.603359 1.655364 0
M  V30 37 H 3.759087 -1.566962 4.123959 0
M  V30 38 H 2.062271 -2.215901 4.154121 0
M  V30 39 H 2.288293 -0.451784 4.210406 0
M  V30 40 H 3.113080 1.086955 3.155486 0
M  V30 41 H 5.511113 4.098520 -0.224607 0
M  V30 42 H 1.394689 4.669535 0.058013 0
M  V30 43 H 0.917458 1.932015 3.627026 0
M  V30 44 H -3.043847 2.711800 0.260346 0
M  V30 45 H -3.631011 2.303927 1.899182 0
M  V30 46 H -5.204757 0.232395 0.941858 0
M  V30 47 H -4.858348 1.341473 -0.392595 0
M  V30 48 H -4.688083 -0.455345 -1.834667 0
M  V30 49 H -5.194525 -1.523399 -0.518978 0
M  V30 50 H -2.923422 -1.725362 -2.838022 0
M  V30 51 H -4.061376 -3.703635 -0.887600 0
M  V30 52 H -4.625177 -3.209098 -2.539992 0
M  V30 53 H -3.377828 -5.066691 -3.374415 0
M  V30 54 H -2.605935 -5.227973 -1.690302 0
M  V30 55 H -1.673019 -3.350027 -3.921177 0
M  V30 56 H -0.711366 -4.523258 -2.876508 0
M  V30 57 H -0.648941 -2.163239 -1.892165 0
M  V30 58 H -1.340249 -3.498176 -0.886146 0
M  V30 59 H -1.480662 -1.861566 0.324488 0
M  V30 60 H -3.097022 -2.509708 0.865391 0
M  V30 61 H -3.319658 -0.703686 2.195290 0
M  V30 62 H -1.671716 -0.158646 1.785277 0
M  V30 63 H -0.561689 2.802176 -0.268497 0
M  V30 64 H 2.849698 0.558419 -0.476010 0
M  V30 65 H 2.411105 -1.642473 -1.584836 0
M  V30 66 H 1.962340 -4.339506 -1.052093 0
M  V30 67 H 1.805416 -5.802801 1.086777 0
M  V30 68 H 2.187771 -4.177959 3.154425 0
M  V30 END ATOM
M  V30 BEGIN BOND
M  V30 1 1 1 2
M  V30 2 2 2 3
M  V30 3 1 3 4
M  V30 4 1 4 5
M  V30 5 2 5 6
M  V30 6 1 6 7
M  V30 7 3 7 8
M  V30 8 1 6 9
M  V30 9 2 9 10
M  V30 10 1 10 11
M  V30 11 2 11 12
M  V30 12 1 12 13
M  V30 13 2 13 14
M  V30 14 1 14 15
M  V30 15 1 15 16
M  V30 16 1 16 17
M  V30 17 1 17 18
M  V30 18 1 18 19
M  V30 19 1 19 20
M  V30 20 1 20 21
M  V30 21 1 21 22
M  V30 22 1 22 23
M  V30 23 1 23 24
M  V30 24 1 24 25
M  V30 25 1 25 26
M  V30 26 1 21 27
M  V30 27 1 27 28
M  V30 28 2 16 29
M  V30 29 1 3 30
M  V30 30 2 30 31
M  V30 31 1 31 32
M  V30 32 1 32 33
M  V30 33 1 33 34
M  V30 34 2 34 35
M  V30 35 1 35 36
M  V30 36 1 36 2
M  V30 37 1 12 5
M  V30 38 1 29 13
M  V30 39 2 36 32
M  V30 40 1 28 18
M  V30 41 1 26 22
M  V30 42 1 1 37
M  V30 43 1 1 38
M  V30 44 1 1 39
M  V30 45 1 4 40
M  V30 46 1 9 41
M  V30 47 1 11 42
M  V30 48 1 14 43
M  V30 49 1 17 44
M  V30 50 1 17 45
M  V30 51 1 19 46
M  V30 52 1 19 47
M  V30 53 1 20 48
M  V30 54 1 20 49
M  V30 55 1 22 50
M  V30 56 1 23 51
M  V30 57 1 23 52
M  V30 58 1 24 53
M  V30 59 1 24 54
M  V30 60 1 25 55
M  V30 61 1 25 56
M  V30 62 1 26 57
M  V30 63 1 26 58
M  V30 64 1 27 59
M  V30 65 1 27 60
M  V30 66 1 28 61
M  V30 67 1 28 62
M  V30 68 1 29 63
M  V30 69 1 30 64
M  V30 70 1 31 65
M  V30 71 1 33 66
M  V30 72 1 34 67
M  V30 73 1 35 68
M  V30 END BOND
M  V30 END CTAB
M  END
>  <Dataset>  (464) 
ChEMBL_Kinases

>  <Ligand_Instance>  (464) 
nan

>  <PDB_ID>  (464) 
nan

>  <Standardized_SMILES>  (464) 
Cc1c(Nc2c(C#N)cncc2-c2coc(CN3CCN(C4CCCC4)CC3)c2)ccc2[nH]ccc12

>  <Name>  (464) 
nan

>  <Pocket>  (464) 
nan

>  <ATP_Site>  (464) 
nan

>  <Peripheral>  (464) 
nan

>  <Num_H_Atoms_ProtBoundConf>  (464) 
nan

>  <Num_Resolved_Atoms>  (464) 
nan

>  <Num_Not_Resolved_Atoms>  (464) 
nan

$$$$
CHEMBL568547
     RDKit          3D

  0  0  0  0  0  0  0  0  0  0999 V3000
M  V30 BEGIN CTAB
M  V30 COUNTS 58 62 0 0 0
M  V30 BEGIN ATOM
M  V30 1 C 3.240157 -2.941530 2.316746 0
M  V30 2 C 2.776340 -2.626600 0.957008 0
M  V30 3 C 2.822211 -1.342758 0.476641 0
M  V30 4 N 3.309043 -0.258115 1.242194 0
M  V30 5 C 3.271704 1.000877 0.555887 0
M  V30 6 C 4.272991 1.536159 -0.227190 0
M  V30 7 C 5.460036 0.738116 -0.354096 0
M  V30 8 N 6.416328 0.079094 -0.472324 0
M  V30 9 C 4.105820 2.753008 -0.827193 0
M  V30 10 N 2.959236 3.454858 -0.666037 0
M  V30 11 C 1.985435 2.923450 0.101595 0
M  V30 12 C 2.071412 1.690677 0.749726 0
M  V30 13 C 0.949021 1.224066 1.552924 0
M  V30 14 C 0.900738 0.650871 2.807942 0
M  V30 15 O -0.328173 0.399636 3.114353 0
M  V30 16 C -1.159447 0.755422 2.161589 0
M  V30 17 C -2.657254 0.617189 2.164399 0
M  V30 18 N -3.069619 -0.643916 1.615826 0
M  V30 19 C -2.671764 -0.882440 0.265682 0
M  V30 20 C -3.409438 -0.048660 -0.756372 0
M  V30 21 N -4.775216 -0.478939 -0.742259 0
M  V30 22 C -5.727639 0.434867 -1.283746 0
M  V30 23 C -5.170746 -1.177410 0.438500 0
M  V30 24 C -4.499241 -0.726668 1.699693 0
M  V30 25 C -0.383095 1.291558 1.135239 0
M  V30 26 C 2.356569 -1.167593 -0.822610 0
M  V30 27 C 1.866471 -2.207689 -1.617578 0
M  V30 28 C 1.836431 -3.484174 -1.099262 0
M  V30 29 N 1.433019 -4.669463 -1.599699 0
M  V30 30 C 1.600842 -5.651721 -0.701671 0
M  V30 31 C 2.130944 -5.031270 0.394089 0
M  V30 32 C 2.291935 -3.682474 0.184302 0
M  V30 33 H 2.830846 -3.925134 2.673225 0
M  V30 34 H 2.890863 -2.171939 3.011971 0
M  V30 35 H 4.350698 -2.929911 2.331763 0
M  V30 36 H 3.642253 -0.454393 2.205094 0
M  V30 37 H 4.953883 3.103136 -1.432680 0
M  V30 38 H 1.066390 3.512564 0.215931 0
M  V30 39 H 1.778450 0.457824 3.410987 0
M  V30 40 H -2.979723 0.616109 3.231509 0
M  V30 41 H -3.114105 1.498394 1.695077 0
M  V30 42 H -1.577023 -0.881685 0.109072 0
M  V30 43 H -2.976612 -1.935771 0.037743 0
M  V30 44 H -3.241722 1.029758 -0.671310 0
M  V30 45 H -2.975482 -0.359697 -1.749870 0
M  V30 46 H -6.711116 0.243139 -0.798456 0
M  V30 47 H -5.424739 1.499071 -1.271567 0
M  V30 48 H -5.898538 0.153592 -2.359177 0
M  V30 49 H -6.261877 -1.042705 0.571748 0
M  V30 50 H -4.990584 -2.258514 0.280828 0
M  V30 51 H -4.952878 0.236709 2.060349 0
M  V30 52 H -4.734550 -1.492966 2.482411 0
M  V30 53 H -0.777920 1.685797 0.185684 0
M  V30 54 H 2.355529 -0.189064 -1.282858 0
M  V30 55 H 1.519669 -1.998816 -2.621905 0
M  V30 56 H 1.047423 -4.738384 -2.575564 0
M  V30 57 H 1.333618 -6.660223 -0.928735 0
M  V30 58 H 2.386804 -5.563168 1.311699 0
M  V30 END ATOM
M  V30 BEGIN BOND
M  V30 1 1 1 2
M  V30 2 2 2 3
M  V30 3 1 3 4
M  V30 4 1 4 5
M  V30 5 2 5 6
M  V30 6 1 6 7
M  V30 7 3 7 8
M  V30 8 1 6 9
M  V30 9 2 9 10
M  V30 10 1 10 11
M  V30 11 2 11 12
M  V30 12 1 12 13
M  V30 13 2 13 14
M  V30 14 1 14 15
M  V30 15 1 15 16
M  V30 16 1 16 17
M  V30 17 1 17 18
M  V30 18 1 18 19
M  V30 19 1 19 20
M  V30 20 1 20 21
M  V30 21 1 21 22
M  V30 22 1 21 23
M  V30 23 1 23 24
M  V30 24 2 16 25
M  V30 25 1 3 26
M  V30 26 2 26 27
M  V30 27 1 27 28
M  V30 28 1 28 29
M  V30 29 1 29 30
M  V30 30 2 30 31
M  V30 31 1 31 32
M  V30 32 1 32 2
M  V30 33 1 12 5
M  V30 34 1 25 13
M  V30 35 2 32 28
M  V30 36 1 24 18
M  V30 37 1 1 33
M  V30 38 1 1 34
M  V30 39 1 1 35
M  V30 40 1 4 36
M  V30 41 1 9 37
M  V30 42 1 11 38
M  V30 43 1 14 39
M  V30 44 1 17 40
M  V30 45 1 17 41
M  V30 46 1 19 42
M  V30 47 1 19 43
M  V30 48 1 20 44
M  V30 49 1 20 45
M  V30 50 1 22 46
M  V30 51 1 22 47
M  V30 52 1 22 48
M  V30 53 1 23 49
M  V30 54 1 23 50
M  V30 55 1 24 51
M  V30 56 1 24 52
M  V30 57 1 25 53
M  V30 58 1 26 54
M  V30 59 1 27 55
M  V30 60 1 29 56
M  V30 61 1 30 57
M  V30 62 1 31 58
M  V30 END BOND
M  V30 END CTAB
M  END
>  <Dataset>  (465) 
ChEMBL_Kinases

>  <Ligand_Instance>  (465) 
nan

>  <PDB_ID>  (465) 
nan

>  <Standardized_SMILES>  (465) 
Cc1c(Nc2c(C#N)cncc2-c2coc(CN3CCN(C)CC3)c2)ccc2[nH]ccc12

>  <Name>  (465) 
nan

>  <Pocket>  (465) 
nan

>  <ATP_Site>  (465) 
nan

>  <Peripheral>  (465) 
nan

>  <Num_H_Atoms_ProtBoundConf>  (465) 
nan

>  <Num_Resolved_Atoms>  (465) 
nan

>  <Num_Not_Resolved_Atoms>  (465) 
nan

$$$$
CHEMBL4647416
     RDKit          3D

  0  0  0  0  0  0  0  0  0  0999 V3000
M  V30 BEGIN CTAB
M  V30 COUNTS 65 68 0 0 0
M  V30 BEGIN ATOM
M  V30 1 C 2.847768 -5.313457 -0.279473 0
M  V30 2 C 3.614898 -4.056374 0.189660 0
M  V30 3 O 2.668670 -3.031036 0.177296 0
M  V30 4 C 2.884743 -1.740948 0.513365 0
M  V30 5 O 3.914175 -2.392696 0.628682 0
M  V30 6 C 2.897952 -0.333796 0.824018 0
M  V30 7 C 4.144392 0.184106 1.202347 0
M  V30 8 N 4.135288 1.500632 1.446375 0
M  V30 9 C 3.047574 2.254360 1.341745 0
M  V30 10 C 3.210557 3.578467 1.631859 0
M  V30 11 C 2.109679 4.434788 1.550612 0
M  V30 12 C 0.889330 3.915422 1.179734 0
M  V30 13 C -0.337391 4.700368 1.070160 0
M  V30 14 C -1.501048 4.057357 0.703638 0
M  V30 15 C -2.715049 4.738723 0.581203 0
M  V30 16 Cl -4.159263 3.883206 0.117589 0
M  V30 17 C -2.752156 6.101864 0.835034 0
M  V30 18 O -3.942730 6.831143 0.727004 0
M  V30 19 C -1.576590 6.754512 1.205297 0
M  V30 20 Cl -1.628176 8.475368 1.525344 0
M  V30 21 C -0.368370 6.053450 1.323055 0
M  V30 22 N 0.821369 2.602836 0.912820 0
M  V30 23 C 1.834869 1.745542 0.973557 0
M  V30 24 C 1.727582 0.385213 0.695321 0
M  V30 25 N 0.455121 -0.086610 0.358427 0
M  V30 26 C -0.310244 -1.275343 0.088907 0 CFG=1
M  V30 27 C -0.491095 -2.127753 1.302143 0
M  V30 28 C -1.803922 -2.774758 1.504521 0
M  V30 29 C -2.780272 -2.730781 0.398582 0 CFG=2
M  V30 30 C -2.561431 -3.599282 -0.777119 0
M  V30 31 N -2.523267 -4.992151 -0.638055 0
M  V30 32 C -1.439588 -5.606861 0.031493 0
M  V30 33 C -3.133435 -5.776899 -1.681917 0
M  V30 34 C -2.828304 -1.290536 -0.110888 0
M  V30 35 C -1.519455 -0.965549 -0.716245 0
M  V30 36 H 3.119026 -5.529475 -1.353037 0
M  V30 37 H 3.070227 -6.181135 0.364997 0
M  V30 38 H 1.763202 -5.165327 -0.281686 0
M  V30 39 H 3.986380 -4.319720 1.212181 0
M  V30 40 H 4.452770 -3.930836 -0.531557 0
M  V30 41 H 5.019891 -0.405934 1.290613 0
M  V30 42 H 4.162064 3.990679 1.923656 0
M  V30 43 H 2.199573 5.489048 1.770837 0
M  V30 44 H -1.513728 2.980113 0.494307 0
M  V30 45 H -4.815416 6.470864 1.092372 0
M  V30 46 H 0.513747 6.594547 1.610448 0
M  V30 47 H -0.284369 0.662989 0.254066 0
M  V30 48 H 0.353351 -1.889592 -0.596048 0
M  V30 49 H 0.296875 -2.895299 1.438237 0
M  V30 50 H -0.316462 -1.425358 2.178994 0
M  V30 51 H -2.316152 -2.327910 2.409824 0
M  V30 52 H -1.665831 -3.848761 1.829970 0
M  V30 53 H -3.802153 -2.880895 0.856167 0
M  V30 54 H -1.561755 -3.295056 -1.231884 0
M  V30 55 H -3.351997 -3.333706 -1.534651 0
M  V30 56 H -1.720861 -6.054941 0.989108 0
M  V30 57 H -1.093249 -6.481414 -0.598061 0
M  V30 58 H -0.567686 -4.929598 0.071160 0
M  V30 59 H -3.643990 -6.682447 -1.342773 0
M  V30 60 H -3.730829 -5.130348 -2.361649 0
M  V30 61 H -2.276280 -6.120152 -2.319740 0
M  V30 62 H -3.168021 -0.584701 0.674295 0
M  V30 63 H -3.610778 -1.276114 -0.895970 0
M  V30 64 H -1.539034 0.163099 -0.900994 0
M  V30 65 H -1.471760 -1.372956 -1.744485 0
M  V30 END ATOM
M  V30 BEGIN BOND
M  V30 1 1 1 2
M  V30 2 1 2 3
M  V30 3 1 3 4
M  V30 4 2 4 5
M  V30 5 1 4 6
M  V30 6 2 6 7
M  V30 7 1 7 8
M  V30 8 2 8 9
M  V30 9 1 9 10
M  V30 10 2 10 11
M  V30 11 1 11 12
M  V30 12 1 12 13
M  V30 13 2 13 14
M  V30 14 1 14 15
M  V30 15 1 15 16
M  V30 16 2 15 17
M  V30 17 1 17 18
M  V30 18 1 17 19
M  V30 19 1 19 20
M  V30 20 2 19 21
M  V30 21 2 12 22
M  V30 22 1 22 23
M  V30 23 2 23 24
M  V30 24 1 24 25
M  V30 25 1 25 26
M  V30 26 1 26 27
M  V30 27 1 27 28
M  V30 28 1 28 29
M  V30 29 1 29 30
M  V30 30 1 30 31
M  V30 31 1 31 32
M  V30 32 1 31 33
M  V30 33 1 29 34
M  V30 34 1 34 35
M  V30 35 1 24 6
M  V30 36 1 35 26
M  V30 37 1 23 9
M  V30 38 1 21 13
M  V30 39 1 1 36
M  V30 40 1 1 37
M  V30 41 1 1 38
M  V30 42 1 2 39
M  V30 43 1 2 40
M  V30 44 1 7 41
M  V30 45 1 10 42
M  V30 46 1 11 43
M  V30 47 1 14 44
M  V30 48 1 18 45
M  V30 49 1 21 46
M  V30 50 1 25 47
M  V30 51 1 26 48 CFG=3
M  V30 52 1 27 49
M  V30 53 1 27 50
M  V30 54 1 28 51
M  V30 55 1 28 52
M  V30 56 1 29 53 CFG=1
M  V30 57 1 30 54
M  V30 58 1 30 55
M  V30 59 1 32 56
M  V30 60 1 32 57
M  V30 61 1 32 58
M  V30 62 1 33 59
M  V30 63 1 33 60
M  V30 64 1 33 61
M  V30 65 1 34 62
M  V30 66 1 34 63
M  V30 67 1 35 64
M  V30 68 1 35 65
M  V30 END BOND
M  V30 END CTAB
M  END
>  <Dataset>  (466) 
ChEMBL_Kinases

>  <Ligand_Instance>  (466) 
nan

>  <PDB_ID>  (466) 
nan

>  <Standardized_SMILES>  (466) 
CCOC(=O)c1cnc2ccc(-c3cc(Cl)c(O)c(Cl)c3)nc2c1N[C@H]1CC[C@H](CN(C)C)CC1

>  <Name>  (466) 
nan

>  <Pocket>  (466) 
nan

>  <ATP_Site>  (466) 
nan

>  <Peripheral>  (466) 
nan

>  <Num_H_Atoms_ProtBoundConf>  (466) 
nan

>  <Num_Resolved_Atoms>  (466) 
nan

>  <Num_Not_Resolved_Atoms>  (466) 
nan

$$$$
CHEMBL2057830
     RDKit          3D

  0  0  0  0  0  0  0  0  0  0999 V3000
M  V30 BEGIN CTAB
M  V30 COUNTS 39 42 0 0 0
M  V30 BEGIN ATOM
M  V30 1 N 1.187476 0.052302 0.261668 0
M  V30 2 C 1.021279 0.320092 1.509402 0
M  V30 3 C 1.892611 1.248915 2.213620 0
M  V30 4 C 2.802684 1.845564 1.475801 0
M  V30 5 C 3.132579 1.784533 0.072608 0
M  V30 6 C 4.425570 1.380229 -0.195941 0
M  V30 7 C 4.988044 1.285277 -1.450373 0
M  V30 8 C 4.209722 1.617433 -2.534767 0
M  V30 9 O 4.623644 1.575466 -3.859095 0
M  V30 10 C 2.913170 2.028143 -2.330072 0
M  V30 11 O 2.082499 2.374999 -3.381205 0
M  V30 12 C 2.405071 2.104485 -1.057413 0
M  V30 13 C 1.755583 1.541084 3.630154 0
M  V30 14 O 2.516240 2.339233 4.206556 0
M  V30 15 N 0.689104 0.831103 4.248471 0
M  V30 16 C -0.080539 0.012633 3.626178 0
M  V30 17 S -1.482004 -0.984208 4.215072 0
M  V30 18 C -1.774147 -1.695315 2.587672 0
M  V30 19 C -2.813396 -2.659554 2.244513 0
M  V30 20 C -2.901826 -3.108827 0.942830 0
M  V30 21 C -3.852010 -4.013085 0.550750 0
M  V30 22 C -4.738360 -4.470626 1.522345 0
M  V30 23 O -5.766640 -5.393767 1.289925 0
M  V30 24 C -4.645616 -4.016545 2.828185 0
M  V30 25 C -3.677958 -3.096065 3.226081 0
M  V30 26 N -0.936080 -1.235488 1.761512 0
M  V30 27 N -0.015938 -0.335612 2.228250 0
M  V30 28 H 0.581054 -0.606953 -0.268208 0
M  V30 29 H 3.452093 2.535325 2.015530 0
M  V30 30 H 5.132310 1.092690 0.592149 0
M  V30 31 H 6.001298 0.966876 -1.638627 0
M  V30 32 H 4.092485 1.053306 -4.555157 0
M  V30 33 H 1.081842 2.447130 -3.268656 0
M  V30 34 H 1.382700 2.454041 -0.871919 0
M  V30 35 H -2.212620 -2.761056 0.160004 0
M  V30 36 H -3.993617 -4.417283 -0.441532 0
M  V30 37 H -6.005796 -5.677586 0.331530 0
M  V30 38 H -5.315628 -4.343153 3.629208 0
M  V30 39 H -3.569918 -2.716540 4.229065 0
M  V30 END ATOM
M  V30 BEGIN BOND
M  V30 1 2 1 2
M  V30 2 1 2 3
M  V30 3 2 3 4
M  V30 4 1 4 5
M  V30 5 2 5 6
M  V30 6 1 6 7
M  V30 7 2 7 8
M  V30 8 1 8 9
M  V30 9 1 8 10
M  V30 10 1 10 11
M  V30 11 2 10 12
M  V30 12 1 3 13
M  V30 13 2 13 14
M  V30 14 1 13 15
M  V30 15 2 15 16
M  V30 16 1 16 17
M  V30 17 1 17 18
M  V30 18 1 18 19
M  V30 19 2 19 20
M  V30 20 1 20 21
M  V30 21 2 21 22
M  V30 22 1 22 23
M  V30 23 1 22 24
M  V30 24 2 24 25
M  V30 25 2 18 26
M  V30 26 1 26 27
M  V30 27 1 27 2
M  V30 28 1 12 5
M  V30 29 1 27 16
M  V30 30 1 25 19
M  V30 31 1 1 28
M  V30 32 1 4 29
M  V30 33 1 6 30
M  V30 34 1 7 31
M  V30 35 1 9 32
M  V30 36 1 11 33
M  V30 37 1 12 34
M  V30 38 1 20 35
M  V30 39 1 21 36
M  V30 40 1 23 37
M  V30 41 1 24 38
M  V30 42 1 25 39
M  V30 END BOND
M  V30 END CTAB
M  END
>  <Dataset>  (467) 
ChEMBL_Kinases

>  <Ligand_Instance>  (467) 
nan

>  <PDB_ID>  (467) 
nan

>  <Standardized_SMILES>  (467) 
N=C1/C(=C\c2ccc(O)c(O)c2)C(=O)N=C2SC(c3ccc(O)cc3)=NN12

>  <Name>  (467) 
nan

>  <Pocket>  (467) 
nan

>  <ATP_Site>  (467) 
nan

>  <Peripheral>  (467) 
nan

>  <Num_H_Atoms_ProtBoundConf>  (467) 
nan

>  <Num_Resolved_Atoms>  (467) 
nan

>  <Num_Not_Resolved_Atoms>  (467) 
nan

$$$$
CHEMBL568371
     RDKit          3D

  0  0  0  0  0  0  0  0  0  0999 V3000
M  V30 BEGIN CTAB
M  V30 COUNTS 64 68 0 0 0
M  V30 BEGIN ATOM
M  V30 1 C 3.006802 -2.161466 3.122574 0
M  V30 2 C 1.646373 -1.664348 3.329878 0
M  V30 3 C 1.490527 -0.296823 3.270250 0
M  V30 4 N 2.417299 0.717814 3.035016 0
M  V30 5 C 3.353382 1.138119 2.088276 0
M  V30 6 C 4.724218 0.949401 2.233081 0
M  V30 7 C 5.247572 0.326886 3.432150 0
M  V30 8 N 5.658672 -0.159616 4.407383 0
M  V30 9 C 5.687878 1.322478 1.320343 0
M  V30 10 N 5.258398 1.917294 0.201775 0
M  V30 11 C 3.955161 2.142179 -0.025279 0
M  V30 12 C 3.014497 1.757273 0.906923 0
M  V30 13 C 1.644592 2.074551 0.530732 0
M  V30 14 C 0.557552 2.665757 1.138272 0
M  V30 15 O -0.471371 2.703973 0.331366 0
M  V30 16 C -0.190379 2.170790 -0.833955 0
M  V30 17 C -1.117050 2.045994 -1.982665 0
M  V30 18 N -1.861134 0.822292 -1.975898 0
M  V30 19 C -2.747356 0.746204 -3.108935 0
M  V30 20 C -3.761492 -0.335939 -2.753460 0
M  V30 21 N -3.078289 -1.583386 -2.707511 0
M  V30 22 C -3.664012 -2.577860 -1.865123 0
M  V30 23 C -2.959195 -3.886558 -1.808594 0
M  V30 24 C -5.121745 -2.786366 -2.274911 0
M  V30 25 C -1.663485 -1.516775 -2.705297 0
M  V30 26 C -1.094686 -0.375048 -1.901142 0
M  V30 27 C 1.125191 1.769547 -0.736289 0
M  V30 28 C 0.188437 0.183565 3.462541 0
M  V30 29 C -0.873449 -0.680357 3.698262 0
M  V30 30 C -0.624354 -2.045693 3.741818 0
M  V30 31 N -1.403822 -3.148147 3.944506 0
M  V30 32 C -0.667256 -4.270634 3.889575 0
M  V30 33 C 0.645618 -3.929644 3.643853 0
M  V30 34 C 0.629013 -2.561570 3.560344 0
M  V30 35 H 3.525723 -1.685994 2.268944 0
M  V30 36 H 2.978842 -3.255095 2.880689 0
M  V30 37 H 3.576181 -1.983876 4.057301 0
M  V30 38 H 2.552725 1.490187 3.732494 0
M  V30 39 H 6.729910 1.157952 1.471662 0
M  V30 40 H 3.734215 2.626116 -0.956815 0
M  V30 41 H 0.660189 3.020300 2.168604 0
M  V30 42 H -1.856592 2.872015 -1.894501 0
M  V30 43 H -0.598781 2.225493 -2.958513 0
M  V30 44 H -3.244425 1.709828 -3.339275 0
M  V30 45 H -2.245886 0.406886 -4.040331 0
M  V30 46 H -4.133532 -0.100253 -1.716906 0
M  V30 47 H -4.645442 -0.316852 -3.417117 0
M  V30 48 H -3.706612 -2.159932 -0.837122 0
M  V30 49 H -3.742723 -4.662170 -1.567069 0
M  V30 50 H -2.499365 -4.224897 -2.741970 0
M  V30 51 H -2.282945 -3.912278 -0.935503 0
M  V30 52 H -5.417834 -3.746194 -1.791157 0
M  V30 53 H -5.761263 -2.011726 -1.779085 0
M  V30 54 H -5.245305 -2.808486 -3.364480 0
M  V30 55 H -1.296397 -1.407697 -3.752227 0
M  V30 56 H -1.211358 -2.444304 -2.311929 0
M  V30 57 H -1.099378 -0.712912 -0.832311 0
M  V30 58 H -0.061908 -0.216933 -2.278673 0
M  V30 59 H 1.669204 1.280881 -1.551412 0
M  V30 60 H -0.214669 1.208809 3.473159 0
M  V30 61 H -1.895636 -0.442240 3.857782 0
M  V30 62 H -2.437631 -3.130118 4.119956 0
M  V30 63 H -1.058196 -5.264628 4.019078 0
M  V30 64 H 1.487252 -4.571150 3.540582 0
M  V30 END ATOM
M  V30 BEGIN BOND
M  V30 1 1 1 2
M  V30 2 2 2 3
M  V30 3 1 3 4
M  V30 4 1 4 5
M  V30 5 2 5 6
M  V30 6 1 6 7
M  V30 7 3 7 8
M  V30 8 1 6 9
M  V30 9 2 9 10
M  V30 10 1 10 11
M  V30 11 2 11 12
M  V30 12 1 12 13
M  V30 13 2 13 14
M  V30 14 1 14 15
M  V30 15 1 15 16
M  V30 16 1 16 17
M  V30 17 1 17 18
M  V30 18 1 18 19
M  V30 19 1 19 20
M  V30 20 1 20 21
M  V30 21 1 21 22
M  V30 22 1 22 23
M  V30 23 1 22 24
M  V30 24 1 21 25
M  V30 25 1 25 26
M  V30 26 2 16 27
M  V30 27 1 3 28
M  V30 28 2 28 29
M  V30 29 1 29 30
M  V30 30 1 30 31
M  V30 31 1 31 32
M  V30 32 2 32 33
M  V30 33 1 33 34
M  V30 34 1 34 2
M  V30 35 1 12 5
M  V30 36 1 27 13
M  V30 37 2 34 30
M  V30 38 1 26 18
M  V30 39 1 1 35
M  V30 40 1 1 36
M  V30 41 1 1 37
M  V30 42 1 4 38
M  V30 43 1 9 39
M  V30 44 1 11 40
M  V30 45 1 14 41
M  V30 46 1 17 42
M  V30 47 1 17 43
M  V30 48 1 19 44
M  V30 49 1 19 45
M  V30 50 1 20 46
M  V30 51 1 20 47
M  V30 52 1 22 48
M  V30 53 1 23 49
M  V30 54 1 23 50
M  V30 55 1 23 51
M  V30 56 1 24 52
M  V30 57 1 24 53
M  V30 58 1 24 54
M  V30 59 1 25 55
M  V30 60 1 25 56
M  V30 61 1 26 57
M  V30 62 1 26 58
M  V30 63 1 27 59
M  V30 64 1 28 60
M  V30 65 1 29 61
M  V30 66 1 31 62
M  V30 67 1 32 63
M  V30 68 1 33 64
M  V30 END BOND
M  V30 END CTAB
M  END
>  <Dataset>  (468) 
ChEMBL_Kinases

>  <Ligand_Instance>  (468) 
nan

>  <PDB_ID>  (468) 
nan

>  <Standardized_SMILES>  (468) 
Cc1c(Nc2c(C#N)cncc2-c2coc(CN3CCN(C(C)C)CC3)c2)ccc2[nH]ccc12

>  <Name>  (468) 
nan

>  <Pocket>  (468) 
nan

>  <ATP_Site>  (468) 
nan

>  <Peripheral>  (468) 
nan

>  <Num_H_Atoms_ProtBoundConf>  (468) 
nan

>  <Num_Resolved_Atoms>  (468) 
nan

>  <Num_Not_Resolved_Atoms>  (468) 
nan

$$$$
CHEMBL467871
     RDKit          3D

  0  0  0  0  0  0  0  0  0  0999 V3000
M  V30 BEGIN CTAB
M  V30 COUNTS 65 69 0 0 0
M  V30 BEGIN ATOM
M  V30 1 C 1.428093 -1.361001 2.993460 0
M  V30 2 C 2.707649 -0.684232 2.730031 0
M  V30 3 C 3.941508 -1.279107 2.837010 0
M  V30 4 C 5.038724 -0.497486 2.559994 0
M  V30 5 N 6.330095 -0.867083 2.600401 0
M  V30 6 C 7.124977 0.187463 2.261141 0
M  V30 7 C 6.288458 1.262065 1.997830 0
M  V30 8 C 4.994110 0.827525 2.185916 0
M  V30 9 C 3.716155 1.386488 2.091237 0
M  V30 10 C 2.567399 0.629141 2.363964 0
M  V30 11 N 1.435169 1.467357 2.189491 0
M  V30 12 C 0.310712 2.004885 2.858685 0
M  V30 13 C 0.557145 3.137975 3.590299 0
M  V30 14 C 1.855437 3.741118 3.675517 0
M  V30 15 N 2.908952 4.249848 3.742511 0
M  V30 16 C -0.451148 3.763512 4.294287 0
M  V30 17 N -1.678972 3.219277 4.234007 0
M  V30 18 C -1.938350 2.108785 3.521487 0
M  V30 19 C -0.948982 1.462990 2.807838 0
M  V30 20 C -1.349141 0.289324 2.069197 0
M  V30 21 C -2.079964 -0.661985 2.799206 0
M  V30 22 C -2.498404 -1.806513 2.121642 0
M  V30 23 C -2.223946 -2.040143 0.768184 0
M  V30 24 O -2.738009 -3.184962 0.414610 0
M  V30 25 C -2.956957 -4.100082 -0.534507 0
M  V30 26 C -3.753786 -3.609924 -1.715738 0
M  V30 27 N -3.087567 -2.565121 -2.407380 0
M  V30 28 C -1.918080 -2.962692 -3.110871 0
M  V30 29 C -1.619982 -2.330501 -4.406691 0
M  V30 30 N -2.352777 -1.124466 -4.715861 0
M  V30 31 C -1.840275 0.028592 -4.047900 0
M  V30 32 C -3.743241 -1.406143 -4.475859 0
M  V30 33 C -3.905812 -1.576155 -2.990701 0
M  V30 34 C -1.503476 -1.039113 0.164015 0
M  V30 35 C -1.045531 0.122159 0.738313 0
M  V30 36 H 0.840170 -1.610737 2.091125 0
M  V30 37 H 0.841466 -0.707291 3.669866 0
M  V30 38 H 1.671459 -2.319645 3.525520 0
M  V30 39 H 3.962651 -2.317535 3.130901 0
M  V30 40 H 6.768168 -1.791380 2.841356 0
M  V30 41 H 8.211715 0.192819 2.205630 0
M  V30 42 H 6.551427 2.265661 1.699717 0
M  V30 43 H 3.779551 2.441098 1.788163 0
M  V30 44 H 1.279205 1.914200 1.258847 0
M  V30 45 H -0.310723 4.655010 4.884611 0
M  V30 46 H -2.973344 1.789694 3.568879 0
M  V30 47 H -2.294117 -0.474735 3.865306 0
M  V30 48 H -3.058490 -2.469348 2.804030 0
M  V30 49 H -1.979151 -4.486242 -0.984746 0
M  V30 50 H -3.468606 -5.040821 -0.148244 0
M  V30 51 H -4.739822 -3.182397 -1.366150 0
M  V30 52 H -4.028503 -4.454721 -2.387136 0
M  V30 53 H -1.030676 -2.918208 -2.452697 0
M  V30 54 H -2.042721 -4.074902 -3.308984 0
M  V30 55 H -0.542758 -2.057253 -4.485072 0
M  V30 56 H -1.804710 -3.014929 -5.282436 0
M  V30 57 H -1.096078 -0.260311 -3.300176 0
M  V30 58 H -1.280784 0.619540 -4.821407 0
M  V30 59 H -2.627885 0.718227 -3.678805 0
M  V30 60 H -4.436660 -0.616108 -4.813465 0
M  V30 61 H -3.974811 -2.388948 -4.940153 0
M  V30 62 H -3.720564 -0.617875 -2.453744 0
M  V30 63 H -4.970998 -1.825598 -2.803131 0
M  V30 64 H -1.284064 -1.202127 -0.858794 0
M  V30 65 H -0.491593 0.835260 0.151215 0
M  V30 END ATOM
M  V30 BEGIN BOND
M  V30 1 1 1 2
M  V30 2 2 2 3
M  V30 3 1 3 4
M  V30 4 1 4 5
M  V30 5 1 5 6
M  V30 6 2 6 7
M  V30 7 1 7 8
M  V30 8 1 8 9
M  V30 9 2 9 10
M  V30 10 1 10 11
M  V30 11 1 11 12
M  V30 12 2 12 13
M  V30 13 1 13 14
M  V30 14 3 14 15
M  V30 15 1 13 16
M  V30 16 2 16 17
M  V30 17 1 17 18
M  V30 18 2 18 19
M  V30 19 1 19 20
M  V30 20 2 20 21
M  V30 21 1 21 22
M  V30 22 2 22 23
M  V30 23 1 23 24
M  V30 24 1 24 25
M  V30 25 1 25 26
M  V30 26 1 26 27
M  V30 27 1 27 28
M  V30 28 1 28 29
M  V30 29 1 29 30
M  V30 30 1 30 31
M  V30 31 1 30 32
M  V30 32 1 32 33
M  V30 33 1 23 34
M  V30 34 2 34 35
M  V30 35 1 10 2
M  V30 36 1 19 12
M  V30 37 1 35 20
M  V30 38 2 8 4
M  V30 39 1 33 27
M  V30 40 1 1 36
M  V30 41 1 1 37
M  V30 42 1 1 38
M  V30 43 1 3 39
M  V30 44 1 5 40
M  V30 45 1 6 41
M  V30 46 1 7 42
M  V30 47 1 9 43
M  V30 48 1 11 44
M  V30 49 1 16 45
M  V30 50 1 18 46
M  V30 51 1 21 47
M  V30 52 1 22 48
M  V30 53 1 25 49
M  V30 54 1 25 50
M  V30 55 1 26 51
M  V30 56 1 26 52
M  V30 57 1 28 53
M  V30 58 1 28 54
M  V30 59 1 29 55
M  V30 60 1 29 56
M  V30 61 1 31 57
M  V30 62 1 31 58
M  V30 63 1 31 59
M  V30 64 1 32 60
M  V30 65 1 32 61
M  V30 66 1 33 62
M  V30 67 1 33 63
M  V30 68 1 34 64
M  V30 69 1 35 65
M  V30 END BOND
M  V30 END CTAB
M  END
>  <Dataset>  (469) 
ChEMBL_Kinases

>  <Ligand_Instance>  (469) 
nan

>  <PDB_ID>  (469) 
nan

>  <Standardized_SMILES>  (469) 
Cc1cc2[nH]ccc2cc1Nc1c(C#N)cncc1-c1ccc(OCCN2CCN(C)CC2)cc1

>  <Name>  (469) 
nan

>  <Pocket>  (469) 
nan

>  <ATP_Site>  (469) 
nan

>  <Peripheral>  (469) 
nan

>  <Num_H_Atoms_ProtBoundConf>  (469) 
nan

>  <Num_Resolved_Atoms>  (469) 
nan

>  <Num_Not_Resolved_Atoms>  (469) 
nan

$$$$
CHEMBL4647800
     RDKit          3D

  0  0  0  0  0  0  0  0  0  0999 V3000
M  V30 BEGIN CTAB
M  V30 COUNTS 50 53 0 0 0
M  V30 BEGIN ATOM
M  V30 1 C 0.404774 1.453853 4.568889 0
M  V30 2 C 1.707353 0.728617 4.389725 0
M  V30 3 N 2.222286 -0.265018 5.132930 0
M  V30 4 O 3.391584 -0.628651 4.638538 0
M  V30 5 C 3.687374 0.085492 3.583912 0
M  V30 6 C 4.890796 0.027192 2.711166 0
M  V30 7 C 2.647181 0.967917 3.379491 0
M  V30 8 C 2.424490 2.000127 2.364781 0
M  V30 9 C 2.860176 3.322458 2.524835 0
M  V30 10 N 2.588943 4.169798 1.521050 0
M  V30 11 C 1.937400 3.816914 0.402459 0
M  V30 12 N 1.683300 4.781529 -0.628970 0
M  V30 13 C 1.499640 2.517800 0.225502 0
M  V30 14 O 0.821800 2.126823 -0.923468 0
M  V30 15 C 0.432578 0.772703 -0.978008 0
M  V30 16 C -0.816982 0.549195 -0.416348 0
M  V30 17 C -1.335245 -0.738278 -0.397054 0
M  V30 18 C -0.564517 -1.745234 -0.948166 0
M  V30 19 C -1.160885 -3.071349 -0.894840 0
M  V30 20 O -0.373168 -3.812830 -0.265627 0
M  V30 21 N -2.328106 -3.721802 -1.336216 0
M  V30 22 C -2.435372 -5.118387 -1.000686 0
M  V30 23 C -3.661819 -5.296288 -0.131480 0
M  V30 24 O -4.752623 -4.571828 -0.574809 0
M  V30 25 C -4.631199 -4.122437 -1.877811 0
M  V30 26 C -3.450952 -3.192218 -2.086084 0
M  V30 27 C 0.676607 -1.510481 -1.503800 0
M  V30 28 C 1.199638 -0.233849 -1.527305 0
M  V30 29 N 1.778777 1.691063 1.233695 0
M  V30 30 H -0.297608 1.202470 3.733061 0
M  V30 31 H 0.542243 2.528749 4.724856 0
M  V30 32 H -0.068179 1.041312 5.482823 0
M  V30 33 H 4.761524 -0.655874 1.866201 0
M  V30 34 H 5.132456 1.074312 2.396873 0
M  V30 35 H 5.752450 -0.258296 3.366506 0
M  V30 36 H 3.379804 3.557703 3.442281 0
M  V30 37 H 2.505796 5.276992 -1.071521 0
M  V30 38 H 0.753022 5.030902 -0.974691 0
M  V30 39 H -1.429052 1.336166 0.019346 0
M  V30 40 H -2.313854 -0.925960 0.040163 0
M  V30 41 H -1.585035 -5.504596 -0.413140 0
M  V30 42 H -2.582286 -5.775330 -1.892035 0
M  V30 43 H -3.936429 -6.374904 -0.161611 0
M  V30 44 H -3.380453 -5.065204 0.906424 0
M  V30 45 H -4.542991 -4.956581 -2.605029 0
M  V30 46 H -5.544292 -3.522506 -2.091483 0
M  V30 47 H -3.233462 -3.149913 -3.164912 0
M  V30 48 H -3.755941 -2.194034 -1.758790 0
M  V30 49 H 1.253380 -2.323620 -1.927171 0
M  V30 50 H 2.146600 0.033943 -1.935190 0
M  V30 END ATOM
M  V30 BEGIN BOND
M  V30 1 1 1 2
M  V30 2 2 2 3
M  V30 3 1 3 4
M  V30 4 1 4 5
M  V30 5 1 5 6
M  V30 6 2 5 7
M  V30 7 1 7 8
M  V30 8 2 8 9
M  V30 9 1 9 10
M  V30 10 2 10 11
M  V30 11 1 11 12
M  V30 12 1 11 13
M  V30 13 1 13 14
M  V30 14 1 14 15
M  V30 15 2 15 16
M  V30 16 1 16 17
M  V30 17 2 17 18
M  V30 18 1 18 19
M  V30 19 2 19 20
M  V30 20 1 19 21
M  V30 21 1 21 22
M  V30 22 1 22 23
M  V30 23 1 23 24
M  V30 24 1 24 25
M  V30 25 1 25 26
M  V30 26 1 18 27
M  V30 27 2 27 28
M  V30 28 2 13 29
M  V30 29 1 7 2
M  V30 30 1 29 8
M  V30 31 1 28 15
M  V30 32 1 26 21
M  V30 33 1 1 30
M  V30 34 1 1 31
M  V30 35 1 1 32
M  V30 36 1 6 33
M  V30 37 1 6 34
M  V30 38 1 6 35
M  V30 39 1 9 36
M  V30 40 1 12 37
M  V30 41 1 12 38
M  V30 42 1 16 39
M  V30 43 1 17 40
M  V30 44 1 22 41
M  V30 45 1 22 42
M  V30 46 1 23 43
M  V30 47 1 23 44
M  V30 48 1 25 45
M  V30 49 1 25 46
M  V30 50 1 26 47
M  V30 51 1 26 48
M  V30 52 1 27 49
M  V30 53 1 28 50
M  V30 END BOND
M  V30 END CTAB
M  END
>  <Dataset>  (470) 
ChEMBL_Kinases

>  <Ligand_Instance>  (470) 
nan

>  <PDB_ID>  (470) 
nan

>  <Standardized_SMILES>  (470) 
Cc1noc(C)c1-c1cnc(N)c(Oc2ccc(C(=O)N3CCOCC3)cc2)n1

>  <Name>  (470) 
nan

>  <Pocket>  (470) 
nan

>  <ATP_Site>  (470) 
nan

>  <Peripheral>  (470) 
nan

>  <Num_H_Atoms_ProtBoundConf>  (470) 
nan

>  <Num_Resolved_Atoms>  (470) 
nan

>  <Num_Not_Resolved_Atoms>  (470) 
nan

$$$$
CHEMBL4648006
     RDKit          3D

  0  0  0  0  0  0  0  0  0  0999 V3000
M  V30 BEGIN CTAB
M  V30 COUNTS 45 48 0 0 0
M  V30 BEGIN ATOM
M  V30 1 O 0.136101 -4.707318 0.261915 0
M  V30 2 C 0.605785 -4.205705 1.456733 0
M  V30 3 C 1.369273 -5.092015 2.184335 0
M  V30 4 C 1.916984 -4.729663 3.418767 0
M  V30 5 C 1.673071 -3.449275 3.898116 0
M  V30 6 C 0.905166 -2.571478 3.156569 0
M  V30 7 C 0.360413 -2.933327 1.927766 0
M  V30 8 C -0.454706 -2.047282 1.108023 0
M  V30 9 C -0.107983 -0.732114 0.878270 0
M  V30 10 C -0.874881 0.107815 0.104546 0
M  V30 11 N -0.491999 1.455417 -0.122687 0
M  V30 12 C 0.731608 1.952698 0.434635 0
M  V30 13 C 0.935792 3.450633 0.206756 0
M  V30 14 C 2.287843 3.763935 0.818220 0
M  V30 15 C 2.910621 2.599965 1.532547 0
M  V30 16 N 3.003400 1.398016 0.729965 0
M  V30 17 C 1.952042 1.317620 -0.249613 0
M  V30 18 C -2.010476 -0.467734 -0.418546 0
M  V30 19 C -2.853224 0.273908 -1.206501 0
M  V30 20 C -4.008123 -0.229962 -1.766415 0
M  V30 21 N -4.335899 -1.527646 -1.530444 0
M  V30 22 C -3.534457 -2.302858 -0.757206 0
M  V30 23 C -2.379624 -1.772361 -0.206442 0
M  V30 24 C -1.595076 -2.591123 0.570888 0
M  V30 25 H -0.394299 -5.562105 0.182182 0
M  V30 26 H 1.600012 -6.103408 1.873505 0
M  V30 27 H 2.528051 -5.425016 4.011116 0
M  V30 28 H 2.092065 -3.157743 4.852686 0
M  V30 29 H 0.701534 -1.554547 3.519645 0
M  V30 30 H 0.808180 -0.429038 1.363818 0
M  V30 31 H -1.013505 2.149458 -0.665473 0
M  V30 32 H 0.774812 1.788729 1.526008 0
M  V30 33 H 0.116365 4.064555 0.584829 0
M  V30 34 H 1.068133 3.558735 -0.906876 0
M  V30 35 H 2.973788 4.287577 0.130437 0
M  V30 36 H 2.064121 4.521515 1.624259 0
M  V30 37 H 3.969336 2.900298 1.734278 0
M  V30 38 H 2.431914 2.462454 2.505714 0
M  V30 39 H 3.953662 1.195590 0.370610 0
M  V30 40 H 1.763992 0.331414 -0.656323 0
M  V30 41 H 2.286943 1.974438 -1.103360 0
M  V30 42 H -2.652395 1.299721 -1.430082 0
M  V30 43 H -4.701123 0.313678 -2.391705 0
M  V30 44 H -3.792853 -3.335175 -0.567995 0
M  V30 45 H -1.891550 -3.614284 0.732676 0
M  V30 END ATOM
M  V30 BEGIN BOND
M  V30 1 1 1 2
M  V30 2 2 2 3
M  V30 3 1 3 4
M  V30 4 2 4 5
M  V30 5 1 5 6
M  V30 6 2 6 7
M  V30 7 1 7 8
M  V30 8 2 8 9
M  V30 9 1 9 10
M  V30 10 1 10 11
M  V30 11 1 11 12
M  V30 12 1 12 13
M  V30 13 1 13 14
M  V30 14 1 14 15
M  V30 15 1 15 16
M  V30 16 1 16 17
M  V30 17 2 10 18
M  V30 18 1 18 19
M  V30 19 2 19 20
M  V30 20 1 20 21
M  V30 21 2 21 22
M  V30 22 1 22 23
M  V30 23 2 23 24
M  V30 24 1 7 2
M  V30 25 1 24 8
M  V30 26 1 17 12
M  V30 27 1 23 18
M  V30 28 1 1 25
M  V30 29 1 3 26
M  V30 30 1 4 27
M  V30 31 1 5 28
M  V30 32 1 6 29
M  V30 33 1 9 30
M  V30 34 1 11 31
M  V30 35 1 12 32
M  V30 36 1 13 33
M  V30 37 1 13 34
M  V30 38 1 14 35
M  V30 39 1 14 36
M  V30 40 1 15 37
M  V30 41 1 15 38
M  V30 42 1 16 39
M  V30 43 1 17 40
M  V30 44 1 17 41
M  V30 45 1 19 42
M  V30 46 1 20 43
M  V30 47 1 22 44
M  V30 48 1 24 45
M  V30 END BOND
M  V30 END CTAB
M  END
>  <Dataset>  (471) 
ChEMBL_Kinases

>  <Ligand_Instance>  (471) 
nan

>  <PDB_ID>  (471) 
nan

>  <Standardized_SMILES>  (471) 
Oc1ccccc1-c1cc(NC2CCCNC2)c2ccncc2c1

>  <Name>  (471) 
nan

>  <Pocket>  (471) 
nan

>  <ATP_Site>  (471) 
nan

>  <Peripheral>  (471) 
nan

>  <Num_H_Atoms_ProtBoundConf>  (471) 
nan

>  <Num_Resolved_Atoms>  (471) 
nan

>  <Num_Not_Resolved_Atoms>  (471) 
nan

$$$$
CHEMBL4648047
     RDKit          3D

  0  0  0  0  0  0  0  0  0  0999 V3000
M  V30 BEGIN CTAB
M  V30 COUNTS 45 49 0 0 0
M  V30 BEGIN ATOM
M  V30 1 O -1.066740 -3.916837 2.283426 0
M  V30 2 C -0.215991 -4.626693 2.831801 0
M  V30 3 N 1.145741 -4.231328 2.805399 0
M  V30 4 C 1.725489 -3.109896 2.231510 0
M  V30 5 C 1.106978 -2.111104 1.547900 0
M  V30 6 C 1.740308 -1.015516 0.997408 0
M  V30 7 C 1.013402 0.019045 0.276140 0
M  V30 8 C 1.281591 1.359466 0.520306 0
M  V30 9 N 0.478503 2.125621 -0.271644 0
M  V30 10 C 0.467168 3.547674 -0.300764 0
M  V30 11 C 0.643082 4.067010 -1.576823 0
M  V30 12 C 0.650926 5.446949 -1.737500 0
M  V30 13 C 0.488584 6.299676 -0.661770 0
M  V30 14 C 0.314094 5.767088 0.605309 0
M  V30 15 C 0.303398 4.399174 0.785105 0
M  V30 16 C -0.288991 1.312251 -1.008837 0
M  V30 17 C -1.271422 1.499800 -1.968127 0
M  V30 18 N -1.867045 0.437374 -2.534770 0
M  V30 19 C -1.548203 -0.828486 -2.208123 0
M  V30 20 C -0.567924 -1.106835 -1.249776 0
M  V30 21 C 0.022476 0.007642 -0.688878 0
M  V30 22 C 3.118486 -0.902267 1.140014 0
M  V30 23 C 3.719578 -1.912221 1.827564 0
M  V30 24 N 3.056789 -2.951425 2.340296 0
M  V30 25 C -0.761512 -5.837435 3.463624 0
M  V30 26 C -1.962028 -6.521265 2.775953 0
M  V30 27 C -2.163227 -5.785181 4.048737 0
M  V30 28 H 1.729925 -4.945246 3.315647 0
M  V30 29 H 0.057547 -2.135936 1.403108 0
M  V30 30 H 1.994965 1.798778 1.209539 0
M  V30 31 H 0.778368 3.495746 -2.483908 0
M  V30 32 H 0.784012 5.914501 -2.708588 0
M  V30 33 H 0.490690 7.388599 -0.759847 0
M  V30 34 H 0.177576 6.363077 1.519183 0
M  V30 35 H 0.177712 3.868159 1.709034 0
M  V30 36 H -1.494196 2.535665 -2.198276 0
M  V30 37 H -2.062370 -1.649562 -2.698495 0
M  V30 38 H -0.294504 -2.115805 -0.970663 0
M  V30 39 H 3.615346 -0.044242 0.709019 0
M  V30 40 H 4.784941 -1.874925 1.967460 0
M  V30 41 H -0.075478 -6.538732 3.981823 0
M  V30 42 H -2.295254 -6.013638 1.835755 0
M  V30 43 H -1.972947 -7.617106 2.720876 0
M  V30 44 H -2.412591 -6.419264 4.915963 0
M  V30 45 H -2.718421 -4.815354 3.979034 0
M  V30 END ATOM
M  V30 BEGIN BOND
M  V30 1 2 1 2
M  V30 2 1 2 3
M  V30 3 1 3 4
M  V30 4 2 4 5
M  V30 5 1 5 6
M  V30 6 1 6 7
M  V30 7 2 7 8
M  V30 8 1 8 9
M  V30 9 1 9 10
M  V30 10 2 10 11
M  V30 11 1 11 12
M  V30 12 2 12 13
M  V30 13 1 13 14
M  V30 14 2 14 15
M  V30 15 1 9 16
M  V30 16 2 16 17
M  V30 17 1 17 18
M  V30 18 2 18 19
M  V30 19 1 19 20
M  V30 20 2 20 21
M  V30 21 2 6 22
M  V30 22 1 22 23
M  V30 23 2 23 24
M  V30 24 1 2 25
M  V30 25 1 25 26
M  V30 26 1 26 27
M  V30 27 1 24 4
M  V30 28 1 27 25
M  V30 29 1 21 7
M  V30 30 1 15 10
M  V30 31 1 21 16
M  V30 32 1 3 28
M  V30 33 1 5 29
M  V30 34 1 8 30
M  V30 35 1 11 31
M  V30 36 1 12 32
M  V30 37 1 13 33
M  V30 38 1 14 34
M  V30 39 1 15 35
M  V30 40 1 17 36
M  V30 41 1 19 37
M  V30 42 1 20 38
M  V30 43 1 22 39
M  V30 44 1 23 40
M  V30 45 1 25 41
M  V30 46 1 26 42
M  V30 47 1 26 43
M  V30 48 1 27 44
M  V30 49 1 27 45
M  V30 END BOND
M  V30 END CTAB
M  END
>  <Dataset>  (472) 
ChEMBL_Kinases

>  <Ligand_Instance>  (472) 
nan

>  <PDB_ID>  (472) 
nan

>  <Standardized_SMILES>  (472) 
O=C(Nc1cc(-c2cn(-c3ccccc3)c3cnccc23)ccn1)C1CC1

>  <Name>  (472) 
nan

>  <Pocket>  (472) 
nan

>  <ATP_Site>  (472) 
nan

>  <Peripheral>  (472) 
nan

>  <Num_H_Atoms_ProtBoundConf>  (472) 
nan

>  <Num_Resolved_Atoms>  (472) 
nan

>  <Num_Not_Resolved_Atoms>  (472) 
nan

$$$$
CHEMBL4648102
     RDKit          3D

  0  0  0  0  0  0  0  0  0  0999 V3000
M  V30 BEGIN CTAB
M  V30 COUNTS 62 65 0 0 0
M  V30 BEGIN ATOM
M  V30 1 C -0.003427 -4.231947 5.108101 0
M  V30 2 O 0.856304 -5.145132 4.502133 0
M  V30 3 C 1.644560 -4.884600 3.408666 0
M  V30 4 C 1.564771 -3.611680 2.886431 0
M  V30 5 C 2.309779 -3.238343 1.789393 0
M  V30 6 C 2.333173 -1.939386 1.131117 0
M  V30 7 C 3.590016 -1.415791 0.795056 0
M  V30 8 N 3.825872 -0.242037 0.187596 0
M  V30 9 C 2.790377 0.544309 -0.151804 0
M  V30 10 C 1.512354 0.065068 0.162951 0
M  V30 11 C 0.412356 0.945262 -0.208891 0
M  V30 12 C -0.633050 1.311604 0.612994 0
M  V30 13 C -1.621640 2.146524 0.141023 0
M  V30 14 C -1.650098 2.663872 -1.134750 0
M  V30 15 O -2.565167 3.490968 -1.709460 0
M  V30 16 C -3.708041 4.013112 -1.063546 0
M  V30 17 C -3.768020 5.493365 -1.163183 0
M  V30 18 C -4.562881 6.066361 -2.276387 0
M  V30 19 N -5.521486 5.218919 -2.900122 0
M  V30 20 C -5.059601 3.859467 -3.078527 0
M  V30 21 C -4.896388 3.299192 -1.682614 0
M  V30 22 C -0.576376 2.273294 -1.942357 0
M  V30 23 C 0.435201 1.426338 -1.477451 0
M  V30 24 C 1.267568 -1.139190 0.785843 0
M  V30 25 C -0.067930 -1.636085 1.103004 0
M  V30 26 C 3.128509 -4.166669 1.235833 0
M  V30 27 C 3.269895 -5.457274 1.692133 0
M  V30 28 O 4.016944 -6.544172 1.306581 0
M  V30 29 C 4.886591 -6.489704 0.213893 0
M  V30 30 C 2.491613 -5.794679 2.812135 0
M  V30 31 O 2.461832 -7.046238 3.458466 0
M  V30 32 C 1.507558 -8.017346 3.006886 0
M  V30 33 H -0.930208 -4.043694 4.516411 0
M  V30 34 H -0.373935 -4.677957 6.063792 0
M  V30 35 H 0.557429 -3.315360 5.315230 0
M  V30 36 H 0.924452 -2.853662 3.310997 0
M  V30 37 H 4.485964 -1.979519 1.029416 0
M  V30 38 H 2.950593 1.491585 -0.641250 0
M  V30 39 H -0.647011 0.933284 1.613089 0
M  V30 40 H -2.424271 2.420916 0.788072 0
M  V30 41 H -3.745828 3.732797 0.027610 0
M  V30 42 H -2.701511 5.843751 -1.311734 0
M  V30 43 H -4.045689 5.937631 -0.168415 0
M  V30 44 H -3.931392 6.536750 -3.075854 0
M  V30 45 H -5.133930 6.947532 -1.854915 0
M  V30 46 H -6.473303 5.232264 -2.489440 0
M  V30 47 H -4.094530 3.871963 -3.619652 0
M  V30 48 H -5.849116 3.299737 -3.620265 0
M  V30 49 H -5.833602 3.504313 -1.130309 0
M  V30 50 H -4.671184 2.225163 -1.652021 0
M  V30 51 H -0.504391 2.626942 -2.968998 0
M  V30 52 H 1.231790 1.177847 -2.178479 0
M  V30 53 H -0.200722 -2.721358 0.943847 0
M  V30 54 H -0.765163 -1.145237 0.360324 0
M  V30 55 H -0.476075 -1.392223 2.077511 0
M  V30 56 H 3.757032 -3.994251 0.375681 0
M  V30 57 H 5.896994 -6.925822 0.460018 0
M  V30 58 H 5.083885 -5.439701 -0.040164 0
M  V30 59 H 4.528475 -7.082467 -0.655552 0
M  V30 60 H 1.925862 -8.503217 2.091825 0
M  V30 61 H 1.438160 -8.799038 3.788779 0
M  V30 62 H 0.548875 -7.548595 2.777013 0
M  V30 END ATOM
M  V30 BEGIN BOND
M  V30 1 1 1 2
M  V30 2 1 2 3
M  V30 3 2 3 4
M  V30 4 1 4 5
M  V30 5 1 5 6
M  V30 6 2 6 7
M  V30 7 1 7 8
M  V30 8 2 8 9
M  V30 9 1 9 10
M  V30 10 1 10 11
M  V30 11 2 11 12
M  V30 12 1 12 13
M  V30 13 2 13 14
M  V30 14 1 14 15
M  V30 15 1 15 16
M  V30 16 1 16 17
M  V30 17 1 17 18
M  V30 18 1 18 19
M  V30 19 1 19 20
M  V30 20 1 20 21
M  V30 21 1 14 22
M  V30 22 2 22 23
M  V30 23 2 10 24
M  V30 24 1 24 25
M  V30 25 2 5 26
M  V30 26 1 26 27
M  V30 27 1 27 28
M  V30 28 1 28 29
M  V30 29 2 27 30
M  V30 30 1 30 31
M  V30 31 1 31 32
M  V30 32 1 30 3
M  V30 33 1 24 6
M  V30 34 1 23 11
M  V30 35 1 21 16
M  V30 36 1 1 33
M  V30 37 1 1 34
M  V30 38 1 1 35
M  V30 39 1 4 36
M  V30 40 1 7 37
M  V30 41 1 9 38
M  V30 42 1 12 39
M  V30 43 1 13 40
M  V30 44 1 16 41
M  V30 45 1 17 42
M  V30 46 1 17 43
M  V30 47 1 18 44
M  V30 48 1 18 45
M  V30 49 1 19 46
M  V30 50 1 20 47
M  V30 51 1 20 48
M  V30 52 1 21 49
M  V30 53 1 21 50
M  V30 54 1 22 51
M  V30 55 1 23 52
M  V30 56 1 25 53
M  V30 57 1 25 54
M  V30 58 1 25 55
M  V30 59 1 26 56
M  V30 60 1 29 57
M  V30 61 1 29 58
M  V30 62 1 29 59
M  V30 63 1 32 60
M  V30 64 1 32 61
M  V30 65 1 32 62
M  V30 END BOND
M  V30 END CTAB
M  END
>  <Dataset>  (473) 
ChEMBL_Kinases

>  <Ligand_Instance>  (473) 
nan

>  <PDB_ID>  (473) 
nan

>  <Standardized_SMILES>  (473) 
COc1cc(-c2cncc(-c3ccc(OC4CCNCC4)cc3)c2C)cc(OC)c1OC

>  <Name>  (473) 
nan

>  <Pocket>  (473) 
nan

>  <ATP_Site>  (473) 
nan

>  <Peripheral>  (473) 
nan

>  <Num_H_Atoms_ProtBoundConf>  (473) 
nan

>  <Num_Resolved_Atoms>  (473) 
nan

>  <Num_Not_Resolved_Atoms>  (473) 
nan

$$$$
CHEMBL205402
     RDKit          3D

  0  0  0  0  0  0  0  0  0  0999 V3000
M  V30 BEGIN CTAB
M  V30 COUNTS 47 50 0 0 0
M  V30 BEGIN ATOM
M  V30 1 C 1.428350 -7.607600 6.153744 0
M  V30 2 C 1.482080 -6.730000 4.967104 0
M  V30 3 C 0.427898 -5.896636 4.585849 0
M  V30 4 N 0.589362 -5.137509 3.485067 0
M  V30 5 C 1.721957 -5.161781 2.755865 0
M  V30 6 C 1.909397 -4.345385 1.563386 0
M  V30 7 O 2.951365 -4.341760 0.861649 0
M  V30 8 N 0.849196 -3.507455 1.178292 0
M  V30 9 C 0.573691 -2.573837 0.143143 0
M  V30 10 C 0.913586 -1.250918 0.325889 0
M  V30 11 C 0.622588 -0.372026 -0.708643 0
M  V30 12 C 0.938788 1.071554 -0.646567 0
M  V30 13 C 2.041553 1.577019 0.038959 0
M  V30 14 C 2.260534 2.940791 0.042852 0
M  V30 15 N 1.449455 3.814643 -0.591806 0
M  V30 16 C 0.382142 3.340542 -1.256866 0
M  V30 17 N -0.582149 4.118402 -1.986386 0
M  V30 18 C -1.712831 4.647863 -1.301256 0
M  V30 19 C -2.720357 5.379555 -1.936807 0
M  V30 20 C -3.796475 5.866162 -1.180808 0
M  V30 21 C -3.905814 5.651385 0.181691 0
M  V30 22 C -2.900084 4.925236 0.793812 0
M  V30 23 C -1.850122 4.448137 0.068179 0
M  V30 24 C 0.110757 1.984165 -1.296469 0
M  V30 25 C 0.015360 -0.860075 -1.854213 0
M  V30 26 C -0.310176 -2.178336 -2.007270 0
M  V30 27 N -0.021277 -3.023330 -0.992387 0
M  V30 28 C 2.762840 -5.972868 3.117171 0
M  V30 29 N 2.596376 -6.726966 4.214813 0
M  V30 30 H 1.791723 -8.655373 5.945973 0
M  V30 31 H 2.026551 -7.177580 7.008577 0
M  V30 32 H 0.404433 -7.739583 6.556692 0
M  V30 33 H -0.470689 -5.887385 5.177123 0
M  V30 34 H -0.049252 -3.456279 1.712604 0
M  V30 35 H 1.389523 -0.865798 1.222796 0
M  V30 36 H 2.679876 0.861795 0.540413 0
M  V30 37 H 3.120749 3.326501 0.578310 0
M  V30 38 H -0.509612 4.325835 -3.006815 0
M  V30 39 H -2.643012 5.552464 -3.001376 0
M  V30 40 H -4.585332 6.441859 -1.691055 0
M  V30 41 H -4.720974 6.014807 0.783255 0
M  V30 42 H -2.898586 4.703191 1.873007 0
M  V30 43 H -1.064972 3.879668 0.552768 0
M  V30 44 H -0.749427 1.543508 -1.825884 0
M  V30 45 H -0.246763 -0.234186 -2.715344 0
M  V30 46 H -0.781531 -2.656024 -2.852698 0
M  V30 47 H 3.669391 -6.000661 2.545259 0
M  V30 END ATOM
M  V30 BEGIN BOND
M  V30 1 1 1 2
M  V30 2 2 2 3
M  V30 3 1 3 4
M  V30 4 2 4 5
M  V30 5 1 5 6
M  V30 6 2 6 7
M  V30 7 1 6 8
M  V30 8 1 8 9
M  V30 9 2 9 10
M  V30 10 1 10 11
M  V30 11 1 11 12
M  V30 12 2 12 13
M  V30 13 1 13 14
M  V30 14 2 14 15
M  V30 15 1 15 16
M  V30 16 1 16 17
M  V30 17 1 17 18
M  V30 18 2 18 19
M  V30 19 1 19 20
M  V30 20 2 20 21
M  V30 21 1 21 22
M  V30 22 2 22 23
M  V30 23 2 16 24
M  V30 24 2 11 25
M  V30 25 1 25 26
M  V30 26 2 26 27
M  V30 27 1 5 28
M  V30 28 2 28 29
M  V30 29 1 29 2
M  V30 30 1 27 9
M  V30 31 1 24 12
M  V30 32 1 23 18
M  V30 33 1 1 30
M  V30 34 1 1 31
M  V30 35 1 1 32
M  V30 36 1 3 33
M  V30 37 1 8 34
M  V30 38 1 10 35
M  V30 39 1 13 36
M  V30 40 1 14 37
M  V30 41 1 17 38
M  V30 42 1 19 39
M  V30 43 1 20 40
M  V30 44 1 21 41
M  V30 45 1 22 42
M  V30 46 1 23 43
M  V30 47 1 24 44
M  V30 48 1 25 45
M  V30 49 1 26 46
M  V30 50 1 28 47
M  V30 END BOND
M  V30 END CTAB
M  END
>  <Dataset>  (474) 
ChEMBL_Kinases

>  <Ligand_Instance>  (474) 
nan

>  <PDB_ID>  (474) 
nan

>  <Standardized_SMILES>  (474) 
Cc1cnc(C(=O)Nc2cc(-c3ccnc(Nc4ccccc4)c3)ccn2)cn1

>  <Name>  (474) 
nan

>  <Pocket>  (474) 
nan

>  <ATP_Site>  (474) 
nan

>  <Peripheral>  (474) 
nan

>  <Num_H_Atoms_ProtBoundConf>  (474) 
nan

>  <Num_Resolved_Atoms>  (474) 
nan

>  <Num_Not_Resolved_Atoms>  (474) 
nan

$$$$
CHEMBL4648260
     RDKit          3D

  0  0  0  0  0  0  0  0  0  0999 V3000
M  V30 BEGIN CTAB
M  V30 COUNTS 64 67 0 0 0
M  V30 BEGIN ATOM
M  V30 1 C 1.810411 -6.007145 2.267491 0
M  V30 2 C 2.937640 -5.083852 2.752229 0
M  V30 3 O 2.656890 -3.828281 2.226868 0
M  V30 4 C 3.381308 -2.691982 2.400104 0
M  V30 5 O 4.229011 -3.272423 3.120650 0
M  V30 6 C 3.343570 -1.300212 1.998172 0
M  V30 7 C 4.385029 -0.566499 2.508553 0
M  V30 8 N 4.501154 0.734560 2.243795 0
M  V30 9 C 3.603913 1.378595 1.467151 0
M  V30 10 C 3.786386 2.722634 1.224991 0
M  V30 11 C 2.831665 3.326494 0.408168 0
M  V30 12 C 1.787013 2.611260 -0.110247 0
M  V30 13 C 0.813251 3.291946 -0.952826 0
M  V30 14 C 0.872687 4.625877 -1.278730 0
M  V30 15 C -0.045667 5.276579 -2.073455 0
M  V30 16 Cl 0.098418 6.970636 -2.439616 0
M  V30 17 C -1.106925 4.598530 -2.599822 0
M  V30 18 O -2.066102 5.187366 -3.405051 0
M  V30 19 C -1.224928 3.252370 -2.310137 0
M  V30 20 Cl -2.582734 2.354978 -2.976416 0
M  V30 21 C -0.275123 2.653573 -1.508386 0
M  V30 22 N 1.700294 1.310193 0.185709 0
M  V30 23 C 2.562245 0.635736 0.958777 0
M  V30 24 C 2.393425 -0.711661 1.200435 0
M  V30 25 N 1.361204 -1.495342 0.669945 0
M  V30 26 C 0.176496 -1.253278 -0.130729 0 CFG=1
M  V30 27 C -0.414874 -2.481615 -0.734541 0
M  V30 28 C -1.835173 -2.783460 -0.496365 0
M  V30 29 C -2.345676 -2.474776 0.879746 0 CFG=2
M  V30 30 C -3.577543 -1.647165 0.830352 0
M  V30 31 O -3.899410 -0.504194 1.293236 0
M  V30 32 N -4.774789 -2.034109 0.169366 0
M  V30 33 C -5.883325 -1.092318 0.224890 0
M  V30 34 C -4.961698 -3.296249 -0.554144 0
M  V30 35 C -1.332512 -1.701580 1.696810 0
M  V30 36 C -0.846706 -0.587643 0.754286 0
M  V30 37 H 2.062350 -6.343000 1.258915 0
M  V30 38 H 0.850933 -5.438985 2.208818 0
M  V30 39 H 1.620760 -6.810065 3.004192 0
M  V30 40 H 2.982537 -5.169891 3.837405 0
M  V30 41 H 3.925999 -5.475656 2.372428 0
M  V30 42 H 5.161518 -0.968429 3.138495 0
M  V30 43 H 4.636576 3.212150 1.673887 0
M  V30 44 H 3.031160 4.376041 0.258773 0
M  V30 45 H 1.673831 5.243592 -0.911481 0
M  V30 46 H -3.021256 5.311222 -3.123897 0
M  V30 47 H -0.449133 1.601786 -1.335097 0
M  V30 48 H 1.386874 -2.510157 0.859470 0
M  V30 49 H 0.491421 -0.528403 -0.919603 0
M  V30 50 H -0.206834 -2.457041 -1.824228 0
M  V30 51 H 0.237915 -3.332716 -0.374137 0
M  V30 52 H -2.484179 -2.259973 -1.227561 0
M  V30 53 H -1.998657 -3.870018 -0.666113 0
M  V30 54 H -2.593144 -3.382771 1.452632 0
M  V30 55 H -5.852879 -0.567518 1.211393 0
M  V30 56 H -6.876900 -1.591366 0.136567 0
M  V30 57 H -5.803603 -0.372591 -0.636412 0
M  V30 58 H -4.364619 -4.107038 -0.119574 0
M  V30 59 H -4.688813 -3.113550 -1.633703 0
M  V30 60 H -6.044525 -3.546727 -0.524644 0
M  V30 61 H -0.485386 -2.332874 2.031824 0
M  V30 62 H -1.802136 -1.270207 2.582967 0
M  V30 63 H -1.736111 -0.269677 0.167939 0
M  V30 64 H -0.502059 0.270941 1.323200 0
M  V30 END ATOM
M  V30 BEGIN BOND
M  V30 1 1 1 2
M  V30 2 1 2 3
M  V30 3 1 3 4
M  V30 4 2 4 5
M  V30 5 1 4 6
M  V30 6 2 6 7
M  V30 7 1 7 8
M  V30 8 2 8 9
M  V30 9 1 9 10
M  V30 10 2 10 11
M  V30 11 1 11 12
M  V30 12 1 12 13
M  V30 13 2 13 14
M  V30 14 1 14 15
M  V30 15 1 15 16
M  V30 16 2 15 17
M  V30 17 1 17 18
M  V30 18 1 17 19
M  V30 19 1 19 20
M  V30 20 2 19 21
M  V30 21 2 12 22
M  V30 22 1 22 23
M  V30 23 2 23 24
M  V30 24 1 24 25
M  V30 25 1 25 26
M  V30 26 1 26 27
M  V30 27 1 27 28
M  V30 28 1 28 29
M  V30 29 1 29 30
M  V30 30 2 30 31
M  V30 31 1 30 32
M  V30 32 1 32 33
M  V30 33 1 32 34
M  V30 34 1 29 35
M  V30 35 1 35 36
M  V30 36 1 24 6
M  V30 37 1 36 26
M  V30 38 1 23 9
M  V30 39 1 21 13
M  V30 40 1 1 37
M  V30 41 1 1 38
M  V30 42 1 1 39
M  V30 43 1 2 40
M  V30 44 1 2 41
M  V30 45 1 7 42
M  V30 46 1 10 43
M  V30 47 1 11 44
M  V30 48 1 14 45
M  V30 49 1 18 46
M  V30 50 1 21 47
M  V30 51 1 25 48
M  V30 52 1 26 49 CFG=3
M  V30 53 1 27 50
M  V30 54 1 27 51
M  V30 55 1 28 52
M  V30 56 1 28 53
M  V30 57 1 29 54 CFG=1
M  V30 58 1 33 55
M  V30 59 1 33 56
M  V30 60 1 33 57
M  V30 61 1 34 58
M  V30 62 1 34 59
M  V30 63 1 34 60
M  V30 64 1 35 61
M  V30 65 1 35 62
M  V30 66 1 36 63
M  V30 67 1 36 64
M  V30 END BOND
M  V30 END CTAB
M  END
>  <Dataset>  (475) 
ChEMBL_Kinases

>  <Ligand_Instance>  (475) 
nan

>  <PDB_ID>  (475) 
nan

>  <Standardized_SMILES>  (475) 
CCOC(=O)c1cnc2ccc(-c3cc(Cl)c(O)c(Cl)c3)nc2c1N[C@H]1CC[C@H](C(=O)N(C)C)CC1

>  <Name>  (475) 
nan

>  <Pocket>  (475) 
nan

>  <ATP_Site>  (475) 
nan

>  <Peripheral>  (475) 
nan

>  <Num_H_Atoms_ProtBoundConf>  (475) 
nan

>  <Num_Resolved_Atoms>  (475) 
nan

>  <Num_Not_Resolved_Atoms>  (475) 
nan

$$$$
CHEMBL4648454
     RDKit          3D

  0  0  0  0  0  0  0  0  0  0999 V3000
M  V30 BEGIN CTAB
M  V30 COUNTS 78 83 0 0 0
M  V30 BEGIN ATOM
M  V30 1 C 0.198213 -0.643945 5.782326 0
M  V30 2 O 0.797872 -1.177165 4.619059 0
M  V30 3 C 0.051529 -1.185593 3.443006 0
M  V30 4 C -1.236029 -0.695034 3.378583 0
M  V30 5 C -2.006142 -0.686416 2.233136 0
M  V30 6 N -3.335814 -0.134055 2.283557 0
M  V30 7 C -4.364385 -0.429695 1.323555 0
M  V30 8 C -5.390113 0.649216 1.191927 0
M  V30 9 N -4.900746 1.938575 1.622010 0
M  V30 10 C -3.847375 2.449870 0.790522 0
M  V30 11 C -3.459839 3.824777 1.276652 0
M  V30 12 C -3.197672 4.767233 0.114353 0
M  V30 13 N -2.406702 4.200208 -0.929349 0
M  V30 14 C -1.001588 4.227843 -0.574553 0
M  V30 15 C -2.852290 2.895248 -1.370366 0
M  V30 16 C -4.163247 2.520899 -0.660760 0
M  V30 17 C -4.542070 1.905044 3.022901 0
M  V30 18 C -3.645467 0.772724 3.349183 0
M  V30 19 C -1.433493 -1.210828 1.072006 0
M  V30 20 C -0.125466 -1.703686 1.158064 0
M  V30 21 C 0.641385 -1.713144 2.292610 0
M  V30 22 N 1.958682 -2.237085 2.309963 0
M  V30 23 C 2.744671 -2.772024 1.259660 0
M  V30 24 N 3.964894 -3.238524 1.581988 0
M  V30 25 C 4.832087 -3.764928 0.706067 0
M  V30 26 C 4.444496 -3.831172 -0.610891 0
M  V30 27 C 3.193608 -3.348871 -0.921611 0
M  V30 28 N 2.353891 -2.829339 -0.018654 0
M  V30 29 N 2.615063 -3.325901 -2.237599 0
M  V30 30 C 1.184677 -3.374671 -2.318574 0
M  V30 31 C 3.330697 -3.257951 -3.483245 0
M  V30 32 C 2.528079 -2.711100 -4.478974 0
M  V30 33 C 3.080458 -2.578994 -5.743771 0
M  V30 34 C 4.372514 -2.962417 -6.044710 0
M  V30 35 C 5.156384 -3.507175 -5.028973 0
M  V30 36 C 4.643701 -3.655386 -3.760377 0
M  V30 37 C 5.613059 -4.247925 -2.811536 0
M  V30 38 O 6.679085 -4.649785 -3.299520 0
M  V30 39 N 5.453160 -4.404323 -1.395783 0
M  V30 40 C 6.413281 -5.229613 -0.713947 0
M  V30 41 H 0.910439 -0.720810 6.621104 0
M  V30 42 H -0.087991 0.430033 5.617324 0
M  V30 43 H -0.747398 -1.188295 6.041920 0
M  V30 44 H -1.585835 -0.320425 4.325960 0
M  V30 45 H -4.833040 -1.396417 1.669082 0
M  V30 46 H -3.894758 -0.651283 0.355596 0
M  V30 47 H -6.244062 0.366583 1.840934 0
M  V30 48 H -5.760293 0.688454 0.173279 0
M  V30 49 H -2.977390 1.766678 0.901796 0
M  V30 50 H -2.581579 3.820250 1.949912 0
M  V30 51 H -4.287744 4.324949 1.856396 0
M  V30 52 H -4.135831 5.208018 -0.285576 0
M  V30 53 H -2.614550 5.627436 0.530564 0
M  V30 54 H -0.685005 5.289713 -0.656182 0
M  V30 55 H -0.842123 3.931981 0.477760 0
M  V30 56 H -0.356454 3.670597 -1.263779 0
M  V30 57 H -2.975890 2.925277 -2.471985 0
M  V30 58 H -2.053231 2.177364 -1.088796 0
M  V30 59 H -4.437044 1.539710 -1.107986 0
M  V30 60 H -4.882830 3.311216 -0.930575 0
M  V30 61 H -5.523851 1.858252 3.587007 0
M  V30 62 H -4.044015 2.871487 3.242983 0
M  V30 63 H -2.687193 1.222009 3.742488 0
M  V30 64 H -4.099584 0.222742 4.220190 0
M  V30 65 H -2.003370 -1.218642 0.160969 0
M  V30 66 H 0.199391 -2.076352 0.213562 0
M  V30 67 H 2.400883 -2.211989 3.277728 0
M  V30 68 H 5.801947 -4.125937 1.017408 0
M  V30 69 H 0.797955 -3.951843 -1.427047 0
M  V30 70 H 0.680722 -2.397135 -2.247087 0
M  V30 71 H 0.812998 -4.005856 -3.177718 0
M  V30 72 H 1.531219 -2.417672 -4.209328 0
M  V30 73 H 2.431768 -2.144376 -6.518795 0
M  V30 74 H 4.776341 -2.845544 -7.046955 0
M  V30 75 H 6.159875 -3.814054 -5.227340 0
M  V30 76 H 7.287491 -4.700590 -0.315413 0
M  V30 77 H 6.822865 -5.956516 -1.470495 0
M  V30 78 H 5.918972 -5.904371 0.035081 0
M  V30 END ATOM
M  V30 BEGIN BOND
M  V30 1 1 1 2
M  V30 2 1 2 3
M  V30 3 2 3 4
M  V30 4 1 4 5
M  V30 5 1 5 6
M  V30 6 1 6 7
M  V30 7 1 7 8
M  V30 8 1 8 9
M  V30 9 1 9 10
M  V30 10 1 10 11
M  V30 11 1 11 12
M  V30 12 1 12 13
M  V30 13 1 13 14
M  V30 14 1 13 15
M  V30 15 1 15 16
M  V30 16 1 9 17
M  V30 17 1 17 18
M  V30 18 2 5 19
M  V30 19 1 19 20
M  V30 20 2 20 21
M  V30 21 1 21 22
M  V30 22 1 22 23
M  V30 23 2 23 24
M  V30 24 1 24 25
M  V30 25 2 25 26
M  V30 26 1 26 27
M  V30 27 2 27 28
M  V30 28 1 27 29
M  V30 29 1 29 30
M  V30 30 1 29 31
M  V30 31 2 31 32
M  V30 32 1 32 33
M  V30 33 2 33 34
M  V30 34 1 34 35
M  V30 35 2 35 36
M  V30 36 1 36 37
M  V30 37 2 37 38
M  V30 38 1 37 39
M  V30 39 1 39 40
M  V30 40 1 21 3
M  V30 41 1 28 23
M  V30 42 1 36 31
M  V30 43 1 18 6
M  V30 44 1 39 26
M  V30 45 1 16 10
M  V30 46 1 1 41
M  V30 47 1 1 42
M  V30 48 1 1 43
M  V30 49 1 4 44
M  V30 50 1 7 45
M  V30 51 1 7 46
M  V30 52 1 8 47
M  V30 53 1 8 48
M  V30 54 1 10 49
M  V30 55 1 11 50
M  V30 56 1 11 51
M  V30 57 1 12 52
M  V30 58 1 12 53
M  V30 59 1 14 54
M  V30 60 1 14 55
M  V30 61 1 14 56
M  V30 62 1 15 57
M  V30 63 1 15 58
M  V30 64 1 16 59
M  V30 65 1 16 60
M  V30 66 1 17 61
M  V30 67 1 17 62
M  V30 68 1 18 63
M  V30 69 1 18 64
M  V30 70 1 19 65
M  V30 71 1 20 66
M  V30 72 1 22 67
M  V30 73 1 25 68
M  V30 74 1 30 69
M  V30 75 1 30 70
M  V30 76 1 30 71
M  V30 77 1 32 72
M  V30 78 1 33 73
M  V30 79 1 34 74
M  V30 80 1 35 75
M  V30 81 1 40 76
M  V30 82 1 40 77
M  V30 83 1 40 78
M  V30 END BOND
M  V30 END CTAB
M  END
>  <Dataset>  (476) 
ChEMBL_Kinases

>  <Ligand_Instance>  (476) 
nan

>  <PDB_ID>  (476) 
nan

>  <Standardized_SMILES>  (476) 
COc1cc(N2CCN(C3CCN(C)CC3)CC2)ccc1Nc1ncc2c(n1)N(C)c1ccccc1C(=O)N2C

>  <Name>  (476) 
nan

>  <Pocket>  (476) 
nan

>  <ATP_Site>  (476) 
nan

>  <Peripheral>  (476) 
nan

>  <Num_H_Atoms_ProtBoundConf>  (476) 
nan

>  <Num_Resolved_Atoms>  (476) 
nan

>  <Num_Not_Resolved_Atoms>  (476) 
nan

$$$$
CHEMBL568142
     RDKit          3D

  0  0  0  0  0  0  0  0  0  0999 V3000
M  V30 BEGIN CTAB
M  V30 COUNTS 55 58 0 0 0
M  V30 BEGIN ATOM
M  V30 1 C 1.826888 -0.099701 3.833809 0
M  V30 2 C 2.083258 -1.425157 3.163720 0
M  V30 3 N 3.131614 -1.434193 2.258791 0
M  V30 4 C 4.472475 -1.319548 2.632649 0
M  V30 5 C 4.783364 0.063698 3.137620 0
M  V30 6 C 2.850481 -1.448084 0.860891 0
M  V30 7 C 2.077545 -0.228997 0.510065 0
M  V30 8 C 2.746903 0.934425 0.188615 0
M  V30 9 C 1.721567 1.820386 -0.072079 0
M  V30 10 C 0.494427 1.211234 0.087089 0
M  V30 11 C -0.720330 1.970934 -0.142005 0
M  V30 12 C -0.707981 3.324752 -0.479401 0
M  V30 13 N -1.816134 4.033314 -0.698131 0
M  V30 14 C -3.042596 3.506519 -0.612343 0
M  V30 15 C -3.090686 2.169832 -0.280283 0
M  V30 16 C -4.448039 1.656241 -0.181014 0
M  V30 17 N -5.538358 1.233872 -0.082582 0
M  V30 18 C -1.958773 1.374439 -0.040288 0
M  V30 19 N -2.214725 0.049932 0.285692 0
M  V30 20 C -2.205078 -1.276702 -0.136236 0
M  V30 21 C -1.462235 -2.185759 0.624833 0
M  V30 22 C -1.315807 -3.528745 0.365526 0
M  V30 23 C -1.980313 -3.955087 -0.750809 0
M  V30 24 N -2.044752 -5.201869 -1.283238 0
M  V30 25 C -2.805629 -5.193444 -2.387156 0
M  V30 26 C -3.281033 -3.902316 -2.624665 0
M  V30 27 C -2.743291 -3.170950 -1.585019 0
M  V30 28 C -2.819447 -1.845034 -1.230124 0
M  V30 29 C -3.618622 -0.971308 -2.112621 0
M  V30 30 O 0.822251 0.019741 0.426874 0
M  V30 31 H 0.823847 -0.175378 4.347125 0
M  V30 32 H 1.688287 0.735102 3.109664 0
M  V30 33 H 2.551350 0.136882 4.620592 0
M  V30 34 H 2.217465 -2.191225 3.974604 0
M  V30 35 H 1.128116 -1.706583 2.656407 0
M  V30 36 H 5.162516 -1.566620 1.761701 0
M  V30 37 H 4.787613 -2.048568 3.437392 0
M  V30 38 H 5.728204 0.462269 2.679843 0
M  V30 39 H 4.866104 0.038667 4.244651 0
M  V30 40 H 4.020295 0.819527 2.880606 0
M  V30 41 H 3.756883 -1.531341 0.228590 0
M  V30 42 H 2.198389 -2.345355 0.652618 0
M  V30 43 H 3.830931 1.127702 0.145473 0
M  V30 44 H 1.969467 2.857026 -0.362123 0
M  V30 45 H 0.222688 3.859265 -0.577732 0
M  V30 46 H -3.905605 4.115359 -0.796622 0
M  V30 47 H -2.565102 0.106323 1.289628 0
M  V30 48 H -0.946544 -1.813527 1.509990 0
M  V30 49 H -0.723104 -4.157590 1.007129 0
M  V30 50 H -1.593886 -6.052181 -0.926015 0
M  V30 51 H -3.049295 -6.026983 -3.035630 0
M  V30 52 H -3.913705 -3.522663 -3.411819 0
M  V30 53 H -3.734083 -1.421696 -3.130832 0
M  V30 54 H -4.615770 -0.852425 -1.675405 0
M  V30 55 H -3.156927 0.030651 -2.200771 0
M  V30 END ATOM
M  V30 BEGIN BOND
M  V30 1 1 1 2
M  V30 2 1 2 3
M  V30 3 1 3 4
M  V30 4 1 4 5
M  V30 5 1 3 6
M  V30 6 1 6 7
M  V30 7 2 7 8
M  V30 8 1 8 9
M  V30 9 2 9 10
M  V30 10 1 10 11
M  V30 11 2 11 12
M  V30 12 1 12 13
M  V30 13 2 13 14
M  V30 14 1 14 15
M  V30 15 1 15 16
M  V30 16 3 16 17
M  V30 17 2 15 18
M  V30 18 1 18 19
M  V30 19 1 19 20
M  V30 20 2 20 21
M  V30 21 1 21 22
M  V30 22 2 22 23
M  V30 23 1 23 24
M  V30 24 1 24 25
M  V30 25 2 25 26
M  V30 26 1 26 27
M  V30 27 2 27 28
M  V30 28 1 28 29
M  V30 29 1 10 30
M  V30 30 1 30 7
M  V30 31 1 18 11
M  V30 32 1 28 20
M  V30 33 1 27 23
M  V30 34 1 1 31
M  V30 35 1 1 32
M  V30 36 1 1 33
M  V30 37 1 2 34
M  V30 38 1 2 35
M  V30 39 1 4 36
M  V30 40 1 4 37
M  V30 41 1 5 38
M  V30 42 1 5 39
M  V30 43 1 5 40
M  V30 44 1 6 41
M  V30 45 1 6 42
M  V30 46 1 8 43
M  V30 47 1 9 44
M  V30 48 1 12 45
M  V30 49 1 14 46
M  V30 50 1 19 47
M  V30 51 1 21 48
M  V30 52 1 22 49
M  V30 53 1 24 50
M  V30 54 1 25 51
M  V30 55 1 26 52
M  V30 56 1 29 53
M  V30 57 1 29 54
M  V30 58 1 29 55
M  V30 END BOND
M  V30 END CTAB
M  END
>  <Dataset>  (477) 
ChEMBL_Kinases

>  <Ligand_Instance>  (477) 
nan

>  <PDB_ID>  (477) 
nan

>  <Standardized_SMILES>  (477) 
CCN(CC)Cc1ccc(-c2cncc(C#N)c2Nc2ccc3[nH]ccc3c2C)o1

>  <Name>  (477) 
nan

>  <Pocket>  (477) 
nan

>  <ATP_Site>  (477) 
nan

>  <Peripheral>  (477) 
nan

>  <Num_H_Atoms_ProtBoundConf>  (477) 
nan

>  <Num_Resolved_Atoms>  (477) 
nan

>  <Num_Not_Resolved_Atoms>  (477) 
nan

$$$$
CHEMBL4648490
     RDKit          3D

  0  0  0  0  0  0  0  0  0  0999 V3000
M  V30 BEGIN CTAB
M  V30 COUNTS 57 61 0 0 0
M  V30 BEGIN ATOM
M  V30 1 C 3.432952 -4.889756 3.973875 0
M  V30 2 C 2.639976 -3.610634 3.944053 0
M  V30 3 C 1.922787 -3.284742 5.079193 0
M  V30 4 C 1.182643 -2.110317 5.077477 0
M  V30 5 C 1.257492 -1.378025 3.887540 0
M  V30 6 C 1.969681 -1.694071 2.749687 0
M  V30 7 C 1.927407 -0.808735 1.603212 0
M  V30 8 N 2.270344 0.472081 1.344076 0
M  V30 9 N 2.002829 0.769706 0.087580 0
M  V30 10 C 2.203209 2.028962 -0.632794 0
M  V30 11 C 0.998201 2.904957 -0.534159 0
M  V30 12 S -0.205277 2.405323 0.468413 0
M  V30 13 N 0.708879 4.151666 -1.197788 0
M  V30 14 C -0.462404 4.918859 -1.040923 0
M  V30 15 C -0.460322 6.016432 -0.181006 0
M  V30 16 C -1.583136 6.798472 0.018651 0
M  V30 17 C -2.732916 6.469343 -0.660588 0
M  V30 18 C -2.717511 5.380144 -1.507504 0
M  V30 19 C -1.630046 4.579673 -1.734988 0
M  V30 20 C 1.465461 -0.330891 -0.525421 0
M  V30 21 C 1.412580 -1.349276 0.437555 0
M  V30 22 C 0.861538 -2.633784 -0.052100 0
M  V30 23 C 1.776990 -3.686892 -0.117549 0
M  V30 24 C 1.220142 -4.872434 -0.591211 0
M  V30 25 N -0.087947 -4.978129 -0.950560 0
M  V30 26 C -0.940920 -3.937823 -0.872533 0
M  V30 27 C -2.306868 -4.213335 -1.294526 0
M  V30 28 C -2.654388 -5.458434 -1.738726 0
M  V30 29 C -3.964922 -5.714239 -2.129915 0
M  V30 30 C -4.951741 -4.758155 -2.092255 0
M  V30 31 C -4.626077 -3.469992 -1.640736 0
M  V30 32 C -3.307092 -3.243749 -1.255968 0
M  V30 33 C -0.454247 -2.749555 -0.415645 0
M  V30 34 N 2.667719 -2.862201 2.833717 0
M  V30 35 H 3.703449 -5.159203 5.022937 0
M  V30 36 H 4.347333 -4.697057 3.391881 0
M  V30 37 H 2.776741 -5.659550 3.515009 0
M  V30 38 H 1.912322 -3.904367 5.969169 0
M  V30 39 H 0.601412 -1.787681 5.914313 0
M  V30 40 H 0.659486 -0.454761 3.923241 0
M  V30 41 H 2.351846 1.802342 -1.704962 0
M  V30 42 H 3.131508 2.546867 -0.301822 0
M  V30 43 H 1.358088 4.614701 -1.876412 0
M  V30 44 H 0.494248 6.227146 0.329912 0
M  V30 45 H -1.419194 7.612388 0.715528 0
M  V30 46 H -3.588797 7.103150 -0.478376 0
M  V30 47 H -3.646292 5.125767 -2.044220 0
M  V30 48 H -1.636300 3.730364 -2.398984 0
M  V30 49 H 1.159204 -0.323961 -1.587529 0
M  V30 50 H 2.816518 -3.648583 0.154454 0
M  V30 51 H 1.891038 -5.722353 -0.662757 0
M  V30 52 H -1.935484 -6.244146 -1.794144 0
M  V30 53 H -4.215674 -6.725162 -2.484777 0
M  V30 54 H -5.974592 -4.950688 -2.393930 0
M  V30 55 H -5.367550 -2.686419 -1.592577 0
M  V30 56 H -3.062793 -2.241361 -0.907389 0
M  V30 57 H -1.129518 -1.931631 -0.355609 0
M  V30 END ATOM
M  V30 BEGIN BOND
M  V30 1 1 1 2
M  V30 2 2 2 3
M  V30 3 1 3 4
M  V30 4 2 4 5
M  V30 5 1 5 6
M  V30 6 1 6 7
M  V30 7 2 7 8
M  V30 8 1 8 9
M  V30 9 1 9 10
M  V30 10 1 10 11
M  V30 11 2 11 12
M  V30 12 1 11 13
M  V30 13 1 13 14
M  V30 14 2 14 15
M  V30 15 1 15 16
M  V30 16 2 16 17
M  V30 17 1 17 18
M  V30 18 2 18 19
M  V30 19 1 9 20
M  V30 20 2 20 21
M  V30 21 1 21 22
M  V30 22 2 22 23
M  V30 23 1 23 24
M  V30 24 2 24 25
M  V30 25 1 25 26
M  V30 26 1 26 27
M  V30 27 2 27 28
M  V30 28 1 28 29
M  V30 29 2 29 30
M  V30 30 1 30 31
M  V30 31 2 31 32
M  V30 32 2 26 33
M  V30 33 2 6 34
M  V30 34 1 34 2
M  V30 35 1 21 7
M  V30 36 1 33 22
M  V30 37 1 19 14
M  V30 38 1 32 27
M  V30 39 1 1 35
M  V30 40 1 1 36
M  V30 41 1 1 37
M  V30 42 1 3 38
M  V30 43 1 4 39
M  V30 44 1 5 40
M  V30 45 1 10 41
M  V30 46 1 10 42
M  V30 47 1 13 43
M  V30 48 1 15 44
M  V30 49 1 16 45
M  V30 50 1 17 46
M  V30 51 1 18 47
M  V30 52 1 19 48
M  V30 53 1 20 49
M  V30 54 1 23 50
M  V30 55 1 24 51
M  V30 56 1 28 52
M  V30 57 1 29 53
M  V30 58 1 30 54
M  V30 59 1 31 55
M  V30 60 1 32 56
M  V30 61 1 33 57
M  V30 END BOND
M  V30 END CTAB
M  END
>  <Dataset>  (478) 
ChEMBL_Kinases

>  <Ligand_Instance>  (478) 
nan

>  <PDB_ID>  (478) 
nan

>  <Standardized_SMILES>  (478) 
Cc1cccc(-c2nn(CC(=S)Nc3ccccc3)cc2-c2ccnc(-c3ccccc3)c2)n1

>  <Name>  (478) 
nan

>  <Pocket>  (478) 
nan

>  <ATP_Site>  (478) 
nan

>  <Peripheral>  (478) 
nan

>  <Num_H_Atoms_ProtBoundConf>  (478) 
nan

>  <Num_Resolved_Atoms>  (478) 
nan

>  <Num_Not_Resolved_Atoms>  (478) 
nan

$$$$
CHEMBL4647792
     RDKit          3D

  0  0  0  0  0  0  0  0  0  0999 V3000
M  V30 BEGIN CTAB
M  V30 COUNTS 80 85 0 0 0
M  V30 BEGIN ATOM
M  V30 1 C -1.848320 -2.934364 6.031310 0
M  V30 2 O -1.041923 -3.139603 4.885125 0
M  V30 3 C -1.136643 -2.284124 3.802591 0
M  V30 4 C -1.999465 -1.215945 3.788572 0
M  V30 5 C -2.137487 -0.330743 2.742131 0
M  V30 6 C -3.079100 0.797547 2.790189 0
M  V30 7 O -4.181969 0.332436 3.173143 0
M  V30 8 N -2.630325 2.111067 2.430100 0
M  V30 9 C -1.404869 2.739572 1.979317 0
M  V30 10 C -1.558693 3.188796 0.519995 0
M  V30 11 N -2.809608 3.752527 0.343569 0
M  V30 12 C -3.564887 3.631132 -0.828561 0
M  V30 13 C -2.874380 4.092580 -2.077727 0
M  V30 14 C -2.390433 3.070261 -3.014519 0
M  V30 15 N -2.868667 1.763874 -2.910756 0
M  V30 16 C -1.968798 0.763527 -3.449607 0
M  V30 17 C -3.511409 1.340274 -1.739547 0
M  V30 18 C -4.243980 2.306720 -0.913160 0
M  V30 19 C -3.383684 4.284780 1.519413 0
M  V30 20 C -3.613017 3.166580 2.527614 0
M  V30 21 C -1.338533 -0.536556 1.610994 0
M  V30 22 C -0.497654 -1.609687 1.671790 0
M  V30 23 C -0.322435 -2.518177 2.685418 0
M  V30 24 N 0.563541 -3.623421 2.684926 0
M  V30 25 C 1.526431 -3.995135 1.679394 0
M  V30 26 N 2.201379 -5.136165 1.868000 0
M  V30 27 C 3.141953 -5.626474 1.050420 0
M  V30 28 C 3.402100 -4.873474 -0.048548 0
M  V30 29 C 2.746512 -3.693446 -0.301892 0
M  V30 30 N 1.814390 -3.282895 0.582074 0
M  V30 31 N 2.854881 -2.744593 -1.357078 0
M  V30 32 C 1.723956 -1.939316 -1.688525 0
M  V30 33 C 4.053407 -2.526968 -2.125938 0
M  V30 34 C 4.077184 -1.234607 -2.655961 0
M  V30 35 C 5.147353 -0.819821 -3.417842 0
M  V30 36 C 6.154489 -1.746421 -3.608321 0
M  V30 37 C 6.183914 -3.022212 -3.114651 0
M  V30 38 C 5.094227 -3.439723 -2.340940 0
M  V30 39 C 5.208836 -4.806036 -1.862056 0
M  V30 40 O 6.124267 -5.488449 -2.391032 0
M  V30 41 N 4.417708 -5.456479 -0.877770 0
M  V30 42 C 4.634981 -6.867993 -0.656944 0
M  V30 43 H -1.573970 -3.637714 6.847396 0
M  V30 44 H -1.790647 -1.857080 6.360340 0
M  V30 45 H -2.907178 -3.120910 5.774925 0
M  V30 46 H -2.615635 -1.067215 4.675394 0
M  V30 47 H -0.604141 1.957955 2.049879 0
M  V30 48 H -1.102105 3.572359 2.641311 0
M  V30 49 H -1.294935 2.329213 -0.131419 0
M  V30 50 H -0.693177 3.919108 0.392462 0
M  V30 51 H -4.444381 4.366991 -0.677464 0
M  V30 52 H -2.041454 4.767877 -1.713253 0
M  V30 53 H -3.535180 4.790171 -2.629446 0
M  V30 54 H -2.507741 3.378004 -4.097710 0
M  V30 55 H -1.268043 3.007870 -2.918962 0
M  V30 56 H -0.956110 1.174914 -3.617894 0
M  V30 57 H -2.320975 0.386723 -4.436011 0
M  V30 58 H -1.871637 -0.126756 -2.793082 0
M  V30 59 H -2.785059 0.769253 -1.117199 0
M  V30 60 H -4.259397 0.543306 -2.046732 0
M  V30 61 H -4.269967 1.886673 0.138234 0
M  V30 62 H -5.331483 2.386874 -1.165700 0
M  V30 63 H -4.332331 4.844685 1.350243 0
M  V30 64 H -2.695987 5.023722 2.036787 0
M  V30 65 H -3.579696 3.602955 3.571602 0
M  V30 66 H -4.628989 2.766293 2.333095 0
M  V30 67 H -1.393607 0.114292 0.751988 0
M  V30 68 H 0.106655 -1.730158 0.760220 0
M  V30 69 H 0.504754 -4.248298 3.530019 0
M  V30 70 H 3.665268 -6.534367 1.217188 0
M  V30 71 H 1.627779 -1.013359 -1.095770 0
M  V30 72 H 1.604382 -1.780141 -2.796151 0
M  V30 73 H 0.813412 -2.546139 -1.426442 0
M  V30 74 H 3.227102 -0.602787 -2.436730 0
M  V30 75 H 5.184101 0.167373 -3.833648 0
M  V30 76 H 7.018641 -1.434202 -4.212783 0
M  V30 77 H 6.963096 -3.729121 -3.264769 0
M  V30 78 H 3.702252 -7.464099 -0.596140 0
M  V30 79 H 5.360395 -7.085471 0.151706 0
M  V30 80 H 5.132176 -7.256186 -1.596384 0
M  V30 END ATOM
M  V30 BEGIN BOND
M  V30 1 1 1 2
M  V30 2 1 2 3
M  V30 3 2 3 4
M  V30 4 1 4 5
M  V30 5 1 5 6
M  V30 6 2 6 7
M  V30 7 1 6 8
M  V30 8 1 8 9
M  V30 9 1 9 10
M  V30 10 1 10 11
M  V30 11 1 11 12
M  V30 12 1 12 13
M  V30 13 1 13 14
M  V30 14 1 14 15
M  V30 15 1 15 16
M  V30 16 1 15 17
M  V30 17 1 17 18
M  V30 18 1 11 19
M  V30 19 1 19 20
M  V30 20 2 5 21
M  V30 21 1 21 22
M  V30 22 2 22 23
M  V30 23 1 23 24
M  V30 24 1 24 25
M  V30 25 2 25 26
M  V30 26 1 26 27
M  V30 27 2 27 28
M  V30 28 1 28 29
M  V30 29 2 29 30
M  V30 30 1 29 31
M  V30 31 1 31 32
M  V30 32 1 31 33
M  V30 33 2 33 34
M  V30 34 1 34 35
M  V30 35 2 35 36
M  V30 36 1 36 37
M  V30 37 2 37 38
M  V30 38 1 38 39
M  V30 39 2 39 40
M  V30 40 1 39 41
M  V30 41 1 41 42
M  V30 42 1 23 3
M  V30 43 1 30 25
M  V30 44 1 38 33
M  V30 45 1 20 8
M  V30 46 1 41 28
M  V30 47 1 18 12
M  V30 48 1 1 43
M  V30 49 1 1 44
M  V30 50 1 1 45
M  V30 51 1 4 46
M  V30 52 1 9 47
M  V30 53 1 9 48
M  V30 54 1 10 49
M  V30 55 1 10 50
M  V30 56 1 12 51
M  V30 57 1 13 52
M  V30 58 1 13 53
M  V30 59 1 14 54
M  V30 60 1 14 55
M  V30 61 1 16 56
M  V30 62 1 16 57
M  V30 63 1 16 58
M  V30 64 1 17 59
M  V30 65 1 17 60
M  V30 66 1 18 61
M  V30 67 1 18 62
M  V30 68 1 19 63
M  V30 69 1 19 64
M  V30 70 1 20 65
M  V30 71 1 20 66
M  V30 72 1 21 67
M  V30 73 1 22 68
M  V30 74 1 24 69
M  V30 75 1 27 70
M  V30 76 1 32 71
M  V30 77 1 32 72
M  V30 78 1 32 73
M  V30 79 1 34 74
M  V30 80 1 35 75
M  V30 81 1 36 76
M  V30 82 1 37 77
M  V30 83 1 42 78
M  V30 84 1 42 79
M  V30 85 1 42 80
M  V30 END BOND
M  V30 END CTAB
M  END
>  <Dataset>  (479) 
ChEMBL_Kinases

>  <Ligand_Instance>  (479) 
nan

>  <PDB_ID>  (479) 
nan

>  <Standardized_SMILES>  (479) 
COc1cc(C(=O)N2CCN(C3CCN(C)CC3)CC2)ccc1Nc1ncc2c(n1)N(C)c1ccccc1C(=O)N2C

>  <Name>  (479) 
nan

>  <Pocket>  (479) 
nan

>  <ATP_Site>  (479) 
nan

>  <Peripheral>  (479) 
nan

>  <Num_H_Atoms_ProtBoundConf>  (479) 
nan

>  <Num_Resolved_Atoms>  (479) 
nan

>  <Num_Not_Resolved_Atoms>  (479) 
nan

$$$$
CHEMBL2063446
     RDKit          3D

  0  0  0  0  0  0  0  0  0  0999 V3000
M  V30 BEGIN CTAB
M  V30 COUNTS 49 52 0 0 0
M  V30 BEGIN ATOM
M  V30 1 N 1.576239 -2.020858 1.273501 0
M  V30 2 C 2.894592 -2.435116 1.633543 0
M  V30 3 N 3.309281 -3.558442 2.264135 0
M  V30 4 O 4.599538 -3.498608 2.386694 0
M  V30 5 C 5.097068 -2.403729 1.879601 0
M  V30 6 C 6.354671 -1.832860 1.737439 0
M  V30 7 C 6.517209 -0.601624 1.120189 0
M  V30 8 C 5.463373 0.118043 0.619157 0
M  V30 9 C 4.218878 -0.443587 0.759041 0
M  V30 10 C 3.031648 0.286014 0.237724 0
M  V30 11 O 2.481568 0.444289 -0.901769 0
M  V30 12 N 2.328165 0.986188 1.260094 0
M  V30 13 C 1.139970 1.794935 1.133261 0
M  V30 14 C 1.345469 3.132417 0.758015 0
M  V30 15 C 0.218164 3.897728 0.653180 0
M  V30 16 C -1.022959 3.387247 0.898694 0
M  V30 17 C -1.230669 2.040522 1.276501 0
M  V30 18 C -2.662410 1.778254 1.456168 0
M  V30 19 N -3.304729 1.140449 0.323680 0
M  V30 20 C -3.313114 -0.259391 0.169066 0
M  V30 21 O -2.781777 -1.036066 1.038090 0
M  V30 22 N -3.882982 -0.967227 -0.907144 0
M  V30 23 C -3.820960 -2.407082 -0.759745 0
M  V30 24 C -5.058170 -2.655396 -0.129200 0
M  V30 25 C -5.468478 -3.947534 0.231558 0
M  V30 26 C -4.597591 -5.006589 -0.058650 0
M  V30 27 C -3.399104 -4.728024 -0.675221 0
M  V30 28 F -2.476915 -5.666069 -1.013554 0
M  V30 29 C -2.991326 -3.464678 -1.029876 0
M  V30 30 C -0.103767 1.285070 1.379082 0
M  V30 31 C 4.028026 -1.673612 1.373452 0
M  V30 32 H 1.087153 -1.840297 0.361473 0
M  V30 33 H 0.947476 -1.849197 2.067814 0
M  V30 34 H 7.174424 -2.430426 2.143839 0
M  V30 35 H 7.505534 -0.187795 1.028885 0
M  V30 36 H 5.615055 1.058709 0.159363 0
M  V30 37 H 2.506353 1.062154 2.282660 0
M  V30 38 H 2.333968 3.514186 0.573200 0
M  V30 39 H 0.388688 4.939985 0.368353 0
M  V30 40 H -1.815513 4.138269 0.775027 0
M  V30 41 H -3.260862 2.683962 1.724578 0
M  V30 42 H -2.800713 1.063019 2.317513 0
M  V30 43 H -3.802182 1.626063 -0.468409 0
M  V30 44 H -4.286294 -0.445590 -1.704399 0
M  V30 45 H -5.895568 -2.012794 0.197151 0
M  V30 46 H -6.375539 -4.282466 0.714342 0
M  V30 47 H -4.771918 -6.060315 0.152669 0
M  V30 48 H -2.125909 -3.041076 -1.502023 0
M  V30 49 H -0.320163 0.271495 1.666858 0
M  V30 END ATOM
M  V30 BEGIN BOND
M  V30 1 1 1 2
M  V30 2 2 2 3
M  V30 3 1 3 4
M  V30 4 1 4 5
M  V30 5 2 5 6
M  V30 6 1 6 7
M  V30 7 2 7 8
M  V30 8 1 8 9
M  V30 9 1 9 10
M  V30 10 2 10 11
M  V30 11 1 10 12
M  V30 12 1 12 13
M  V30 13 2 13 14
M  V30 14 1 14 15
M  V30 15 2 15 16
M  V30 16 1 16 17
M  V30 17 1 17 18
M  V30 18 1 18 19
M  V30 19 1 19 20
M  V30 20 2 20 21
M  V30 21 1 20 22
M  V30 22 1 22 23
M  V30 23 2 23 24
M  V30 24 1 24 25
M  V30 25 2 25 26
M  V30 26 1 26 27
M  V30 27 1 27 28
M  V30 28 2 27 29
M  V30 29 2 17 30
M  V30 30 2 9 31
M  V30 31 1 31 2
M  V30 32 1 31 5
M  V30 33 1 30 13
M  V30 34 1 29 23
M  V30 35 1 1 32
M  V30 36 1 1 33
M  V30 37 1 6 34
M  V30 38 1 7 35
M  V30 39 1 8 36
M  V30 40 1 12 37
M  V30 41 1 14 38
M  V30 42 1 15 39
M  V30 43 1 16 40
M  V30 44 1 18 41
M  V30 45 1 18 42
M  V30 46 1 19 43
M  V30 47 1 22 44
M  V30 48 1 24 45
M  V30 49 1 25 46
M  V30 50 1 26 47
M  V30 51 1 29 48
M  V30 52 1 30 49
M  V30 END BOND
M  V30 END CTAB
M  END
>  <Dataset>  (480) 
ChEMBL_Kinases

>  <Ligand_Instance>  (480) 
nan

>  <PDB_ID>  (480) 
nan

>  <Standardized_SMILES>  (480) 
Nc1noc2cccc(C(=O)Nc3cccc(CNC(=O)Nc4cccc(F)c4)c3)c12

>  <Name>  (480) 
nan

>  <Pocket>  (480) 
nan

>  <ATP_Site>  (480) 
nan

>  <Peripheral>  (480) 
nan

>  <Num_H_Atoms_ProtBoundConf>  (480) 
nan

>  <Num_Resolved_Atoms>  (480) 
nan

>  <Num_Not_Resolved_Atoms>  (480) 
nan

$$$$
CHEMBL4644939
     RDKit          3D

  0  0  0  0  0  0  0  0  0  0999 V3000
M  V30 BEGIN CTAB
M  V30 COUNTS 45 48 0 0 0
M  V30 BEGIN ATOM
M  V30 1 O 0.916071 -7.642059 2.890545 0
M  V30 2 C 0.492777 -6.419659 2.385526 0
M  V30 3 C -0.843693 -6.118765 2.165981 0
M  V30 4 C -1.208652 -4.868661 1.654684 0
M  V30 5 C -0.225717 -3.942850 1.372910 0
M  V30 6 C -0.605494 -2.641916 0.840557 0
M  V30 7 C 0.184899 -1.574131 1.163471 0
M  V30 8 C -0.111756 -0.289708 0.691305 0
M  V30 9 N 0.680166 0.832405 1.008932 0
M  V30 10 C 1.079252 2.194895 0.978496 0
M  V30 11 C 1.617714 2.660904 -0.369065 0
M  V30 12 C 1.618086 4.172616 -0.388088 0
M  V30 13 C 2.499891 4.624100 0.737541 0
M  V30 14 N 3.108471 3.495917 1.424311 0
M  V30 15 C 2.148447 2.585199 1.993519 0
M  V30 16 C -1.225824 -0.137472 -0.108065 0
M  V30 17 C -1.660949 1.057293 -0.646470 0
M  V30 18 C -2.763232 1.214442 -1.431683 0
M  V30 19 N -3.515379 0.133503 -1.727395 0
M  V30 20 C -3.189517 -1.093292 -1.256420 0
M  V30 21 C -2.067426 -1.187298 -0.470248 0
M  V30 22 C -1.693975 -2.407919 0.041015 0
M  V30 23 C 1.099413 -4.262691 1.598947 0
M  V30 24 C 1.489054 -5.488563 2.102751 0
M  V30 25 H 0.223206 -8.399675 2.935672 0
M  V30 26 H -1.535402 -6.918649 2.421639 0
M  V30 27 H -2.264220 -4.700892 1.508433 0
M  V30 28 H 1.062004 -1.745952 1.804215 0
M  V30 29 H 1.447035 0.510779 1.636998 0
M  V30 30 H 0.199082 2.889572 1.176620 0
M  V30 31 H 2.681851 2.275999 -0.394773 0
M  V30 32 H 1.073861 2.298119 -1.232664 0
M  V30 33 H 1.953266 4.550848 -1.372283 0
M  V30 34 H 0.554348 4.493974 -0.244329 0
M  V30 35 H 1.928412 5.292316 1.406519 0
M  V30 36 H 3.371434 5.171639 0.272608 0
M  V30 37 H 3.690131 3.841749 2.218764 0
M  V30 38 H 1.697287 2.954297 2.951113 0
M  V30 39 H 2.709166 1.655605 2.234707 0
M  V30 40 H -1.113102 1.944801 -0.441214 0
M  V30 41 H -3.065004 2.177205 -1.832366 0
M  V30 42 H -3.775489 -1.974051 -1.478805 0
M  V30 43 H -2.274512 -3.273668 -0.179554 0
M  V30 44 H 1.900325 -3.563380 1.390604 0
M  V30 45 H 2.542530 -5.749933 2.285184 0
M  V30 END ATOM
M  V30 BEGIN BOND
M  V30 1 1 1 2
M  V30 2 2 2 3
M  V30 3 1 3 4
M  V30 4 2 4 5
M  V30 5 1 5 6
M  V30 6 2 6 7
M  V30 7 1 7 8
M  V30 8 1 8 9
M  V30 9 1 9 10
M  V30 10 1 10 11
M  V30 11 1 11 12
M  V30 12 1 12 13
M  V30 13 1 13 14
M  V30 14 1 14 15
M  V30 15 2 8 16
M  V30 16 1 16 17
M  V30 17 2 17 18
M  V30 18 1 18 19
M  V30 19 2 19 20
M  V30 20 1 20 21
M  V30 21 2 21 22
M  V30 22 1 5 23
M  V30 23 2 23 24
M  V30 24 1 24 2
M  V30 25 1 22 6
M  V30 26 1 15 10
M  V30 27 1 21 16
M  V30 28 1 1 25
M  V30 29 1 3 26
M  V30 30 1 4 27
M  V30 31 1 7 28
M  V30 32 1 9 29
M  V30 33 1 10 30
M  V30 34 1 11 31
M  V30 35 1 11 32
M  V30 36 1 12 33
M  V30 37 1 12 34
M  V30 38 1 13 35
M  V30 39 1 13 36
M  V30 40 1 14 37
M  V30 41 1 15 38
M  V30 42 1 15 39
M  V30 43 1 17 40
M  V30 44 1 18 41
M  V30 45 1 20 42
M  V30 46 1 22 43
M  V30 47 1 23 44
M  V30 48 1 24 45
M  V30 END BOND
M  V30 END CTAB
M  END
>  <Dataset>  (481) 
ChEMBL_Kinases

>  <Ligand_Instance>  (481) 
nan

>  <PDB_ID>  (481) 
nan

>  <Standardized_SMILES>  (481) 
Oc1ccc(-c2cc(NC3CCCNC3)c3ccncc3c2)cc1

>  <Name>  (481) 
nan

>  <Pocket>  (481) 
nan

>  <ATP_Site>  (481) 
nan

>  <Peripheral>  (481) 
nan

>  <Num_H_Atoms_ProtBoundConf>  (481) 
nan

>  <Num_Resolved_Atoms>  (481) 
nan

>  <Num_Not_Resolved_Atoms>  (481) 
nan

$$$$
CHEMBL2063444
     RDKit          3D

  0  0  0  0  0  0  0  0  0  0999 V3000
M  V30 BEGIN CTAB
M  V30 COUNTS 49 52 0 0 0
M  V30 BEGIN ATOM
M  V30 1 N 1.341604 -2.236410 1.698079 0
M  V30 2 C 2.699312 -2.655703 1.750359 0
M  V30 3 N 3.223912 -3.825337 2.171268 0
M  V30 4 O 4.515788 -3.802667 2.054483 0
M  V30 5 C 4.870249 -2.640660 1.562754 0
M  V30 6 C 6.121136 -2.167146 1.270294 0
M  V30 7 C 6.275391 -0.901425 0.754001 0
M  V30 8 C 5.179297 -0.082387 0.519890 0
M  V30 9 C 3.921832 -0.564373 0.816283 0
M  V30 10 C 2.650739 0.124656 0.647835 0
M  V30 11 O 1.967091 -0.215945 -0.346706 0
M  V30 12 N 2.142672 1.126505 1.503143 0
M  V30 13 C 0.936481 1.862776 1.448983 0
M  V30 14 C 0.692900 2.786045 2.424124 0
M  V30 15 C -0.447083 3.541563 2.450813 0
M  V30 16 C -1.404086 3.393125 1.476376 0
M  V30 17 C -1.198895 2.474828 0.475554 0
M  V30 18 C -2.266418 2.378832 -0.520228 0
M  V30 19 N -3.286520 1.386865 -0.148814 0
M  V30 20 C -3.133210 -0.018397 -0.267120 0
M  V30 21 O -2.099932 -0.577979 -0.709603 0
M  V30 22 N -4.216676 -0.847359 0.140640 0
M  V30 23 C -3.923544 -2.250561 -0.035740 0
M  V30 24 C -3.328954 -2.997743 0.963030 0
M  V30 25 C -3.100750 -4.329331 0.676055 0
M  V30 26 C -3.424131 -4.943692 -0.519632 0
M  V30 27 Cl -3.108956 -6.629807 -0.821747 0
M  V30 28 C -4.020429 -4.120384 -1.472258 0
M  V30 29 C -4.281038 -2.774830 -1.259349 0
M  V30 30 C -0.030337 1.738815 0.497186 0
M  V30 31 C 3.759283 -1.841743 1.338036 0
M  V30 32 H 0.749662 -1.633341 2.308378 0
M  V30 33 H 0.554612 -2.404049 1.047692 0
M  V30 34 H 7.004213 -2.772542 1.437394 0
M  V30 35 H 7.215558 -0.450225 0.493094 0
M  V30 36 H 5.152543 0.909277 0.127946 0
M  V30 37 H 2.820615 1.303972 2.284602 0
M  V30 38 H 1.420283 2.938665 3.214828 0
M  V30 39 H -0.580688 4.251289 3.244297 0
M  V30 40 H -2.284801 4.005370 1.533430 0
M  V30 41 H -1.796861 1.962434 -1.459854 0
M  V30 42 H -2.722468 3.322302 -0.820774 0
M  V30 43 H -4.173541 1.782109 0.224978 0
M  V30 44 H -5.122924 -0.501186 0.524395 0
M  V30 45 H -3.065359 -2.547470 1.909322 0
M  V30 46 H -2.641456 -4.924468 1.430842 0
M  V30 47 H -4.286960 -4.586421 -2.431267 0
M  V30 48 H -4.750982 -2.195190 -2.055726 0
M  V30 49 H 0.074724 1.041896 -0.305969 0
M  V30 END ATOM
M  V30 BEGIN BOND
M  V30 1 1 1 2
M  V30 2 2 2 3
M  V30 3 1 3 4
M  V30 4 1 4 5
M  V30 5 2 5 6
M  V30 6 1 6 7
M  V30 7 2 7 8
M  V30 8 1 8 9
M  V30 9 1 9 10
M  V30 10 2 10 11
M  V30 11 1 10 12
M  V30 12 1 12 13
M  V30 13 2 13 14
M  V30 14 1 14 15
M  V30 15 2 15 16
M  V30 16 1 16 17
M  V30 17 1 17 18
M  V30 18 1 18 19
M  V30 19 1 19 20
M  V30 20 2 20 21
M  V30 21 1 20 22
M  V30 22 1 22 23
M  V30 23 2 23 24
M  V30 24 1 24 25
M  V30 25 2 25 26
M  V30 26 1 26 27
M  V30 27 1 26 28
M  V30 28 2 28 29
M  V30 29 2 17 30
M  V30 30 2 9 31
M  V30 31 1 31 2
M  V30 32 1 31 5
M  V30 33 1 30 13
M  V30 34 1 29 23
M  V30 35 1 1 32
M  V30 36 1 1 33
M  V30 37 1 6 34
M  V30 38 1 7 35
M  V30 39 1 8 36
M  V30 40 1 12 37
M  V30 41 1 14 38
M  V30 42 1 15 39
M  V30 43 1 16 40
M  V30 44 1 18 41
M  V30 45 1 18 42
M  V30 46 1 19 43
M  V30 47 1 22 44
M  V30 48 1 24 45
M  V30 49 1 25 46
M  V30 50 1 28 47
M  V30 51 1 29 48
M  V30 52 1 30 49
M  V30 END BOND
M  V30 END CTAB
M  END
>  <Dataset>  (482) 
ChEMBL_Kinases

>  <Ligand_Instance>  (482) 
nan

>  <PDB_ID>  (482) 
nan

>  <Standardized_SMILES>  (482) 
Nc1noc2cccc(C(=O)Nc3cccc(CNC(=O)Nc4ccc(Cl)cc4)c3)c12

>  <Name>  (482) 
nan

>  <Pocket>  (482) 
nan

>  <ATP_Site>  (482) 
nan

>  <Peripheral>  (482) 
nan

>  <Num_H_Atoms_ProtBoundConf>  (482) 
nan

>  <Num_Resolved_Atoms>  (482) 
nan

>  <Num_Not_Resolved_Atoms>  (482) 
nan

$$$$
CHEMBL2063443
     RDKit          3D

  0  0  0  0  0  0  0  0  0  0999 V3000
M  V30 BEGIN CTAB
M  V30 COUNTS 52 55 0 0 0
M  V30 BEGIN ATOM
M  V30 1 C -1.322614 -2.275572 4.859247 0
M  V30 2 C -0.066325 -2.082982 4.077180 0
M  V30 3 C 0.845507 -1.139312 4.506495 0
M  V30 4 C 2.019785 -0.927141 3.816856 0
M  V30 5 C 2.269600 -1.676460 2.685752 0
M  V30 6 N 3.394733 -1.658978 1.793065 0
M  V30 7 C 3.164803 -0.727514 0.752001 0
M  V30 8 O 2.027756 -0.161968 0.896382 0
M  V30 9 N 4.102808 -0.484917 -0.296077 0
M  V30 10 C 3.903172 0.460849 -1.378913 0
M  V30 11 C 2.620953 1.160252 -1.162785 0
M  V30 12 C 2.640940 2.330592 -0.428067 0
M  V30 13 C 1.533739 3.106071 -0.134648 0
M  V30 14 C 0.306171 2.675159 -0.615719 0
M  V30 15 C 0.273956 1.504545 -1.352698 0
M  V30 16 N -1.018467 1.118428 -1.817578 0
M  V30 17 C -1.555803 0.294584 -0.764030 0
M  V30 18 O -1.014314 -0.023218 0.333232 0
M  V30 19 C -2.816907 -0.436237 -0.552023 0
M  V30 20 C -3.902566 0.235752 -0.003575 0
M  V30 21 C -5.061136 -0.504070 0.172838 0
M  V30 22 C -5.134615 -1.836898 -0.176380 0
M  V30 23 C -4.055392 -2.519765 -0.726044 0
M  V30 24 O -3.803112 -3.736728 -1.150919 0
M  V30 25 N -2.564752 -3.796662 -1.578220 0
M  V30 26 C -1.962137 -2.606424 -1.444464 0
M  V30 27 N -0.632524 -2.286427 -1.796763 0
M  V30 28 C -2.898655 -1.758208 -0.896004 0
M  V30 29 C 1.391157 0.752057 -1.630233 0
M  V30 30 C 1.361239 -2.619819 2.253862 0
M  V30 31 C 0.159701 -2.857950 2.933338 0
M  V30 32 H -1.834467 -3.219274 4.607161 0
M  V30 33 H -1.050609 -2.284512 5.928971 0
M  V30 34 H -2.009442 -1.390451 4.725973 0
M  V30 35 H 0.717315 -0.518392 5.381819 0
M  V30 36 H 2.822506 -0.234100 4.024646 0
M  V30 37 H 4.298285 -2.211217 1.817681 0
M  V30 38 H 5.001205 -1.027382 -0.287030 0
M  V30 39 H 4.765911 1.153540 -1.413390 0
M  V30 40 H 3.807248 -0.132470 -2.317542 0
M  V30 41 H 3.587569 2.694279 -0.039091 0
M  V30 42 H 1.637706 4.013428 0.448722 0
M  V30 43 H -0.557057 3.257676 -0.400689 0
M  V30 44 H -1.745432 1.149010 -2.543636 0
M  V30 45 H -3.860581 1.258958 0.270454 0
M  V30 46 H -5.932158 -0.038077 0.592202 0
M  V30 47 H -6.036457 -2.452859 -0.049998 0
M  V30 48 H -0.018797 -2.341230 -0.934389 0
M  V30 49 H -0.622227 -2.079970 -2.830809 0
M  V30 50 H 1.350110 -0.157934 -2.206664 0
M  V30 51 H 1.427813 -3.280515 1.383237 0
M  V30 52 H -0.590799 -3.576095 2.650950 0
M  V30 END ATOM
M  V30 BEGIN BOND
M  V30 1 1 1 2
M  V30 2 2 2 3
M  V30 3 1 3 4
M  V30 4 2 4 5
M  V30 5 1 5 6
M  V30 6 1 6 7
M  V30 7 2 7 8
M  V30 8 1 7 9
M  V30 9 1 9 10
M  V30 10 1 10 11
M  V30 11 2 11 12
M  V30 12 1 12 13
M  V30 13 2 13 14
M  V30 14 1 14 15
M  V30 15 1 15 16
M  V30 16 1 16 17
M  V30 17 2 17 18
M  V30 18 1 17 19
M  V30 19 2 19 20
M  V30 20 1 20 21
M  V30 21 2 21 22
M  V30 22 1 22 23
M  V30 23 1 23 24
M  V30 24 1 24 25
M  V30 25 2 25 26
M  V30 26 1 26 27
M  V30 27 1 26 28
M  V30 28 2 15 29
M  V30 29 1 5 30
M  V30 30 2 30 31
M  V30 31 1 31 2
M  V30 32 1 29 11
M  V30 33 1 28 19
M  V30 34 2 28 23
M  V30 35 1 1 32
M  V30 36 1 1 33
M  V30 37 1 1 34
M  V30 38 1 3 35
M  V30 39 1 4 36
M  V30 40 1 6 37
M  V30 41 1 9 38
M  V30 42 1 10 39
M  V30 43 1 10 40
M  V30 44 1 12 41
M  V30 45 1 13 42
M  V30 46 1 14 43
M  V30 47 1 16 44
M  V30 48 1 20 45
M  V30 49 1 21 46
M  V30 50 1 22 47
M  V30 51 1 27 48
M  V30 52 1 27 49
M  V30 53 1 29 50
M  V30 54 1 30 51
M  V30 55 1 31 52
M  V30 END BOND
M  V30 END CTAB
M  END
>  <Dataset>  (483) 
ChEMBL_Kinases

>  <Ligand_Instance>  (483) 
nan

>  <PDB_ID>  (483) 
nan

>  <Standardized_SMILES>  (483) 
Cc1ccc(NC(=O)NCc2cccc(NC(=O)c3cccc4onc(N)c34)c2)cc1

>  <Name>  (483) 
nan

>  <Pocket>  (483) 
nan

>  <ATP_Site>  (483) 
nan

>  <Peripheral>  (483) 
nan

>  <Num_H_Atoms_ProtBoundConf>  (483) 
nan

>  <Num_Resolved_Atoms>  (483) 
nan

>  <Num_Not_Resolved_Atoms>  (483) 
nan

$$$$
CHEMBL2063441
     RDKit          3D

  0  0  0  0  0  0  0  0  0  0999 V3000
M  V30 BEGIN CTAB
M  V30 COUNTS 49 52 0 0 0
M  V30 BEGIN ATOM
M  V30 1 N 2.656047 -1.804038 2.030754 0
M  V30 2 C 3.787232 -2.062350 1.262710 0
M  V30 3 N 4.503335 -3.189514 1.361139 0
M  V30 4 O 5.467531 -3.112742 0.500279 0
M  V30 5 C 5.407386 -1.971330 -0.160304 0
M  V30 6 C 6.162132 -1.394508 -1.160464 0
M  V30 7 C 5.900882 -0.180867 -1.698359 0
M  V30 8 C 4.816208 0.545743 -1.231180 0
M  V30 9 C 4.003841 0.056925 -0.235990 0
M  V30 10 C 2.819275 0.591104 0.453423 0
M  V30 11 O 1.883137 -0.065658 -0.018408 0
M  V30 12 N 2.753545 1.626580 1.457202 0
M  V30 13 C 1.460390 1.962942 2.000287 0
M  V30 14 C 1.608694 2.472776 3.276387 0
M  V30 15 C 0.414990 2.768000 3.943247 0
M  V30 16 C -0.810639 2.532633 3.296605 0
M  V30 17 C -0.890067 2.014576 2.006292 0
M  V30 18 C -2.194592 1.650924 1.388954 0
M  V30 19 N -2.237109 0.342020 0.781801 0
M  V30 20 C -3.179185 -0.701065 0.613155 0
M  V30 21 O -4.311676 -0.511252 1.108491 0
M  V30 22 N -2.925126 -1.916308 -0.073515 0
M  V30 23 C -4.039935 -2.836009 -0.180445 0
M  V30 24 C -4.903625 -2.430403 -1.210972 0
M  V30 25 C -6.042210 -3.125130 -1.548618 0
M  V30 26 C -6.334034 -4.268107 -0.836039 0
M  V30 27 C -5.491529 -4.668333 0.175259 0
M  V30 28 C -4.312985 -3.997042 0.566139 0
M  V30 29 C 0.292033 1.734499 1.363157 0
M  V30 30 C 4.312544 -1.208238 0.289411 0
M  V30 31 H 1.966048 -1.483503 2.706063 0
M  V30 32 H 1.726079 -2.263505 1.794386 0
M  V30 33 H 7.028272 -1.959569 -1.541047 0
M  V30 34 H 6.461185 0.309764 -2.489149 0
M  V30 35 H 4.447521 1.531154 -1.539335 0
M  V30 36 H 3.674768 2.042781 1.678745 0
M  V30 37 H 2.537071 2.669044 3.802377 0
M  V30 38 H 0.455490 3.169548 4.942457 0
M  V30 39 H -1.687500 2.790645 3.885348 0
M  V30 40 H -2.900900 1.492604 2.340650 0
M  V30 41 H -2.747964 2.443868 0.877791 0
M  V30 42 H -1.297477 0.065621 0.357486 0
M  V30 43 H -1.964333 -2.033218 -0.434564 0
M  V30 44 H -4.777635 -1.565357 -1.819354 0
M  V30 45 H -6.748169 -2.842544 -2.339309 0
M  V30 46 H -7.215629 -4.928577 -1.003529 0
M  V30 47 H -5.575751 -5.551663 0.830929 0
M  V30 48 H -3.592897 -4.212746 1.313740 0
M  V30 49 H 0.228231 1.362374 0.361516 0
M  V30 END ATOM
M  V30 BEGIN BOND
M  V30 1 1 1 2
M  V30 2 2 2 3
M  V30 3 1 3 4
M  V30 4 1 4 5
M  V30 5 2 5 6
M  V30 6 1 6 7
M  V30 7 2 7 8
M  V30 8 1 8 9
M  V30 9 1 9 10
M  V30 10 2 10 11
M  V30 11 1 10 12
M  V30 12 1 12 13
M  V30 13 2 13 14
M  V30 14 1 14 15
M  V30 15 2 15 16
M  V30 16 1 16 17
M  V30 17 1 17 18
M  V30 18 1 18 19
M  V30 19 1 19 20
M  V30 20 2 20 21
M  V30 21 1 20 22
M  V30 22 1 22 23
M  V30 23 2 23 24
M  V30 24 1 24 25
M  V30 25 2 25 26
M  V30 26 1 26 27
M  V30 27 2 27 28
M  V30 28 2 17 29
M  V30 29 2 9 30
M  V30 30 1 30 2
M  V30 31 1 30 5
M  V30 32 1 29 13
M  V30 33 1 28 23
M  V30 34 1 1 31
M  V30 35 1 1 32
M  V30 36 1 6 33
M  V30 37 1 7 34
M  V30 38 1 8 35
M  V30 39 1 12 36
M  V30 40 1 14 37
M  V30 41 1 15 38
M  V30 42 1 16 39
M  V30 43 1 18 40
M  V30 44 1 18 41
M  V30 45 1 19 42
M  V30 46 1 22 43
M  V30 47 1 24 44
M  V30 48 1 25 45
M  V30 49 1 26 46
M  V30 50 1 27 47
M  V30 51 1 28 48
M  V30 52 1 29 49
M  V30 END BOND
M  V30 END CTAB
M  END
>  <Dataset>  (484) 
ChEMBL_Kinases

>  <Ligand_Instance>  (484) 
nan

>  <PDB_ID>  (484) 
nan

>  <Standardized_SMILES>  (484) 
Nc1noc2cccc(C(=O)Nc3cccc(CNC(=O)Nc4ccccc4)c3)c12

>  <Name>  (484) 
nan

>  <Pocket>  (484) 
nan

>  <ATP_Site>  (484) 
nan

>  <Peripheral>  (484) 
nan

>  <Num_H_Atoms_ProtBoundConf>  (484) 
nan

>  <Num_Resolved_Atoms>  (484) 
nan

>  <Num_Not_Resolved_Atoms>  (484) 
nan

$$$$
CHEMBL4645138
     RDKit          3D

  0  0  0  0  0  0  0  0  0  0999 V3000
M  V30 BEGIN CTAB
M  V30 COUNTS 40 44 0 0 0
M  V30 BEGIN ATOM
M  V30 1 O 0.929915 -2.741845 1.377000 0
M  V30 2 C 0.419122 -1.661176 1.832143 0
M  V30 3 C 0.735709 -0.428387 1.299948 0
M  V30 4 C 1.572841 -0.071937 0.274085 0
M  V30 5 C 1.717321 1.224978 -0.065236 0
M  V30 6 C 2.583349 1.725236 -1.143768 0
M  V30 7 C 3.341834 0.914052 -1.924286 0
M  V30 8 C 4.149538 1.397675 -2.932407 0
M  V30 9 N 4.207627 2.718765 -3.173832 0
M  V30 10 C 3.447076 3.513895 -2.388790 0
M  V30 11 N 3.359205 4.852016 -2.461754 0
M  V30 12 C 2.514469 5.338918 -1.537778 0
M  V30 13 C 2.063146 4.229274 -0.864234 0
M  V30 14 C 2.613587 3.082536 -1.357378 0
M  V30 15 S 0.693133 2.092955 1.018562 0
M  V30 16 C 0.071675 0.648485 1.935102 0
M  V30 17 N -0.791407 0.483395 2.966185 0
M  V30 18 C -1.067860 -0.740498 3.450236 0
M  V30 19 N -0.442248 -1.767271 2.853407 0
M  V30 20 C -0.745366 -3.079056 3.375717 0
M  V30 21 C -1.906453 -3.727100 2.714006 0
M  V30 22 C -3.128994 -3.421993 3.316445 0
M  V30 23 C -4.306618 -3.950594 2.817218 0
M  V30 24 C -4.310659 -4.788199 1.718526 0
M  V30 25 C -3.088906 -5.078321 1.135913 0
M  V30 26 F -3.004063 -5.892181 0.053706 0
M  V30 27 C -1.902774 -4.562191 1.617392 0
M  V30 28 H 2.130261 -0.852287 -0.275327 0
M  V30 29 H 3.330177 -0.150642 -1.770838 0
M  V30 30 H 4.735425 0.694504 -3.525254 0
M  V30 31 H 3.854595 5.496761 -3.125785 0
M  V30 32 H 2.234342 6.376602 -1.346445 0
M  V30 33 H 1.365576 4.248616 -0.050969 0
M  V30 34 H -1.765042 -0.754318 4.267426 0
M  V30 35 H 0.159950 -3.709542 3.246010 0
M  V30 36 H -0.894678 -2.993513 4.469706 0
M  V30 37 H -3.274214 -2.773284 4.191875 0
M  V30 38 H -5.291140 -3.744795 3.249993 0
M  V30 39 H -5.182383 -5.241613 1.267428 0
M  V30 40 H -0.923586 -4.756365 1.201881 0
M  V30 END ATOM
M  V30 BEGIN BOND
M  V30 1 2 1 2
M  V30 2 1 2 3
M  V30 3 1 3 4
M  V30 4 2 4 5
M  V30 5 1 5 6
M  V30 6 2 6 7
M  V30 7 1 7 8
M  V30 8 2 8 9
M  V30 9 1 9 10
M  V30 10 1 10 11
M  V30 11 1 11 12
M  V30 12 2 12 13
M  V30 13 1 13 14
M  V30 14 1 5 15
M  V30 15 1 15 16
M  V30 16 1 16 17
M  V30 17 2 17 18
M  V30 18 1 18 19
M  V30 19 1 19 20
M  V30 20 1 20 21
M  V30 21 2 21 22
M  V30 22 1 22 23
M  V30 23 2 23 24
M  V30 24 1 24 25
M  V30 25 1 25 26
M  V30 26 2 25 27
M  V30 27 1 19 2
M  V30 28 1 27 21
M  V30 29 2 16 3
M  V30 30 1 14 6
M  V30 31 2 14 10
M  V30 32 1 4 28
M  V30 33 1 7 29
M  V30 34 1 8 30
M  V30 35 1 11 31
M  V30 36 1 12 32
M  V30 37 1 13 33
M  V30 38 1 18 34
M  V30 39 1 20 35
M  V30 40 1 20 36
M  V30 41 1 22 37
M  V30 42 1 23 38
M  V30 43 1 24 39
M  V30 44 1 27 40
M  V30 END BOND
M  V30 END CTAB
M  END
>  <Dataset>  (485) 
ChEMBL_Kinases

>  <Ligand_Instance>  (485) 
nan

>  <PDB_ID>  (485) 
nan

>  <Standardized_SMILES>  (485) 
O=c1c2cc(-c3ccnc4[nH]ccc34)sc2ncn1Cc1cccc(F)c1

>  <Name>  (485) 
nan

>  <Pocket>  (485) 
nan

>  <ATP_Site>  (485) 
nan

>  <Peripheral>  (485) 
nan

>  <Num_H_Atoms_ProtBoundConf>  (485) 
nan

>  <Num_Resolved_Atoms>  (485) 
nan

>  <Num_Not_Resolved_Atoms>  (485) 
nan

$$$$
CHEMBL4645229
     RDKit          3D

  0  0  0  0  0  0  0  0  0  0999 V3000
M  V30 BEGIN CTAB
M  V30 COUNTS 46 49 0 0 0
M  V30 BEGIN ATOM
M  V30 1 N -0.892691 -4.974300 -1.187729 0
M  V30 2 C 0.045364 -5.113868 -0.130993 0
M  V30 3 C 0.716642 -6.297853 0.106749 0
M  V30 4 C 1.624389 -6.401912 1.143980 0
M  V30 5 C 1.847888 -5.293381 1.941683 0
M  V30 6 C 1.162845 -4.125100 1.680038 0
M  V30 7 C 0.242992 -4.011689 0.632760 0
M  V30 8 C -0.381353 -2.702632 0.512622 0
M  V30 9 C 0.429697 -1.603914 0.607876 0
M  V30 10 C -0.121077 -0.327931 0.502151 0
M  V30 11 N 0.707176 0.851309 0.596460 0
M  V30 12 C 0.981860 2.234522 0.633210 0
M  V30 13 C 2.465588 2.607459 0.581926 0
M  V30 14 C 2.861800 3.614498 1.603880 0
M  V30 15 C 1.896359 4.737092 1.808262 0
M  V30 16 N 0.509720 4.339791 1.640153 0
M  V30 17 C 0.467419 2.913953 1.898440 0
M  V30 18 C -1.479030 -0.192870 0.301506 0
M  V30 19 C -2.137938 1.010704 0.171770 0
M  V30 20 C -3.491534 1.151946 -0.034755 0
M  V30 21 N -4.247443 0.046451 -0.120007 0
M  V30 22 C -3.704033 -1.199336 -0.007446 0
M  V30 23 C -2.342247 -1.269177 0.198329 0
M  V30 24 C -1.713074 -2.488092 0.314923 0
M  V30 25 H -1.697784 -5.641384 -1.023298 0
M  V30 26 H -0.596182 -4.253174 -1.895974 0
M  V30 27 H 0.543522 -7.168368 -0.516598 0
M  V30 28 H 2.188267 -7.295635 1.392502 0
M  V30 29 H 2.556563 -5.338495 2.768397 0
M  V30 30 H 1.382767 -3.280306 2.347230 0
M  V30 31 H 1.490563 -1.753108 0.764868 0
M  V30 32 H 1.683114 0.535015 0.707728 0
M  V30 33 H 0.492549 2.747101 -0.218684 0
M  V30 34 H 2.729652 2.895451 -0.436155 0
M  V30 35 H 2.994254 1.651252 0.837884 0
M  V30 36 H 3.811705 4.094376 1.212445 0
M  V30 37 H 3.140844 3.088165 2.564166 0
M  V30 38 H 2.123291 5.652028 1.224714 0
M  V30 39 H 1.981097 5.067181 2.884367 0
M  V30 40 H 0.153845 4.484966 0.678839 0
M  V30 41 H -0.549045 2.650534 2.179905 0
M  V30 42 H 1.155336 2.744203 2.754847 0
M  V30 43 H -1.589152 1.926147 0.219992 0
M  V30 44 H -3.956083 2.133056 -0.129468 0
M  V30 45 H -4.293708 -2.102882 -0.073161 0
M  V30 46 H -2.306437 -3.388263 0.247571 0
M  V30 END ATOM
M  V30 BEGIN BOND
M  V30 1 1 1 2
M  V30 2 2 2 3
M  V30 3 1 3 4
M  V30 4 2 4 5
M  V30 5 1 5 6
M  V30 6 2 6 7
M  V30 7 1 7 8
M  V30 8 2 8 9
M  V30 9 1 9 10
M  V30 10 1 10 11
M  V30 11 1 11 12
M  V30 12 1 12 13
M  V30 13 1 13 14
M  V30 14 1 14 15
M  V30 15 1 15 16
M  V30 16 1 16 17
M  V30 17 2 10 18
M  V30 18 1 18 19
M  V30 19 2 19 20
M  V30 20 1 20 21
M  V30 21 2 21 22
M  V30 22 1 22 23
M  V30 23 2 23 24
M  V30 24 1 7 2
M  V30 25 1 24 8
M  V30 26 1 17 12
M  V30 27 1 23 18
M  V30 28 1 1 25
M  V30 29 1 1 26
M  V30 30 1 3 27
M  V30 31 1 4 28
M  V30 32 1 5 29
M  V30 33 1 6 30
M  V30 34 1 9 31
M  V30 35 1 11 32
M  V30 36 1 12 33
M  V30 37 1 13 34
M  V30 38 1 13 35
M  V30 39 1 14 36
M  V30 40 1 14 37
M  V30 41 1 15 38
M  V30 42 1 15 39
M  V30 43 1 16 40
M  V30 44 1 17 41
M  V30 45 1 17 42
M  V30 46 1 19 43
M  V30 47 1 20 44
M  V30 48 1 22 45
M  V30 49 1 24 46
M  V30 END BOND
M  V30 END CTAB
M  END
>  <Dataset>  (486) 
ChEMBL_Kinases

>  <Ligand_Instance>  (486) 
nan

>  <PDB_ID>  (486) 
nan

>  <Standardized_SMILES>  (486) 
Nc1ccccc1-c1cc(NC2CCCNC2)c2ccncc2c1

>  <Name>  (486) 
nan

>  <Pocket>  (486) 
nan

>  <ATP_Site>  (486) 
nan

>  <Peripheral>  (486) 
nan

>  <Num_H_Atoms_ProtBoundConf>  (486) 
nan

>  <Num_Resolved_Atoms>  (486) 
nan

>  <Num_Not_Resolved_Atoms>  (486) 
nan

$$$$
CHEMBL4645267
     RDKit          3D

  0  0  0  0  0  0  0  0  0  0999 V3000
M  V30 BEGIN CTAB
M  V30 COUNTS 73 78 0 0 0
M  V30 BEGIN ATOM
M  V30 1 C 4.571803 1.513346 2.415948 0
M  V30 2 O 3.543747 0.554344 2.197882 0
M  V30 3 C 2.656453 0.616522 1.135990 0
M  V30 4 C 2.785048 1.664673 0.255122 0
M  V30 5 C 1.973726 1.848847 -0.839650 0
M  V30 6 N 2.061531 2.898994 -1.779320 0
M  V30 7 C 1.146199 3.249019 -2.831849 0
M  V30 8 C 1.795873 3.224056 -4.196623 0
M  V30 9 N 3.172011 2.799765 -4.028398 0
M  V30 10 C 3.862125 2.597778 -5.268255 0
M  V30 11 C 3.838228 3.788098 -3.206141 0
M  V30 12 C 3.167504 3.852661 -1.848601 0
M  V30 13 C 0.991513 0.898412 -1.017217 0
M  V30 14 C 0.833355 -0.180609 -0.139706 0
M  V30 15 C 1.664560 -0.325034 0.938998 0
M  V30 16 N 1.533265 -1.398815 1.863704 0
M  V30 17 C 0.540724 -2.390058 1.625111 0
M  V30 18 N 1.141946 -3.425251 0.973606 0
M  V30 19 C 0.454344 -4.542714 0.596877 0
M  V30 20 C -0.882557 -4.588536 0.900629 0
M  V30 21 C -1.502119 -3.524326 1.570437 0
M  V30 22 N -0.770131 -2.453077 1.914237 0
M  V30 23 N -2.836579 -3.299032 2.004056 0
M  V30 24 C -3.155123 -2.458370 3.103667 0
M  V30 25 C -2.732809 -1.060346 3.060214 0
M  V30 26 C -3.391520 -0.056833 2.382456 0
M  V30 27 C -3.038256 1.274721 2.345392 0
M  V30 28 C -1.911750 1.680982 3.049458 0
M  V30 29 C -1.171622 0.766532 3.765585 0
M  V30 30 C -1.621040 -0.533780 3.729187 0
M  V30 31 C -3.937512 -3.952249 1.321572 0
M  V30 32 C -5.122487 -3.276319 1.505151 0
M  V30 33 C -6.340378 -3.660009 0.980843 0
M  V30 34 C -6.373552 -4.824260 0.203491 0
M  V30 35 C -5.186982 -5.536130 -0.003878 0
M  V30 36 C -4.005187 -5.094236 0.551003 0
M  V30 37 C -2.890731 -5.972987 0.214805 0
M  V30 38 O -3.153364 -7.056165 -0.384140 0
M  V30 39 N -1.497684 -5.788184 0.469282 0
M  V30 40 C -0.609786 -6.913186 0.277938 0
M  V30 41 H 5.381499 1.314812 1.694796 0
M  V30 42 H 4.976930 1.347050 3.438505 0
M  V30 43 H 4.198087 2.552655 2.389537 0
M  V30 44 H 3.565546 2.394290 0.424581 0
M  V30 45 H 0.806303 4.314319 -2.666928 0
M  V30 46 H 0.215196 2.639332 -2.775125 0
M  V30 47 H 1.309453 2.517030 -4.882962 0
M  V30 48 H 1.830098 4.220756 -4.674473 0
M  V30 49 H 3.249610 3.058963 -6.094445 0
M  V30 50 H 4.870819 3.045585 -5.313980 0
M  V30 51 H 3.904014 1.492833 -5.490773 0
M  V30 52 H 4.908570 3.495055 -3.147920 0
M  V30 53 H 3.794201 4.772149 -3.711466 0
M  V30 54 H 3.966020 3.647977 -1.112791 0
M  V30 55 H 2.754871 4.873764 -1.683558 0
M  V30 56 H 0.259840 0.862574 -1.808152 0
M  V30 57 H 0.084582 -0.943508 -0.237067 0
M  V30 58 H 2.141737 -1.462888 2.694177 0
M  V30 59 H 0.864686 -5.380162 0.089710 0
M  V30 60 H -2.450919 -2.882517 3.933801 0
M  V30 61 H -4.112350 -2.667336 3.631060 0
M  V30 62 H -4.271392 -0.248973 1.802315 0
M  V30 63 H -3.575795 2.038477 1.803847 0
M  V30 64 H -1.595974 2.700677 3.051389 0
M  V30 65 H -0.291031 1.048728 4.322248 0
M  V30 66 H -1.010671 -1.229990 4.328431 0
M  V30 67 H -5.137069 -2.391708 2.081915 0
M  V30 68 H -7.256544 -3.099719 1.148013 0
M  V30 69 H -7.285976 -5.188024 -0.238917 0
M  V30 70 H -5.132675 -6.438807 -0.588643 0
M  V30 71 H 0.088247 -7.051704 1.142116 0
M  V30 72 H -1.281533 -7.814078 0.312293 0
M  V30 73 H -0.130432 -6.961484 -0.707268 0
M  V30 END ATOM
M  V30 BEGIN BOND
M  V30 1 1 1 2
M  V30 2 1 2 3
M  V30 3 2 3 4
M  V30 4 1 4 5
M  V30 5 1 5 6
M  V30 6 1 6 7
M  V30 7 1 7 8
M  V30 8 1 8 9
M  V30 9 1 9 10
M  V30 10 1 9 11
M  V30 11 1 11 12
M  V30 12 2 5 13
M  V30 13 1 13 14
M  V30 14 2 14 15
M  V30 15 1 15 16
M  V30 16 1 16 17
M  V30 17 2 17 18
M  V30 18 1 18 19
M  V30 19 2 19 20
M  V30 20 1 20 21
M  V30 21 2 21 22
M  V30 22 1 21 23
M  V30 23 1 23 24
M  V30 24 1 24 25
M  V30 25 2 25 26
M  V30 26 1 26 27
M  V30 27 2 27 28
M  V30 28 1 28 29
M  V30 29 2 29 30
M  V30 30 1 23 31
M  V30 31 2 31 32
M  V30 32 1 32 33
M  V30 33 2 33 34
M  V30 34 1 34 35
M  V30 35 2 35 36
M  V30 36 1 36 37
M  V30 37 2 37 38
M  V30 38 1 37 39
M  V30 39 1 39 40
M  V30 40 1 15 3
M  V30 41 1 22 17
M  V30 42 1 30 25
M  V30 43 1 36 31
M  V30 44 1 12 6
M  V30 45 1 39 20
M  V30 46 1 1 41
M  V30 47 1 1 42
M  V30 48 1 1 43
M  V30 49 1 4 44
M  V30 50 1 7 45
M  V30 51 1 7 46
M  V30 52 1 8 47
M  V30 53 1 8 48
M  V30 54 1 10 49
M  V30 55 1 10 50
M  V30 56 1 10 51
M  V30 57 1 11 52
M  V30 58 1 11 53
M  V30 59 1 12 54
M  V30 60 1 12 55
M  V30 61 1 13 56
M  V30 62 1 14 57
M  V30 63 1 16 58
M  V30 64 1 19 59
M  V30 65 1 24 60
M  V30 66 1 24 61
M  V30 67 1 26 62
M  V30 68 1 27 63
M  V30 69 1 28 64
M  V30 70 1 29 65
M  V30 71 1 30 66
M  V30 72 1 32 67
M  V30 73 1 33 68
M  V30 74 1 34 69
M  V30 75 1 35 70
M  V30 76 1 40 71
M  V30 77 1 40 72
M  V30 78 1 40 73
M  V30 END BOND
M  V30 END CTAB
M  END
>  <Dataset>  (487) 
ChEMBL_Kinases

>  <Ligand_Instance>  (487) 
nan

>  <PDB_ID>  (487) 
nan

>  <Standardized_SMILES>  (487) 
COc1cc(N2CCN(C)CC2)ccc1Nc1ncc2c(n1)N(Cc1ccccc1)c1ccccc1C(=O)N2C

>  <Name>  (487) 
nan

>  <Pocket>  (487) 
nan

>  <ATP_Site>  (487) 
nan

>  <Peripheral>  (487) 
nan

>  <Num_H_Atoms_ProtBoundConf>  (487) 
nan

>  <Num_Resolved_Atoms>  (487) 
nan

>  <Num_Not_Resolved_Atoms>  (487) 
nan

$$$$
CHEMBL570126
     RDKit          3D

  0  0  0  0  0  0  0  0  0  0999 V3000
M  V30 BEGIN CTAB
M  V30 COUNTS 50 53 0 0 0
M  V30 BEGIN ATOM
M  V30 1 C 1.833064 -1.540525 1.952410 0
M  V30 2 C 3.087292 -2.110928 1.406623 0
M  V30 3 C 3.898478 -3.027010 2.073119 0
M  V30 4 N 4.929808 -3.314925 1.260450 0
M  V30 5 C 4.854985 -2.643088 0.087123 0
M  V30 6 N 5.549750 -2.530364 -1.052458 0
M  V30 7 C 5.136935 -1.714929 -2.063135 0
M  V30 8 N 3.986137 -0.993955 -1.910734 0
M  V30 9 C 3.248816 -1.080215 -0.764220 0
M  V30 10 N 2.133546 -0.215096 -0.881111 0
M  V30 11 C 2.022279 0.946854 -0.035354 0
M  V30 12 C 0.608074 1.164939 0.364093 0
M  V30 13 N -0.360849 0.338174 -0.305929 0
M  V30 14 C -1.727040 0.575098 0.045408 0
M  V30 15 N -2.453545 1.608447 -0.197007 0
M  V30 16 C -3.770355 1.724261 0.191468 0
M  V30 17 N -4.885268 1.826530 0.499576 0
M  V30 18 N -2.393597 -0.464662 0.771160 0
M  V30 19 C -3.106337 -0.139415 1.980261 0
M  V30 20 C -2.949976 0.922988 2.842086 0
M  V30 21 C -3.743912 1.070068 3.955192 0
M  V30 22 C -4.735890 0.167362 4.270566 0
M  V30 23 C -4.939698 -0.918891 3.443549 0
M  V30 24 Br -6.293063 -2.205466 3.819966 0
M  V30 25 C -4.126927 -1.027822 2.344783 0
M  V30 26 C -0.181264 -0.694032 -1.276181 0 CFG=1
M  V30 27 C -1.255079 -0.508073 -2.352123 0
M  V30 28 C 1.187575 -0.598825 -1.908235 0
M  V30 29 C 3.712184 -1.909711 0.204303 0
M  V30 30 H 1.446733 -2.240178 2.753943 0
M  V30 31 H 1.952581 -0.580415 2.451224 0
M  V30 32 H 1.018946 -1.575401 1.184545 0
M  V30 33 H 3.712712 -3.423303 3.067922 0
M  V30 34 H 5.723366 -3.980870 1.476654 0
M  V30 35 H 5.750980 -1.677180 -2.952449 0
M  V30 36 H 2.368472 1.806577 -0.700667 0
M  V30 37 H 2.757001 0.930652 0.797226 0
M  V30 38 H 0.314643 2.222211 0.125849 0
M  V30 39 H 0.472012 1.110036 1.484829 0
M  V30 40 H -2.356311 -1.486495 0.450924 0
M  V30 41 H -2.142056 1.601836 2.542021 0
M  V30 42 H -3.533616 1.947071 4.567132 0
M  V30 43 H -5.350890 0.301098 5.152331 0
M  V30 44 H -4.319755 -1.893578 1.723083 0
M  V30 45 H -0.269845 -1.718641 -0.884978 0
M  V30 46 H -1.233279 0.546919 -2.702327 0
M  V30 47 H -1.025718 -1.210034 -3.171405 0
M  V30 48 H -2.215035 -0.727006 -1.880375 0
M  V30 49 H 1.454196 -1.540578 -2.425254 0
M  V30 50 H 1.110260 0.239050 -2.656615 0
M  V30 END ATOM
M  V30 BEGIN BOND
M  V30 1 1 1 2
M  V30 2 2 2 3
M  V30 3 1 3 4
M  V30 4 1 4 5
M  V30 5 2 5 6
M  V30 6 1 6 7
M  V30 7 2 7 8
M  V30 8 1 8 9
M  V30 9 1 9 10
M  V30 10 1 10 11
M  V30 11 1 11 12
M  V30 12 1 12 13
M  V30 13 1 13 14
M  V30 14 2 14 15
M  V30 15 1 15 16
M  V30 16 3 16 17
M  V30 17 1 14 18
M  V30 18 1 18 19
M  V30 19 2 19 20
M  V30 20 1 20 21
M  V30 21 2 21 22
M  V30 22 1 22 23
M  V30 23 1 23 24
M  V30 24 2 23 25
M  V30 25 1 13 26
M  V30 26 1 26 27
M  V30 27 1 26 28
M  V30 28 2 9 29
M  V30 29 1 29 2
M  V30 30 1 29 5
M  V30 31 1 28 10
M  V30 32 1 25 19
M  V30 33 1 1 30
M  V30 34 1 1 31
M  V30 35 1 1 32
M  V30 36 1 3 33
M  V30 37 1 4 34
M  V30 38 1 7 35
M  V30 39 1 11 36
M  V30 40 1 11 37
M  V30 41 1 12 38
M  V30 42 1 12 39
M  V30 43 1 18 40
M  V30 44 1 20 41
M  V30 45 1 21 42
M  V30 46 1 22 43
M  V30 47 1 25 44
M  V30 48 1 26 45 CFG=1
M  V30 49 1 27 46
M  V30 50 1 27 47
M  V30 51 1 27 48
M  V30 52 1 28 49
M  V30 53 1 28 50
M  V30 END BOND
M  V30 END CTAB
M  END
>  <Dataset>  (488) 
ChEMBL_Kinases

>  <Ligand_Instance>  (488) 
nan

>  <PDB_ID>  (488) 
nan

>  <Standardized_SMILES>  (488) 
Cc1c[nH]c2ncnc(N3CCN(/C(=N/C#N)Nc4cccc(Br)c4)[C@@H](C)C3)c12

>  <Name>  (488) 
nan

>  <Pocket>  (488) 
nan

>  <ATP_Site>  (488) 
nan

>  <Peripheral>  (488) 
nan

>  <Num_H_Atoms_ProtBoundConf>  (488) 
nan

>  <Num_Resolved_Atoms>  (488) 
nan

>  <Num_Not_Resolved_Atoms>  (488) 
nan

$$$$
CHEMBL4646744
     RDKit          3D

  0  0  0  0  0  0  0  0  0  0999 V3000
M  V30 BEGIN CTAB
M  V30 COUNTS 26 28 0 0 0
M  V30 BEGIN ATOM
M  V30 1 O -1.089211 -1.989948 3.756641 0
M  V30 2 N -0.548275 -2.988857 3.245957 0 CHG=1 VAL=4
M  V30 3 O -1.081960 -4.146206 3.759233 0 CHG=-1 VAL=1
M  V30 4 C 0.471697 -2.784500 2.274430 0
M  V30 5 C 1.480666 -3.714887 2.198204 0
M  V30 6 C 2.460237 -3.509847 1.257946 0
M  V30 7 C 2.425518 -2.402426 0.419735 0
M  V30 8 C 1.397161 -1.483311 0.520145 0
M  V30 9 N 1.141077 -0.345901 -0.164637 0
M  V30 10 C 0.005133 0.176761 0.331527 0
M  V30 11 C -0.632386 1.407703 -0.124081 0
M  V30 12 C -0.072209 2.140935 -1.148182 0
M  V30 13 C -0.720394 3.295308 -1.535488 0
M  V30 14 N -1.841847 3.708913 -0.962076 0
M  V30 15 C -2.413745 3.031968 0.027232 0
M  V30 16 C -1.799138 1.861734 0.453897 0
M  V30 17 N -0.464342 -0.622626 1.329885 0
M  V30 18 C 0.388895 -1.675051 1.472863 0
M  V30 19 H 1.493850 -4.585434 2.867732 0
M  V30 20 H 3.245351 -4.229220 1.193945 0
M  V30 21 H 3.215687 -2.247444 -0.331616 0
M  V30 22 H 1.694358 0.071692 -0.931244 0
M  V30 23 H 0.848079 1.837020 -1.647222 0
M  V30 24 H -0.268548 3.862942 -2.342979 0
M  V30 25 H -3.334292 3.334778 0.526608 0
M  V30 26 H -2.225403 1.258976 1.269688 0
M  V30 END ATOM
M  V30 BEGIN BOND
M  V30 1 2 1 2
M  V30 2 1 2 3
M  V30 3 1 2 4
M  V30 4 2 4 5
M  V30 5 1 5 6
M  V30 6 2 6 7
M  V30 7 1 7 8
M  V30 8 1 8 9
M  V30 9 1 9 10
M  V30 10 1 10 11
M  V30 11 2 11 12
M  V30 12 1 12 13
M  V30 13 2 13 14
M  V30 14 1 14 15
M  V30 15 2 15 16
M  V30 16 2 10 17
M  V30 17 1 17 18
M  V30 18 1 18 4
M  V30 19 2 18 8
M  V30 20 1 16 11
M  V30 21 1 5 19
M  V30 22 1 6 20
M  V30 23 1 7 21
M  V30 24 1 9 22
M  V30 25 1 12 23
M  V30 26 1 13 24
M  V30 27 1 15 25
M  V30 28 1 16 26
M  V30 END BOND
M  V30 END CTAB
M  END
>  <Dataset>  (489) 
ChEMBL_Kinases

>  <Ligand_Instance>  (489) 
nan

>  <PDB_ID>  (489) 
nan

>  <Standardized_SMILES>  (489) 
O=[N+]([O-])c1cccc2[nH]c(-c3ccncc3)nc12

>  <Name>  (489) 
nan

>  <Pocket>  (489) 
nan

>  <ATP_Site>  (489) 
nan

>  <Peripheral>  (489) 
nan

>  <Num_H_Atoms_ProtBoundConf>  (489) 
nan

>  <Num_Resolved_Atoms>  (489) 
nan

>  <Num_Not_Resolved_Atoms>  (489) 
nan

$$$$
CHEMBL4645393
     RDKit          3D

  0  0  0  0  0  0  0  0  0  0999 V3000
M  V30 BEGIN CTAB
M  V30 COUNTS 59 62 0 0 0
M  V30 BEGIN ATOM
M  V30 1 C 0.404859 -6.701789 2.261694 0
M  V30 2 C 1.444232 -6.261021 1.215795 0
M  V30 3 O 1.272524 -4.884481 1.087436 0
M  V30 4 C 1.916753 -3.999878 0.300806 0
M  V30 5 O 2.432344 -5.107706 0.051891 0
M  V30 6 C 2.273367 -2.745524 -0.294608 0
M  V30 7 C 3.321222 -2.880205 -1.200744 0
M  V30 8 N 3.717311 -1.736175 -1.773541 0
M  V30 9 C 3.152906 -0.557496 -1.498713 0
M  V30 10 C 3.617168 0.571080 -2.128420 0
M  V30 11 C 3.059558 1.807422 -1.870660 0
M  V30 12 C 2.021443 1.947977 -0.975261 0
M  V30 13 C 1.374504 3.212381 -0.639977 0
M  V30 14 C 0.349661 3.184177 0.281965 0
M  V30 15 C -0.275373 4.393402 0.608732 0
M  V30 16 Cl -1.590052 4.397719 1.784092 0
M  V30 17 C 0.124304 5.580057 0.023167 0
M  V30 18 O -0.517237 6.768220 0.368361 0
M  V30 19 C 1.155389 5.614599 -0.905741 0
M  V30 20 Cl 1.687991 7.097070 -1.664065 0
M  V30 21 C 1.762052 4.403524 -1.215617 0
M  V30 22 N 1.620263 0.802365 -0.398541 0
M  V30 23 C 2.121060 -0.407671 -0.610251 0
M  V30 24 C 1.665557 -1.548246 0.014378 0
M  V30 25 N 0.589425 -1.447942 0.922530 0
M  V30 26 C -0.342707 -2.121840 1.784361 0 CFG=1
M  V30 27 C -1.062362 -1.214315 2.765720 0
M  V30 28 C -2.554844 -1.285147 2.686908 0
M  V30 29 C -2.885298 -0.980560 1.219227 0 CFG=2
M  V30 30 C -4.317703 -0.608908 1.028730 0
M  V30 31 N -4.516163 -0.343713 -0.388805 0
M  V30 32 C -2.513922 -2.215140 0.465867 0
M  V30 33 C -1.331976 -2.966097 1.010498 0
M  V30 34 H -0.445478 -7.224695 1.796772 0
M  V30 35 H 0.890487 -7.409084 2.985118 0
M  V30 36 H 0.073257 -5.844917 2.870155 0
M  V30 37 H 2.460265 -6.543062 1.574926 0
M  V30 38 H 1.207738 -6.841036 0.302952 0
M  V30 39 H 3.813743 -3.804457 -1.460154 0
M  V30 40 H 4.438863 0.455952 -2.836749 0
M  V30 41 H 3.431699 2.686167 -2.370947 0
M  V30 42 H -0.019816 2.305613 0.781599 0
M  V30 43 H -1.499928 6.924781 0.106526 0
M  V30 44 H 2.547620 4.457738 -1.929400 0
M  V30 45 H 0.283356 -0.450183 1.072953 0
M  V30 46 H 0.235227 -2.817255 2.426038 0
M  V30 47 H -0.777261 -0.171447 2.452040 0
M  V30 48 H -0.750417 -1.330646 3.800882 0
M  V30 49 H -2.863866 -2.341447 2.897421 0
M  V30 50 H -2.982950 -0.553280 3.368745 0
M  V30 51 H -2.277358 -0.106414 0.901634 0
M  V30 52 H -5.054871 -1.349948 1.346126 0
M  V30 53 H -4.496428 0.369505 1.559020 0
M  V30 54 H -4.677355 -1.231402 -0.904302 0
M  V30 55 H -3.769949 0.261261 -0.766960 0
M  V30 56 H -3.388886 -2.921870 0.588509 0
M  V30 57 H -2.460345 -2.078386 -0.640113 0
M  V30 58 H -1.618673 -3.837228 1.636285 0
M  V30 59 H -0.806058 -3.385335 0.133257 0
M  V30 END ATOM
M  V30 BEGIN BOND
M  V30 1 1 1 2
M  V30 2 1 2 3
M  V30 3 1 3 4
M  V30 4 2 4 5
M  V30 5 1 4 6
M  V30 6 2 6 7
M  V30 7 1 7 8
M  V30 8 2 8 9
M  V30 9 1 9 10
M  V30 10 2 10 11
M  V30 11 1 11 12
M  V30 12 1 12 13
M  V30 13 2 13 14
M  V30 14 1 14 15
M  V30 15 1 15 16
M  V30 16 2 15 17
M  V30 17 1 17 18
M  V30 18 1 17 19
M  V30 19 1 19 20
M  V30 20 2 19 21
M  V30 21 2 12 22
M  V30 22 1 22 23
M  V30 23 2 23 24
M  V30 24 1 24 25
M  V30 25 1 25 26
M  V30 26 1 26 27
M  V30 27 1 27 28
M  V30 28 1 28 29
M  V30 29 1 29 30
M  V30 30 1 30 31
M  V30 31 1 29 32
M  V30 32 1 32 33
M  V30 33 1 24 6
M  V30 34 1 33 26
M  V30 35 1 23 9
M  V30 36 1 21 13
M  V30 37 1 1 34
M  V30 38 1 1 35
M  V30 39 1 1 36
M  V30 40 1 2 37
M  V30 41 1 2 38
M  V30 42 1 7 39
M  V30 43 1 10 40
M  V30 44 1 11 41
M  V30 45 1 14 42
M  V30 46 1 18 43
M  V30 47 1 21 44
M  V30 48 1 25 45
M  V30 49 1 26 46 CFG=1
M  V30 50 1 27 47
M  V30 51 1 27 48
M  V30 52 1 28 49
M  V30 53 1 28 50
M  V30 54 1 29 51 CFG=3
M  V30 55 1 30 52
M  V30 56 1 30 53
M  V30 57 1 31 54
M  V30 58 1 31 55
M  V30 59 1 32 56
M  V30 60 1 32 57
M  V30 61 1 33 58
M  V30 62 1 33 59
M  V30 END BOND
M  V30 END CTAB
M  END
>  <Dataset>  (490) 
ChEMBL_Kinases

>  <Ligand_Instance>  (490) 
nan

>  <PDB_ID>  (490) 
nan

>  <Standardized_SMILES>  (490) 
CCOC(=O)c1cnc2ccc(-c3cc(Cl)c(O)c(Cl)c3)nc2c1N[C@H]1CC[C@H](CN)CC1

>  <Name>  (490) 
nan

>  <Pocket>  (490) 
nan

>  <ATP_Site>  (490) 
nan

>  <Peripheral>  (490) 
nan

>  <Num_H_Atoms_ProtBoundConf>  (490) 
nan

>  <Num_Resolved_Atoms>  (490) 
nan

>  <Num_Not_Resolved_Atoms>  (490) 
nan

$$$$
CHEMBL2062581
     RDKit          3D

  0  0  0  0  0  0  0  0  0  0999 V3000
M  V30 BEGIN CTAB
M  V30 COUNTS 45 49 0 0 0
M  V30 BEGIN ATOM
M  V30 1 C 0.042974 -6.833459 0.551865 0
M  V30 2 C 0.850026 -5.574200 0.525279 0
M  V30 3 O 1.111961 -5.105430 1.673129 0
M  V30 4 N 1.347508 -4.855129 -0.591632 0
M  V30 5 C 2.059704 -3.715074 -0.060199 0
M  V30 6 C 3.406156 -3.805512 0.229995 0
M  V30 7 C 4.044999 -2.671857 0.741957 0
M  V30 8 C 3.274258 -1.540317 0.919327 0
M  V30 9 N 3.728426 -0.349190 1.405814 0
M  V30 10 C 2.697586 0.515712 1.436744 0
M  V30 11 C 1.577971 -0.146336 0.960921 0
M  V30 12 C 0.216930 0.361575 0.800086 0
M  V30 13 C -0.147790 1.650397 1.123766 0
M  V30 14 C -1.399776 2.212845 1.006525 0
M  V30 15 N -1.729962 3.544394 1.365209 0
M  V30 16 C -1.068447 4.659556 1.925536 0
M  V30 17 C 0.200838 5.051287 1.142295 0
M  V30 18 C 0.214654 4.723493 2.604770 0
M  V30 19 N -2.343535 1.358412 0.510873 0
M  V30 20 N -3.628615 1.535440 0.262881 0
M  V30 21 C -4.191067 0.427500 -0.222960 0
M  V30 22 C -3.183581 -0.506047 -0.281495 0
M  V30 23 C -3.290567 -1.856476 -0.736609 0
M  V30 24 N -3.391666 -2.942380 -1.116796 0
M  V30 25 C -2.038060 0.095296 0.181182 0
M  V30 26 N -0.800665 -0.412748 0.312668 0
M  V30 27 C 1.932013 -1.439705 0.633368 0
M  V30 28 C 1.311627 -2.568871 0.127206 0
M  V30 29 H -1.003918 -6.521881 0.770896 0
M  V30 30 H 0.375456 -7.508486 1.355849 0
M  V30 31 H 0.041393 -7.305451 -0.445177 0
M  V30 32 H 1.088044 -5.308407 -1.515631 0
M  V30 33 H 3.966122 -4.717540 0.072529 0
M  V30 34 H 5.099326 -2.707375 0.980421 0
M  V30 35 H 4.648578 -0.008035 1.732313 0
M  V30 36 H 2.628462 1.549057 1.749079 0
M  V30 37 H 0.664982 2.216979 1.487388 0
M  V30 38 H -2.758784 3.757197 1.147846 0
M  V30 39 H -1.774558 5.532664 2.127817 0
M  V30 40 H 0.241738 6.121301 0.797639 0
M  V30 41 H 0.605143 4.343074 0.396920 0
M  V30 42 H 0.383688 5.663188 3.226841 0
M  V30 43 H 0.802870 3.908545 3.016850 0
M  V30 44 H -5.240021 0.303122 -0.510965 0
M  V30 45 H 0.256409 -2.504129 -0.102176 0
M  V30 END ATOM
M  V30 BEGIN BOND
M  V30 1 1 1 2
M  V30 2 2 2 3
M  V30 3 1 2 4
M  V30 4 1 4 5
M  V30 5 2 5 6
M  V30 6 1 6 7
M  V30 7 2 7 8
M  V30 8 1 8 9
M  V30 9 1 9 10
M  V30 10 2 10 11
M  V30 11 1 11 12
M  V30 12 1 12 13
M  V30 13 2 13 14
M  V30 14 1 14 15
M  V30 15 1 15 16
M  V30 16 1 16 17
M  V30 17 1 17 18
M  V30 18 1 14 19
M  V30 19 1 19 20
M  V30 20 2 20 21
M  V30 21 1 21 22
M  V30 22 1 22 23
M  V30 23 3 23 24
M  V30 24 2 22 25
M  V30 25 1 25 26
M  V30 26 1 11 27
M  V30 27 2 27 28
M  V30 28 1 28 5
M  V30 29 1 27 8
M  V30 30 2 26 12
M  V30 31 1 18 16
M  V30 32 1 25 19
M  V30 33 1 1 29
M  V30 34 1 1 30
M  V30 35 1 1 31
M  V30 36 1 4 32
M  V30 37 1 6 33
M  V30 38 1 7 34
M  V30 39 1 9 35
M  V30 40 1 10 36
M  V30 41 1 13 37
M  V30 42 1 15 38
M  V30 43 1 16 39
M  V30 44 1 17 40
M  V30 45 1 17 41
M  V30 46 1 18 42
M  V30 47 1 18 43
M  V30 48 1 21 44
M  V30 49 1 28 45
M  V30 END BOND
M  V30 END CTAB
M  END
>  <Dataset>  (491) 
ChEMBL_Kinases

>  <Ligand_Instance>  (491) 
nan

>  <PDB_ID>  (491) 
nan

>  <Standardized_SMILES>  (491) 
CC(=O)Nc1ccc2[nH]cc(-c3cc(NC4CC4)n4ncc(C#N)c4n3)c2c1

>  <Name>  (491) 
nan

>  <Pocket>  (491) 
nan

>  <ATP_Site>  (491) 
nan

>  <Peripheral>  (491) 
nan

>  <Num_H_Atoms_ProtBoundConf>  (491) 
nan

>  <Num_Resolved_Atoms>  (491) 
nan

>  <Num_Not_Resolved_Atoms>  (491) 
nan

$$$$
CHEMBL4645636
     RDKit          3D

  0  0  0  0  0  0  0  0  0  0999 V3000
M  V30 BEGIN CTAB
M  V30 COUNTS 32 34 0 0 0
M  V30 BEGIN ATOM
M  V30 1 C -2.426624 -4.505786 4.530478 0
M  V30 2 O -1.592987 -3.423658 4.141259 0
M  V30 3 C -1.548365 -3.066042 2.801080 0
M  V30 4 C -0.714723 -1.995997 2.464994 0
M  V30 5 C -0.648338 -1.615775 1.139510 0
M  V30 6 C 0.214440 -0.499656 0.753317 0
M  V30 7 N 0.388836 -0.011146 -0.482148 0
M  V30 8 C 1.264820 1.025651 -0.449973 0
M  V30 9 C 1.748785 1.832075 -1.460640 0
M  V30 10 C 1.326536 1.643163 -2.844715 0
M  V30 11 N 0.398632 0.604530 -3.142043 0
M  V30 12 O 1.725361 2.338705 -3.813379 0
M  V30 13 C 2.645254 2.823285 -1.120316 0
M  V30 14 C 3.052243 3.013278 0.178820 0
M  V30 15 C 2.546391 2.186774 1.163045 0
M  V30 16 C 1.646762 1.182680 0.862854 0
M  V30 17 N 0.985174 0.230812 1.581791 0
M  V30 18 C -1.380772 -2.268152 0.168011 0
M  V30 19 C -2.186834 -3.315121 0.547238 0
M  V30 20 N -2.258286 -3.691891 1.830920 0
M  V30 21 H -2.900238 -4.242838 5.503994 0
M  V30 22 H -1.882609 -5.468657 4.575780 0
M  V30 23 H -3.218055 -4.648115 3.741399 0
M  V30 24 H -0.135804 -1.481081 3.236075 0
M  V30 25 H -0.499156 0.179074 -2.823398 0
M  V30 26 H 0.487663 -0.088461 -3.942906 0
M  V30 27 H 3.013009 3.447311 -1.937765 0
M  V30 28 H 3.746186 3.779699 0.446042 0
M  V30 29 H 2.839234 2.299509 2.203310 0
M  V30 30 H 1.111767 0.147009 2.614918 0
M  V30 31 H -1.282780 -1.918958 -0.854987 0
M  V30 32 H -2.767634 -3.836520 -0.205188 0
M  V30 END ATOM
M  V30 BEGIN BOND
M  V30 1 1 1 2
M  V30 2 1 2 3
M  V30 3 2 3 4
M  V30 4 1 4 5
M  V30 5 1 5 6
M  V30 6 2 6 7
M  V30 7 1 7 8
M  V30 8 2 8 9
M  V30 9 1 9 10
M  V30 10 1 10 11
M  V30 11 2 10 12
M  V30 12 1 9 13
M  V30 13 2 13 14
M  V30 14 1 14 15
M  V30 15 2 15 16
M  V30 16 1 16 17
M  V30 17 2 5 18
M  V30 18 1 18 19
M  V30 19 2 19 20
M  V30 20 1 20 3
M  V30 21 1 17 6
M  V30 22 1 16 8
M  V30 23 1 1 21
M  V30 24 1 1 22
M  V30 25 1 1 23
M  V30 26 1 4 24
M  V30 27 1 11 25
M  V30 28 1 11 26
M  V30 29 1 13 27
M  V30 30 1 14 28
M  V30 31 1 15 29
M  V30 32 1 17 30
M  V30 33 1 18 31
M  V30 34 1 19 32
M  V30 END BOND
M  V30 END CTAB
M  END
>  <Dataset>  (492) 
ChEMBL_Kinases

>  <Ligand_Instance>  (492) 
nan

>  <PDB_ID>  (492) 
nan

>  <Standardized_SMILES>  (492) 
COc1cc(-c2nc3c(C(N)=O)cccc3[nH]2)ccn1

>  <Name>  (492) 
nan

>  <Pocket>  (492) 
nan

>  <ATP_Site>  (492) 
nan

>  <Peripheral>  (492) 
nan

>  <Num_H_Atoms_ProtBoundConf>  (492) 
nan

>  <Num_Resolved_Atoms>  (492) 
nan

>  <Num_Not_Resolved_Atoms>  (492) 
nan

$$$$
CHEMBL2062577
     RDKit          3D

  0  0  0  0  0  0  0  0  0  0999 V3000
M  V30 BEGIN CTAB
M  V30 COUNTS 48 52 0 0 0
M  V30 BEGIN ATOM
M  V30 1 C 2.688456 -4.666745 2.615689 0
M  V30 2 C 2.752974 -3.791061 1.394588 0
M  V30 3 O 2.599053 -4.008914 0.165597 0
M  V30 4 N 3.050177 -2.425512 1.675960 0
M  V30 5 C 3.285037 -1.836563 2.984766 0
M  V30 6 C 3.128193 -1.530935 0.561792 0
M  V30 7 C 4.289769 -1.269290 -0.142468 0
M  V30 8 C 4.234637 -0.381373 -1.204234 0
M  V30 9 C 3.054734 0.239028 -1.566825 0
M  V30 10 C 2.742967 1.147297 -2.568035 0
M  V30 11 C 1.391850 1.428693 -2.461345 0
M  V30 12 N 0.899107 0.716101 -1.430814 0
M  V30 13 C -0.454529 0.675676 -0.931739 0
M  V30 14 C -0.579153 0.933634 0.416929 0
M  V30 15 C -1.877380 0.896169 0.901807 0
M  V30 16 N -2.090540 1.150564 2.278408 0
M  V30 17 C -3.266104 1.196749 3.115657 0
M  V30 18 C -4.067897 -0.095000 3.181543 0
M  V30 19 C -3.346087 0.396049 4.360304 0
M  V30 20 N -2.950248 0.630473 0.133948 0
M  V30 21 N -4.243295 0.540255 0.353700 0
M  V30 22 C -4.899535 0.244074 -0.781324 0
M  V30 23 C -3.972147 0.135904 -1.799564 0
M  V30 24 C -4.212542 -0.167572 -3.186003 0
M  V30 25 N -4.410311 -0.421191 -4.317756 0
M  V30 26 C -2.764867 0.385828 -1.179861 0
M  V30 27 N -1.516910 0.407613 -1.716818 0
M  V30 28 C 1.887182 -0.029431 -0.852292 0
M  V30 29 C 1.921700 -0.915930 0.214601 0
M  V30 30 H 3.683924 -4.877494 3.038227 0
M  V30 31 H 2.010670 -4.210779 3.382421 0
M  V30 32 H 2.259932 -5.644532 2.295169 0
M  V30 33 H 3.381311 -2.633075 3.754395 0
M  V30 34 H 2.426385 -1.180928 3.259430 0
M  V30 35 H 4.190731 -1.203891 2.957714 0
M  V30 36 H 5.191134 -1.772722 0.170433 0
M  V30 37 H 5.155270 -0.180840 -1.754103 0
M  V30 38 H 3.447876 1.543567 -3.284322 0
M  V30 39 H 0.816669 2.100234 -3.087081 0
M  V30 40 H 0.240419 1.151233 1.076392 0
M  V30 41 H -1.292153 1.364821 2.932624 0
M  V30 42 H -3.818458 2.156570 3.105564 0
M  V30 43 H -5.182011 0.034805 3.067308 0
M  V30 44 H -3.663094 -0.999016 2.686812 0
M  V30 45 H -3.957235 0.796900 5.198067 0
M  V30 46 H -2.467559 -0.192438 4.723164 0
M  V30 47 H -5.963477 0.093174 -0.982174 0
M  V30 48 H 1.009398 -1.097392 0.738477 0
M  V30 END ATOM
M  V30 BEGIN BOND
M  V30 1 1 1 2
M  V30 2 2 2 3
M  V30 3 1 2 4
M  V30 4 1 4 5
M  V30 5 1 4 6
M  V30 6 2 6 7
M  V30 7 1 7 8
M  V30 8 2 8 9
M  V30 9 1 9 10
M  V30 10 2 10 11
M  V30 11 1 11 12
M  V30 12 1 12 13
M  V30 13 1 13 14
M  V30 14 2 14 15
M  V30 15 1 15 16
M  V30 16 1 16 17
M  V30 17 1 17 18
M  V30 18 1 18 19
M  V30 19 1 15 20
M  V30 20 1 20 21
M  V30 21 2 21 22
M  V30 22 1 22 23
M  V30 23 1 23 24
M  V30 24 3 24 25
M  V30 25 2 23 26
M  V30 26 1 26 27
M  V30 27 1 12 28
M  V30 28 2 28 29
M  V30 29 1 29 6
M  V30 30 1 28 9
M  V30 31 2 27 13
M  V30 32 1 19 17
M  V30 33 1 26 20
M  V30 34 1 1 30
M  V30 35 1 1 31
M  V30 36 1 1 32
M  V30 37 1 5 33
M  V30 38 1 5 34
M  V30 39 1 5 35
M  V30 40 1 7 36
M  V30 41 1 8 37
M  V30 42 1 10 38
M  V30 43 1 11 39
M  V30 44 1 14 40
M  V30 45 1 16 41
M  V30 46 1 17 42
M  V30 47 1 18 43
M  V30 48 1 18 44
M  V30 49 1 19 45
M  V30 50 1 19 46
M  V30 51 1 22 47
M  V30 52 1 29 48
M  V30 END BOND
M  V30 END CTAB
M  END
>  <Dataset>  (493) 
ChEMBL_Kinases

>  <Ligand_Instance>  (493) 
nan

>  <PDB_ID>  (493) 
nan

>  <Standardized_SMILES>  (493) 
CC(=O)N(C)c1ccc2ccn(-c3cc(NC4CC4)n4ncc(C#N)c4n3)c2c1

>  <Name>  (493) 
nan

>  <Pocket>  (493) 
nan

>  <ATP_Site>  (493) 
nan

>  <Peripheral>  (493) 
nan

>  <Num_H_Atoms_ProtBoundConf>  (493) 
nan

>  <Num_Resolved_Atoms>  (493) 
nan

>  <Num_Not_Resolved_Atoms>  (493) 
nan

$$$$
CHEMBL4645713
     RDKit          3D

  0  0  0  0  0  0  0  0  0  0999 V3000
M  V30 BEGIN CTAB
M  V30 COUNTS 49 51 0 0 0
M  V30 BEGIN ATOM
M  V30 1 C 1.505363 -4.941119 0.319419 0
M  V30 2 C 2.711116 -4.527678 1.125594 0
M  V30 3 O 3.040329 -3.166188 0.949972 0
M  V30 4 C 2.206742 -2.122209 1.245559 0
M  V30 5 O 1.127334 -2.592656 1.688796 0
M  V30 6 C 2.528060 -0.709281 1.071361 0
M  V30 7 C 3.783133 -0.444503 0.565515 0
M  V30 8 N 4.092806 0.874540 0.399138 0
M  V30 9 C 3.198500 1.831386 0.721598 0
M  V30 10 C 3.553729 3.172434 0.536413 0
M  V30 11 C 2.631039 4.169080 0.868770 0
M  V30 12 C 1.369369 3.842052 1.379300 0
M  V30 13 C 0.398536 4.923870 1.727926 0
M  V30 14 C 1.018238 2.515152 1.562390 0
M  V30 15 C 1.937975 1.531238 1.230777 0
M  V30 16 C 1.563618 0.213011 1.422745 0
M  V30 17 N 0.301061 -0.202758 1.936494 0
M  V30 18 C -0.696554 -0.411989 0.925902 0
M  V30 19 C -0.422147 -0.218088 -0.411729 0
M  V30 20 C -1.430088 -0.437667 -1.335313 0
M  V30 21 C -2.701844 -0.841674 -0.996545 0
M  V30 22 C -2.993310 -1.041897 0.356302 0
M  V30 23 N -4.268851 -1.459441 0.841797 0
M  V30 24 S -5.105230 -2.764070 0.037672 0
M  V30 25 C -4.170714 -4.270613 0.108574 0
M  V30 26 O -6.441534 -2.946600 0.709624 0
M  V30 27 O -5.355658 -2.446441 -1.406284 0
M  V30 28 C -1.978731 -0.819219 1.266467 0
M  V30 29 H 1.316988 -4.102407 -0.407281 0
M  V30 30 H 0.638725 -4.889971 1.017363 0
M  V30 31 H 1.620724 -5.907868 -0.184466 0
M  V30 32 H 2.601008 -4.775147 2.203033 0
M  V30 33 H 3.579381 -5.118888 0.767766 0
M  V30 34 H 4.474035 -1.224460 0.317736 0
M  V30 35 H 4.523780 3.441454 0.143317 0
M  V30 36 H 2.920646 5.203500 0.719749 0
M  V30 37 H 0.905537 5.881201 1.946870 0
M  V30 38 H -0.305068 5.073236 0.876903 0
M  V30 39 H -0.231181 4.564712 2.567494 0
M  V30 40 H 0.036185 2.230666 1.960752 0
M  V30 41 H 0.044243 -0.361241 2.918704 0
M  V30 42 H 0.566563 0.100440 -0.727718 0
M  V30 43 H -1.238294 -0.290624 -2.406408 0
M  V30 44 H -3.491883 -1.014399 -1.713191 0
M  V30 45 H -4.675886 -0.958655 1.687125 0
M  V30 46 H -4.864058 -5.114725 0.313174 0
M  V30 47 H -3.624938 -4.435438 -0.849429 0
M  V30 48 H -3.423145 -4.149794 0.933825 0
M  V30 49 H -2.182750 -0.967715 2.312049 0
M  V30 END ATOM
M  V30 BEGIN BOND
M  V30 1 1 1 2
M  V30 2 1 2 3
M  V30 3 1 3 4
M  V30 4 2 4 5
M  V30 5 1 4 6
M  V30 6 2 6 7
M  V30 7 1 7 8
M  V30 8 2 8 9
M  V30 9 1 9 10
M  V30 10 2 10 11
M  V30 11 1 11 12
M  V30 12 1 12 13
M  V30 13 2 12 14
M  V30 14 1 14 15
M  V30 15 2 15 16
M  V30 16 1 16 17
M  V30 17 1 17 18
M  V30 18 2 18 19
M  V30 19 1 19 20
M  V30 20 2 20 21
M  V30 21 1 21 22
M  V30 22 1 22 23
M  V30 23 1 23 24
M  V30 24 1 24 25
M  V30 25 2 24 26
M  V30 26 2 24 27
M  V30 27 2 22 28
M  V30 28 1 16 6
M  V30 29 1 28 18
M  V30 30 1 15 9
M  V30 31 1 1 29
M  V30 32 1 1 30
M  V30 33 1 1 31
M  V30 34 1 2 32
M  V30 35 1 2 33
M  V30 36 1 7 34
M  V30 37 1 10 35
M  V30 38 1 11 36
M  V30 39 1 13 37
M  V30 40 1 13 38
M  V30 41 1 13 39
M  V30 42 1 14 40
M  V30 43 1 17 41
M  V30 44 1 19 42
M  V30 45 1 20 43
M  V30 46 1 21 44
M  V30 47 1 23 45
M  V30 48 1 25 46
M  V30 49 1 25 47
M  V30 50 1 25 48
M  V30 51 1 28 49
M  V30 END BOND
M  V30 END CTAB
M  END
>  <Dataset>  (494) 
ChEMBL_Kinases

>  <Ligand_Instance>  (494) 
nan

>  <PDB_ID>  (494) 
nan

>  <Standardized_SMILES>  (494) 
CCOC(=O)c1cnc2ccc(C)cc2c1Nc1cccc(NS(C)(=O)=O)c1

>  <Name>  (494) 
nan

>  <Pocket>  (494) 
nan

>  <ATP_Site>  (494) 
nan

>  <Peripheral>  (494) 
nan

>  <Num_H_Atoms_ProtBoundConf>  (494) 
nan

>  <Num_Resolved_Atoms>  (494) 
nan

>  <Num_Not_Resolved_Atoms>  (494) 
nan

$$$$
CHEMBL570116
     RDKit          3D

  0  0  0  0  0  0  0  0  0  0999 V3000
M  V30 BEGIN CTAB
M  V30 COUNTS 59 62 0 0 0
M  V30 BEGIN ATOM
M  V30 1 C 0.731594 -0.231394 2.371478 0
M  V30 2 C 1.982798 -0.696243 3.021351 0
M  V30 3 C 2.092958 -1.534092 4.135078 0
M  V30 4 N 3.417484 -1.730199 4.411520 0
M  V30 5 C 4.192439 -1.055365 3.525228 0
M  V30 6 N 5.518413 -0.907515 3.337120 0
M  V30 7 C 5.912145 -0.134352 2.307931 0
M  V30 8 N 5.039389 0.493014 1.465225 0
M  V30 9 C 3.700590 0.354108 1.642306 0
M  V30 10 N 2.981412 1.105021 0.678373 0
M  V30 11 C 2.188039 2.282817 0.961984 0
M  V30 12 C 1.086007 2.556401 0.009690 0
M  V30 13 N 0.924047 1.442374 -0.896859 0
M  V30 14 C -0.273588 0.691053 -1.164986 0
M  V30 15 O -0.298390 -0.258547 -1.981880 0
M  V30 16 N -1.458869 1.035862 -0.484209 0
M  V30 17 C -2.613927 0.238710 -0.806667 0
M  V30 18 C -3.410974 0.690516 -1.842206 0
M  V30 19 C -4.504559 -0.094081 -2.125263 0
M  V30 20 C -4.817202 -1.253743 -1.448599 0
M  V30 21 C -3.969807 -1.655920 -0.411135 0
M  V30 22 O -4.180325 -2.806520 0.344098 0
M  V30 23 C -3.613876 -4.001167 -0.117528 0
M  V30 24 O -2.991941 -3.775945 -1.187782 0
M  V30 25 N -3.785820 -5.216724 0.600773 0
M  V30 26 C -4.564970 -5.194546 1.834729 0
M  V30 27 C -3.147732 -6.389327 0.013420 0
M  V30 28 C -2.846914 -0.905897 -0.075338 0
M  V30 29 C 2.151743 1.098789 -1.587227 0 CFG=1
M  V30 30 C 2.667909 2.341659 -2.312151 0
M  V30 31 C 3.156887 0.531106 -0.638965 0
M  V30 32 C 3.292387 -0.435770 2.692583 0
M  V30 33 H 0.343573 0.716970 2.737489 0
M  V30 34 H -0.061867 -0.999574 2.623204 0
M  V30 35 H 0.847006 -0.326409 1.278249 0
M  V30 36 H 1.259054 -1.951781 4.680061 0
M  V30 37 H 3.771438 -2.322259 5.202043 0
M  V30 38 H 6.997074 -0.064630 2.222592 0
M  V30 39 H 1.926221 2.354013 2.039493 0
M  V30 40 H 2.929294 3.140750 0.832646 0
M  V30 41 H 1.302505 3.439152 -0.669832 0
M  V30 42 H 0.132877 2.856385 0.508539 0
M  V30 43 H -1.567493 1.798774 0.214599 0
M  V30 44 H -3.150440 1.603241 -2.362318 0
M  V30 45 H -5.164335 0.234762 -2.944424 0
M  V30 46 H -5.671151 -1.851472 -1.682920 0
M  V30 47 H -4.381750 -4.251010 2.402598 0
M  V30 48 H -5.633297 -5.209704 1.537601 0
M  V30 49 H -4.269374 -6.030148 2.499242 0
M  V30 50 H -3.734930 -7.286127 0.352284 0
M  V30 51 H -2.089801 -6.483290 0.312851 0
M  V30 52 H -3.197556 -6.373344 -1.080914 0
M  V30 53 H -2.170150 -1.186081 0.720216 0
M  V30 54 H 1.883699 0.393637 -2.407148 0
M  V30 55 H 1.827364 2.992117 -2.621870 0
M  V30 56 H 3.456109 2.835725 -1.735282 0
M  V30 57 H 3.154072 2.040822 -3.283334 0
M  V30 58 H 3.208857 -0.572083 -0.654312 0
M  V30 59 H 4.164516 0.902549 -0.983897 0
M  V30 END ATOM
M  V30 BEGIN BOND
M  V30 1 1 1 2
M  V30 2 2 2 3
M  V30 3 1 3 4
M  V30 4 1 4 5
M  V30 5 2 5 6
M  V30 6 1 6 7
M  V30 7 2 7 8
M  V30 8 1 8 9
M  V30 9 1 9 10
M  V30 10 1 10 11
M  V30 11 1 11 12
M  V30 12 1 12 13
M  V30 13 1 13 14
M  V30 14 2 14 15
M  V30 15 1 14 16
M  V30 16 1 16 17
M  V30 17 2 17 18
M  V30 18 1 18 19
M  V30 19 2 19 20
M  V30 20 1 20 21
M  V30 21 1 21 22
M  V30 22 1 22 23
M  V30 23 2 23 24
M  V30 24 1 23 25
M  V30 25 1 25 26
M  V30 26 1 25 27
M  V30 27 2 21 28
M  V30 28 1 13 29
M  V30 29 1 29 30
M  V30 30 1 29 31
M  V30 31 2 9 32
M  V30 32 1 32 2
M  V30 33 1 32 5
M  V30 34 1 31 10
M  V30 35 1 28 17
M  V30 36 1 1 33
M  V30 37 1 1 34
M  V30 38 1 1 35
M  V30 39 1 3 36
M  V30 40 1 4 37
M  V30 41 1 7 38
M  V30 42 1 11 39
M  V30 43 1 11 40
M  V30 44 1 12 41
M  V30 45 1 12 42
M  V30 46 1 16 43
M  V30 47 1 18 44
M  V30 48 1 19 45
M  V30 49 1 20 46
M  V30 50 1 26 47
M  V30 51 1 26 48
M  V30 52 1 26 49
M  V30 53 1 27 50
M  V30 54 1 27 51
M  V30 55 1 27 52
M  V30 56 1 28 53
M  V30 57 1 29 54 CFG=3
M  V30 58 1 30 55
M  V30 59 1 30 56
M  V30 60 1 30 57
M  V30 61 1 31 58
M  V30 62 1 31 59
M  V30 END BOND
M  V30 END CTAB
M  END
>  <Dataset>  (495) 
ChEMBL_Kinases

>  <Ligand_Instance>  (495) 
nan

>  <PDB_ID>  (495) 
nan

>  <Standardized_SMILES>  (495) 
Cc1c[nH]c2ncnc(N3CCN(C(=O)Nc4cccc(OC(=O)N(C)C)c4)[C@@H](C)C3)c12

>  <Name>  (495) 
nan

>  <Pocket>  (495) 
nan

>  <ATP_Site>  (495) 
nan

>  <Peripheral>  (495) 
nan

>  <Num_H_Atoms_ProtBoundConf>  (495) 
nan

>  <Num_Resolved_Atoms>  (495) 
nan

>  <Num_Not_Resolved_Atoms>  (495) 
nan

$$$$
CHEMBL2062565
     RDKit          3D

  0  0  0  0  0  0  0  0  0  0999 V3000
M  V30 BEGIN CTAB
M  V30 COUNTS 44 48 0 0 0
M  V30 BEGIN ATOM
M  V30 1 C 2.714646 -2.683614 5.904930 0
M  V30 2 C 1.937681 -3.261859 4.779971 0
M  V30 3 O 1.807799 -4.507983 4.810959 0
M  V30 4 N 1.367650 -2.532806 3.734857 0
M  V30 5 C 0.614567 -2.970311 2.621042 0
M  V30 6 C 0.263646 -4.260496 2.309081 0
M  V30 7 N -0.452762 -4.660445 1.246378 0
M  V30 8 C -0.897694 -3.747587 0.365023 0
M  V30 9 C -1.636354 -3.798475 -0.799603 0
M  V30 10 C -1.736302 -2.468409 -1.212038 0
M  V30 11 N -1.098504 -1.650952 -0.353882 0
M  V30 12 C -1.019666 -0.235805 -0.498290 0
M  V30 13 C 0.137866 0.461086 -0.689387 0
M  V30 14 C 0.265312 1.824728 -0.834653 0
M  V30 15 N 1.486460 2.508905 -1.051060 0
M  V30 16 C 2.857685 2.222462 -1.242357 0
M  V30 17 C 3.515216 1.287358 -0.265798 0
M  V30 18 C 3.410913 0.951312 -1.708071 0
M  V30 19 N -0.923339 2.492115 -0.770974 0
M  V30 20 N -1.209644 3.779732 -0.864115 0
M  V30 21 C -2.510317 4.033378 -0.748866 0
M  V30 22 C -3.077343 2.795816 -0.568917 0
M  V30 23 C -4.471704 2.511105 -0.391857 0
M  V30 24 N -5.612542 2.284765 -0.241793 0
M  V30 25 C -2.082399 1.846406 -0.584398 0
M  V30 26 N -2.151542 0.513111 -0.448886 0
M  V30 27 C -0.581636 -2.429064 0.616162 0
M  V30 28 C 0.154278 -2.046559 1.713198 0
M  V30 29 H 2.552245 -3.206491 6.867337 0
M  V30 30 H 3.800447 -2.707897 5.604411 0
M  V30 31 H 2.458294 -1.603019 5.936473 0
M  V30 32 H 1.555947 -1.509836 3.839253 0
M  V30 33 H 0.581087 -5.054760 2.965155 0
M  V30 34 H -2.039498 -4.686419 -1.271254 0
M  V30 35 H -2.263076 -2.134116 -2.113226 0
M  V30 36 H 0.980967 -0.177368 -0.704623 0
M  V30 37 H 1.316007 3.568453 -1.075429 0
M  V30 38 H 3.490547 3.166619 -1.357276 0
M  V30 39 H 4.526601 1.474324 0.130565 0
M  V30 40 H 2.842920 0.778513 0.452758 0
M  V30 41 H 2.805482 0.114019 -2.003760 0
M  V30 42 H 4.363353 1.050434 -2.311413 0
M  V30 43 H -3.029828 4.981397 -0.784298 0
M  V30 44 H 0.384418 -0.982586 1.876259 0
M  V30 END ATOM
M  V30 BEGIN BOND
M  V30 1 1 1 2
M  V30 2 2 2 3
M  V30 3 1 2 4
M  V30 4 1 4 5
M  V30 5 2 5 6
M  V30 6 1 6 7
M  V30 7 2 7 8
M  V30 8 1 8 9
M  V30 9 2 9 10
M  V30 10 1 10 11
M  V30 11 1 11 12
M  V30 12 1 12 13
M  V30 13 2 13 14
M  V30 14 1 14 15
M  V30 15 1 15 16
M  V30 16 1 16 17
M  V30 17 1 17 18
M  V30 18 1 14 19
M  V30 19 1 19 20
M  V30 20 2 20 21
M  V30 21 1 21 22
M  V30 22 1 22 23
M  V30 23 3 23 24
M  V30 24 2 22 25
M  V30 25 1 25 26
M  V30 26 1 11 27
M  V30 27 2 27 28
M  V30 28 1 28 5
M  V30 29 1 27 8
M  V30 30 2 26 12
M  V30 31 1 18 16
M  V30 32 1 25 19
M  V30 33 1 1 29
M  V30 34 1 1 30
M  V30 35 1 1 31
M  V30 36 1 4 32
M  V30 37 1 6 33
M  V30 38 1 9 34
M  V30 39 1 10 35
M  V30 40 1 13 36
M  V30 41 1 15 37
M  V30 42 1 16 38
M  V30 43 1 17 39
M  V30 44 1 17 40
M  V30 45 1 18 41
M  V30 46 1 18 42
M  V30 47 1 21 43
M  V30 48 1 28 44
M  V30 END BOND
M  V30 END CTAB
M  END
>  <Dataset>  (496) 
ChEMBL_Kinases

>  <Ligand_Instance>  (496) 
nan

>  <PDB_ID>  (496) 
nan

>  <Standardized_SMILES>  (496) 
CC(=O)Nc1cnc2ccn(-c3cc(NC4CC4)n4ncc(C#N)c4n3)c2c1

>  <Name>  (496) 
nan

>  <Pocket>  (496) 
nan

>  <ATP_Site>  (496) 
nan

>  <Peripheral>  (496) 
nan

>  <Num_H_Atoms_ProtBoundConf>  (496) 
nan

>  <Num_Resolved_Atoms>  (496) 
nan

>  <Num_Not_Resolved_Atoms>  (496) 
nan

$$$$
CHEMBL4646357
     RDKit          3D

  0  0  0  0  0  0  0  0  0  0999 V3000
M  V30 BEGIN CTAB
M  V30 COUNTS 47 50 0 0 0
M  V30 BEGIN ATOM
M  V30 1 C 0.529641 -4.844419 1.537951 0
M  V30 2 N 0.675837 -4.697163 0.098236 0
M  V30 3 C 0.530846 -3.511296 -0.552244 0
M  V30 4 C 0.733214 -3.725684 -1.892663 0
M  V30 5 C 0.654649 -2.669863 -2.889781 0
M  V30 6 C 0.858495 -2.887769 -4.237165 0
M  V30 7 N 0.771188 -1.875181 -5.094514 0
M  V30 8 C 0.486475 -0.631013 -4.679121 0
M  V30 9 N 0.382934 0.484395 -5.562544 0
M  V30 10 C 0.277333 -0.374587 -3.348000 0
M  V30 11 O -0.027118 0.878648 -2.783294 0
M  V30 12 C -0.221299 1.022129 -1.400073 0
M  V30 13 C 0.817071 1.312324 -0.533911 0
M  V30 14 C 0.584122 1.445439 0.820581 0
M  V30 15 C -0.687418 1.291961 1.337343 0
M  V30 16 C -1.077889 1.404032 2.739899 0
M  V30 17 O -2.255702 1.257484 3.182396 0
M  V30 18 N -0.095730 1.696482 3.701682 0
M  V30 19 C -0.117705 1.872567 5.107559 0
M  V30 20 C 0.088242 0.696488 5.803631 0
M  V30 21 C 0.092698 0.718315 7.198765 0
M  V30 22 C -0.111463 1.929618 7.834916 0
M  V30 23 C -0.321101 3.127925 7.159670 0
M  V30 24 C -0.317808 3.061456 5.779423 0
M  V30 25 C -1.741997 0.998073 0.464180 0
M  V30 26 C -1.503182 0.865695 -0.892456 0
M  V30 27 N 0.375124 -1.427272 -2.514878 0
M  V30 28 C 1.004745 -5.065824 -2.048768 0
M  V30 29 N 0.957677 -5.610494 -0.809242 0
M  V30 30 H 0.807877 -3.898310 2.060037 0
M  V30 31 H -0.534525 -5.067844 1.784804 0
M  V30 32 H 1.209853 -5.617628 1.946059 0
M  V30 33 H 0.295378 -2.574217 -0.065677 0
M  V30 34 H 1.090069 -3.909155 -4.560222 0
M  V30 35 H 0.743519 1.450603 -5.345734 0
M  V30 36 H -0.035995 0.553591 -6.517038 0
M  V30 37 H 1.812289 1.436430 -0.907264 0
M  V30 38 H 1.350712 1.667747 1.523151 0
M  V30 39 H 0.918590 1.846733 3.508630 0
M  V30 40 H 0.252504 -0.275944 5.355361 0
M  V30 41 H 0.249408 -0.174052 7.802329 0
M  V30 42 H -0.105690 1.933206 8.922288 0
M  V30 43 H -0.479100 4.066104 7.672901 0
M  V30 44 H -0.470892 3.932464 5.168893 0
M  V30 45 H -2.765654 0.866595 0.818348 0
M  V30 46 H -2.299249 0.637132 -1.604062 0
M  V30 47 H 1.209113 -5.560190 -2.968786 0
M  V30 END ATOM
M  V30 BEGIN BOND
M  V30 1 1 1 2
M  V30 2 1 2 3
M  V30 3 2 3 4
M  V30 4 1 4 5
M  V30 5 2 5 6
M  V30 6 1 6 7
M  V30 7 2 7 8
M  V30 8 1 8 9
M  V30 9 1 8 10
M  V30 10 1 10 11
M  V30 11 1 11 12
M  V30 12 2 12 13
M  V30 13 1 13 14
M  V30 14 2 14 15
M  V30 15 1 15 16
M  V30 16 2 16 17
M  V30 17 1 16 18
M  V30 18 1 18 19
M  V30 19 2 19 20
M  V30 20 1 20 21
M  V30 21 2 21 22
M  V30 22 1 22 23
M  V30 23 2 23 24
M  V30 24 1 15 25
M  V30 25 2 25 26
M  V30 26 2 10 27
M  V30 27 1 4 28
M  V30 28 2 28 29
M  V30 29 1 29 2
M  V30 30 1 27 5
M  V30 31 1 26 12
M  V30 32 1 24 19
M  V30 33 1 1 30
M  V30 34 1 1 31
M  V30 35 1 1 32
M  V30 36 1 3 33
M  V30 37 1 6 34
M  V30 38 1 9 35
M  V30 39 1 9 36
M  V30 40 1 13 37
M  V30 41 1 14 38
M  V30 42 1 18 39
M  V30 43 1 20 40
M  V30 44 1 21 41
M  V30 45 1 22 42
M  V30 46 1 23 43
M  V30 47 1 24 44
M  V30 48 1 25 45
M  V30 49 1 26 46
M  V30 50 1 28 47
M  V30 END BOND
M  V30 END CTAB
M  END
>  <Dataset>  (497) 
ChEMBL_Kinases

>  <Ligand_Instance>  (497) 
nan

>  <PDB_ID>  (497) 
nan

>  <Standardized_SMILES>  (497) 
Cn1cc(-c2cnc(N)c(Oc3ccc(C(=O)Nc4ccccc4)cc3)n2)cn1

>  <Name>  (497) 
nan

>  <Pocket>  (497) 
nan

>  <ATP_Site>  (497) 
nan

>  <Peripheral>  (497) 
nan

>  <Num_H_Atoms_ProtBoundConf>  (497) 
nan

>  <Num_Resolved_Atoms>  (497) 
nan

>  <Num_Not_Resolved_Atoms>  (497) 
nan

$$$$
CHEMBL4646386
     RDKit          3D

  0  0  0  0  0  0  0  0  0  0999 V3000
M  V30 BEGIN CTAB
M  V30 COUNTS 60 63 0 0 0
M  V30 BEGIN ATOM
M  V30 1 O -3.100631 -3.008679 1.353278 0
M  V30 2 C -2.962656 -2.885157 0.124851 0
M  V30 3 C -3.773149 -1.878349 -0.640947 0
M  V30 4 C -3.367546 -0.530856 -0.100345 0
M  V30 5 C -2.170154 -0.169481 -0.703673 0
M  V30 6 C -1.554656 1.053298 -0.386251 0
M  V30 7 C -2.143078 1.910945 0.534199 0
M  V30 8 N -1.575337 3.160378 0.911172 0
M  V30 9 C -0.248491 3.301596 0.381089 0
M  V30 10 N 0.218630 3.716996 -0.835175 0
M  V30 11 C 1.553503 3.746325 -1.066298 0
M  V30 12 C 2.455781 3.364997 -0.096712 0
M  V30 13 C 1.982269 2.941957 1.143351 0
M  V30 14 N 2.884700 2.537568 2.190136 0
M  V30 15 C 2.389153 2.114349 3.485337 0
M  V30 16 C 3.489449 1.758316 4.455591 0
M  V30 17 C 3.884664 0.374354 4.024968 0
M  V30 18 C 2.613474 -0.248708 3.514229 0
M  V30 19 C 1.606579 0.838022 3.350490 0
M  V30 20 N 0.651039 2.927526 1.330999 0
M  V30 21 C -3.329418 1.477890 1.085312 0
M  V30 22 C -3.972862 0.299165 0.815217 0
M  V30 23 N -2.054412 -3.634172 -0.720475 0
M  V30 24 C -1.059518 -4.672472 -0.628877 0
M  V30 25 C -1.481875 -5.887469 -1.389304 0
M  V30 26 C -1.444778 -5.579163 -2.850220 0
M  V30 27 C -0.121009 -5.088875 -3.299543 0
M  V30 28 C 0.532029 -4.040517 -2.465276 0
M  V30 29 C 0.315008 -4.181663 -0.992348 0
M  V30 30 H -4.852488 -1.999726 -0.321506 0
M  V30 31 H -3.696911 -1.962548 -1.716017 0
M  V30 32 H -1.585463 -0.738365 -1.447672 0
M  V30 33 H -0.618997 1.345856 -0.852376 0
M  V30 34 H -2.140582 3.804997 1.495904 0
M  V30 35 H 1.812610 4.083943 -2.039333 0
M  V30 36 H 3.515315 3.398487 -0.304851 0
M  V30 37 H 3.914533 2.538173 2.043582 0
M  V30 38 H 1.718220 2.911162 3.926888 0
M  V30 39 H 3.043622 1.703175 5.459163 0
M  V30 40 H 4.333474 2.481965 4.401405 0
M  V30 41 H 4.632725 0.370279 3.202406 0
M  V30 42 H 4.241894 -0.271313 4.881918 0
M  V30 43 H 2.745517 -0.806340 2.562366 0
M  V30 44 H 2.198451 -0.984288 4.270295 0
M  V30 45 H 1.126071 0.845206 2.348440 0
M  V30 46 H 0.790706 0.775316 4.132577 0
M  V30 47 H -3.847480 2.107328 1.820532 0
M  V30 48 H -4.886267 -0.116093 1.187850 0
M  V30 49 H -1.999296 -3.458189 -1.749275 0
M  V30 50 H -1.011828 -4.944706 0.452666 0
M  V30 51 H -2.559834 -6.070881 -1.110354 0
M  V30 52 H -0.884776 -6.794156 -1.110621 0
M  V30 53 H -2.302869 -4.920441 -3.102523 0
M  V30 54 H -1.605914 -6.570307 -3.378425 0
M  V30 55 H 0.572334 -5.967218 -3.445827 0
M  V30 56 H -0.261610 -4.698138 -4.349190 0
M  V30 57 H 0.227524 -3.027865 -2.846235 0
M  V30 58 H 1.626995 -4.099849 -2.644015 0
M  V30 59 H 0.429041 -3.173438 -0.530488 0
M  V30 60 H 1.065249 -4.825111 -0.497190 0
M  V30 END ATOM
M  V30 BEGIN BOND
M  V30 1 2 1 2
M  V30 2 1 2 3
M  V30 3 1 3 4
M  V30 4 2 4 5
M  V30 5 1 5 6
M  V30 6 2 6 7
M  V30 7 1 7 8
M  V30 8 1 8 9
M  V30 9 2 9 10
M  V30 10 1 10 11
M  V30 11 2 11 12
M  V30 12 1 12 13
M  V30 13 1 13 14
M  V30 14 1 14 15
M  V30 15 1 15 16
M  V30 16 1 16 17
M  V30 17 1 17 18
M  V30 18 1 18 19
M  V30 19 2 13 20
M  V30 20 1 7 21
M  V30 21 2 21 22
M  V30 22 1 2 23
M  V30 23 1 23 24
M  V30 24 1 24 25
M  V30 25 1 25 26
M  V30 26 1 26 27
M  V30 27 1 27 28
M  V30 28 1 28 29
M  V30 29 1 22 4
M  V30 30 1 29 24
M  V30 31 1 20 9
M  V30 32 1 19 15
M  V30 33 1 3 30
M  V30 34 1 3 31
M  V30 35 1 5 32
M  V30 36 1 6 33
M  V30 37 1 8 34
M  V30 38 1 11 35
M  V30 39 1 12 36
M  V30 40 1 14 37
M  V30 41 1 15 38
M  V30 42 1 16 39
M  V30 43 1 16 40
M  V30 44 1 17 41
M  V30 45 1 17 42
M  V30 46 1 18 43
M  V30 47 1 18 44
M  V30 48 1 19 45
M  V30 49 1 19 46
M  V30 50 1 21 47
M  V30 51 1 22 48
M  V30 52 1 23 49
M  V30 53 1 24 50
M  V30 54 1 25 51
M  V30 55 1 25 52
M  V30 56 1 26 53
M  V30 57 1 26 54
M  V30 58 1 27 55
M  V30 59 1 27 56
M  V30 60 1 28 57
M  V30 61 1 28 58
M  V30 62 1 29 59
M  V30 63 1 29 60
M  V30 END BOND
M  V30 END CTAB
M  END
>  <Dataset>  (498) 
ChEMBL_Kinases

>  <Ligand_Instance>  (498) 
nan

>  <PDB_ID>  (498) 
nan

>  <Standardized_SMILES>  (498) 
O=C(Cc1ccc(Nc2nccc(NC3CCCC3)n2)cc1)NC1CCCCC1

>  <Name>  (498) 
nan

>  <Pocket>  (498) 
nan

>  <ATP_Site>  (498) 
nan

>  <Peripheral>  (498) 
nan

>  <Num_H_Atoms_ProtBoundConf>  (498) 
nan

>  <Num_Resolved_Atoms>  (498) 
nan

>  <Num_Not_Resolved_Atoms>  (498) 
nan

$$$$
CHEMBL4646628
     RDKit          3D

  0  0  0  0  0  0  0  0  0  0999 V3000
M  V30 BEGIN CTAB
M  V30 COUNTS 43 46 0 0 0
M  V30 BEGIN ATOM
M  V30 1 C 2.515173 -5.373497 1.265780 0
M  V30 2 N 1.281166 -4.750664 0.760408 0
M  V30 3 C 0.339326 -5.484685 -0.080832 0
M  V30 4 C 0.956925 -3.396022 1.078296 0
M  V30 5 C 1.453564 -2.413343 0.252608 0
M  V30 6 C 1.206398 -1.070456 0.456127 0
M  V30 7 C 1.707963 -0.016552 -0.381358 0
M  V30 8 C 0.948536 0.868718 -1.102122 0
M  V30 9 C 1.492797 1.854742 -1.887110 0
M  V30 10 N 2.849618 1.975334 -1.966636 0
M  V30 11 C 3.603484 1.109305 -1.261210 0
M  V30 12 C 3.090045 0.091036 -0.449861 0
M  V30 13 C 0.415203 -0.752324 1.558242 0
M  V30 14 C 0.085307 0.635854 1.878864 0
M  V30 15 C 1.077885 1.551439 2.246162 0
M  V30 16 C 0.718931 2.859008 2.539585 0
M  V30 17 C -0.604766 3.299893 2.482310 0
M  V30 18 C -1.588839 2.396422 2.119362 0
M  V30 19 C -2.896569 2.839097 2.063071 0
M  V30 20 C -3.902913 1.952275 1.700069 0
M  V30 21 C -3.555901 0.656811 1.408241 0
M  V30 22 C -2.244730 0.209830 1.463893 0
M  V30 23 C -1.222382 1.090278 1.827199 0
M  V30 24 N -0.057339 -1.731701 2.348791 0
M  V30 25 N 0.190366 -2.992330 2.135040 0
M  V30 26 H 2.388940 -6.457910 1.433037 0
M  V30 27 H 3.310111 -5.119317 0.549580 0
M  V30 28 H 2.727036 -4.893550 2.248706 0
M  V30 29 H -0.688098 -5.197674 0.291540 0
M  V30 30 H 0.432665 -5.269912 -1.143670 0
M  V30 31 H 0.444432 -6.564335 0.172869 0
M  V30 32 H 2.067050 -2.633654 -0.603511 0
M  V30 33 H -0.113120 0.730686 -1.005441 0
M  V30 34 H 0.821875 2.499096 -2.411957 0
M  V30 35 H 4.679676 1.196310 -1.316933 0
M  V30 36 H 3.795242 -0.551798 0.074977 0
M  V30 37 H 2.120599 1.245359 2.302510 0
M  V30 38 H 1.443620 3.609468 2.829415 0
M  V30 39 H -0.853137 4.338017 2.719433 0
M  V30 40 H -3.167444 3.867729 2.296137 0
M  V30 41 H -4.935513 2.274895 1.648798 0
M  V30 42 H -4.336444 -0.034730 1.124724 0
M  V30 43 H -2.021769 -0.826531 1.223657 0
M  V30 END ATOM
M  V30 BEGIN BOND
M  V30 1 1 1 2
M  V30 2 1 2 3
M  V30 3 1 2 4
M  V30 4 2 4 5
M  V30 5 1 5 6
M  V30 6 1 6 7
M  V30 7 2 7 8
M  V30 8 1 8 9
M  V30 9 2 9 10
M  V30 10 1 10 11
M  V30 11 2 11 12
M  V30 12 2 6 13
M  V30 13 1 13 14
M  V30 14 2 14 15
M  V30 15 1 15 16
M  V30 16 2 16 17
M  V30 17 1 17 18
M  V30 18 2 18 19
M  V30 19 1 19 20
M  V30 20 2 20 21
M  V30 21 1 21 22
M  V30 22 2 22 23
M  V30 23 1 13 24
M  V30 24 2 24 25
M  V30 25 1 25 4
M  V30 26 1 12 7
M  V30 27 1 23 14
M  V30 28 1 23 18
M  V30 29 1 1 26
M  V30 30 1 1 27
M  V30 31 1 1 28
M  V30 32 1 3 29
M  V30 33 1 3 30
M  V30 34 1 3 31
M  V30 35 1 5 32
M  V30 36 1 8 33
M  V30 37 1 9 34
M  V30 38 1 11 35
M  V30 39 1 12 36
M  V30 40 1 15 37
M  V30 41 1 16 38
M  V30 42 1 17 39
M  V30 43 1 19 40
M  V30 44 1 20 41
M  V30 45 1 21 42
M  V30 46 1 22 43
M  V30 END BOND
M  V30 END CTAB
M  END
>  <Dataset>  (499) 
ChEMBL_Kinases

>  <Ligand_Instance>  (499) 
nan

>  <PDB_ID>  (499) 
nan

>  <Standardized_SMILES>  (499) 
CN(C)c1cc(-c2ccncc2)c(-c2cccc3ccccc23)nn1

>  <Name>  (499) 
nan

>  <Pocket>  (499) 
nan

>  <ATP_Site>  (499) 
nan

>  <Peripheral>  (499) 
nan

>  <Num_H_Atoms_ProtBoundConf>  (499) 
nan

>  <Num_Resolved_Atoms>  (499) 
nan

>  <Num_Not_Resolved_Atoms>  (499) 
nan

$$$$
CHEMBL2062936
     RDKit          3D

  0  0  0  0  0  0  0  0  0  0999 V3000
M  V30 BEGIN CTAB
M  V30 COUNTS 42 45 0 0 0
M  V30 BEGIN ATOM
M  V30 1 O 0.591409 -5.157688 1.274624 0
M  V30 2 C 1.830163 -4.562170 1.475076 0 CFG=1
M  V30 3 C 2.450731 -4.422141 0.078061 0
M  V30 4 C 1.347035 -3.820411 -0.749385 0
M  V30 5 C 0.955277 -2.430648 -0.334268 0 CFG=2
M  V30 6 N 1.869115 -1.490882 -0.974050 0
M  V30 7 C 1.812906 -0.059554 -0.874376 0
M  V30 8 N 2.719377 0.742951 -1.501856 0
M  V30 9 C 2.626280 2.075509 -1.385036 0
M  V30 10 Cl 3.841742 3.001201 -2.231922 0
M  V30 11 C 1.643438 2.690684 -0.649757 0
M  V30 12 C 0.727932 1.867334 -0.016590 0
M  V30 13 C -0.323383 2.509657 0.766280 0
M  V30 14 C -0.521853 3.859090 0.970657 0
M  V30 15 N -1.598721 4.062654 1.750201 0
M  V30 16 C -2.149259 2.881745 2.089230 0
M  V30 17 N -3.218068 2.525086 2.836570 0
M  V30 18 C -3.544385 1.227097 3.009233 0
M  V30 19 C -2.803870 0.204378 2.432149 0
M  V30 20 C -1.722038 0.620179 1.678280 0
M  V30 21 C -1.355348 1.932177 1.477488 0
M  V30 22 N 0.848833 0.535615 -0.153473 0
M  V30 23 C 0.858457 -2.249255 1.148460 0
M  V30 24 C 1.681493 -3.174064 1.984304 0
M  V30 25 H -0.153699 -4.563800 1.498195 0
M  V30 26 H 2.480889 -5.113704 2.152447 0
M  V30 27 H 2.746768 -5.372811 -0.358676 0
M  V30 28 H 3.260241 -3.675843 0.143567 0
M  V30 29 H 0.477789 -4.508976 -0.773139 0
M  V30 30 H 1.713252 -3.780838 -1.800795 0
M  V30 31 H -0.048044 -2.223984 -0.763128 0
M  V30 32 H 2.661508 -1.856385 -1.576496 0
M  V30 33 H 1.660176 3.767886 -0.621966 0
M  V30 34 H 0.098733 4.652647 0.563562 0
M  V30 35 H -1.964113 5.004999 2.055146 0
M  V30 36 H -4.419668 0.997404 3.624179 0
M  V30 37 H -3.056456 -0.835587 2.564114 0
M  V30 38 H -1.120051 -0.137040 1.211693 0
M  V30 39 H 1.202605 -1.222430 1.388526 0
M  V30 40 H -0.188614 -2.325409 1.505574 0
M  V30 41 H 1.238636 -3.226291 3.000078 0
M  V30 42 H 2.707677 -2.740928 2.118933 0
M  V30 END ATOM
M  V30 BEGIN BOND
M  V30 1 1 1 2
M  V30 2 1 2 3
M  V30 3 1 3 4
M  V30 4 1 4 5
M  V30 5 1 5 6
M  V30 6 1 6 7
M  V30 7 2 7 8
M  V30 8 1 8 9
M  V30 9 1 9 10
M  V30 10 2 9 11
M  V30 11 1 11 12
M  V30 12 1 12 13
M  V30 13 2 13 14
M  V30 14 1 14 15
M  V30 15 1 15 16
M  V30 16 2 16 17
M  V30 17 1 17 18
M  V30 18 2 18 19
M  V30 19 1 19 20
M  V30 20 2 20 21
M  V30 21 2 12 22
M  V30 22 1 5 23
M  V30 23 1 23 24
M  V30 24 1 24 2
M  V30 25 1 22 7
M  V30 26 1 21 13
M  V30 27 1 21 16
M  V30 28 1 1 25
M  V30 29 1 2 26 CFG=1
M  V30 30 1 3 27
M  V30 31 1 3 28
M  V30 32 1 4 29
M  V30 33 1 4 30
M  V30 34 1 5 31 CFG=3
M  V30 35 1 6 32
M  V30 36 1 11 33
M  V30 37 1 14 34
M  V30 38 1 15 35
M  V30 39 1 18 36
M  V30 40 1 19 37
M  V30 41 1 20 38
M  V30 42 1 23 39
M  V30 43 1 23 40
M  V30 44 1 24 41
M  V30 45 1 24 42
M  V30 END BOND
M  V30 END CTAB
M  END
>  <Dataset>  (500) 
ChEMBL_Kinases

>  <Ligand_Instance>  (500) 
nan

>  <PDB_ID>  (500) 
nan

>  <Standardized_SMILES>  (500) 
O[C@H]1CC[C@H](Nc2nc(Cl)cc(-c3c[nH]c4ncccc34)n2)CC1

>  <Name>  (500) 
nan

>  <Pocket>  (500) 
nan

>  <ATP_Site>  (500) 
nan

>  <Peripheral>  (500) 
nan

>  <Num_H_Atoms_ProtBoundConf>  (500) 
nan

>  <Num_Resolved_Atoms>  (500) 
nan

>  <Num_Not_Resolved_Atoms>  (500) 
nan

$$$$
CHEMBL4649864
     RDKit          3D

  0  0  0  0  0  0  0  0  0  0999 V3000
M  V30 BEGIN CTAB
M  V30 COUNTS 40 43 0 0 0
M  V30 BEGIN ATOM
M  V30 1 C 1.102475 -6.459296 -0.569236 0
M  V30 2 O 0.523325 -5.211063 -0.803344 0
M  V30 3 C 1.202667 -4.145798 -1.370178 0
M  V30 4 C 2.523603 -4.185526 -1.770086 0
M  V30 5 C 3.133432 -3.077741 -2.329323 0
M  V30 6 C 2.366177 -1.918113 -2.475112 0
M  V30 7 C 1.040904 -1.874882 -2.075004 0
M  V30 8 C 0.431711 -0.542619 -2.328399 0
M  V30 9 N 0.606824 0.363074 -1.182317 0
M  V30 10 C 1.733018 1.092267 -1.230013 0
M  V30 11 N 1.909038 1.925622 -0.189020 0
M  V30 12 C 0.986947 1.989554 0.813345 0
M  V30 13 S 0.900361 2.999306 2.370330 0
M  V30 14 C -0.653241 2.295938 2.877065 0
M  V30 15 C -1.304107 2.716672 4.131947 0
M  V30 16 C -0.669322 3.672056 4.898316 0
M  V30 17 C -1.354233 4.010896 6.067437 0
M  V30 18 N -2.515250 3.455689 6.403116 0
M  V30 19 C -3.100081 2.528058 5.627937 0
M  V30 20 F -4.287669 2.008228 6.041363 0
M  V30 21 C -2.488908 2.125823 4.439138 0
M  V30 22 C -0.979161 1.426038 1.930629 0
M  V30 23 C -0.164843 1.234890 0.849146 0
M  V30 24 C -0.331156 0.384009 -0.226979 0
M  V30 25 O -1.331277 -0.365202 -0.332912 0
M  V30 26 C 0.443970 -2.987729 -1.518132 0
M  V30 27 H 0.966688 -7.179881 -1.424546 0
M  V30 28 H 2.187268 -6.447991 -0.383624 0
M  V30 29 H 0.599350 -6.986931 0.292804 0
M  V30 30 H 3.076037 -5.105819 -1.636723 0
M  V30 31 H 4.171190 -3.151693 -2.629291 0
M  V30 32 H 2.936766 -1.110501 -2.922223 0
M  V30 33 H -0.667035 -0.699095 -2.446973 0
M  V30 34 H 0.769528 -0.093233 -3.266504 0
M  V30 35 H 2.512349 1.123221 -1.953318 0
M  V30 36 H 0.273700 4.144941 4.657618 0
M  V30 37 H -0.872008 4.766627 6.693273 0
M  V30 38 H -2.962098 1.384757 3.825755 0
M  V30 39 H -1.923348 0.897065 2.090657 0
M  V30 40 H -0.590112 -2.850064 -1.240793 0
M  V30 END ATOM
M  V30 BEGIN BOND
M  V30 1 1 1 2
M  V30 2 1 2 3
M  V30 3 2 3 4
M  V30 4 1 4 5
M  V30 5 2 5 6
M  V30 6 1 6 7
M  V30 7 1 7 8
M  V30 8 1 8 9
M  V30 9 1 9 10
M  V30 10 2 10 11
M  V30 11 1 11 12
M  V30 12 1 12 13
M  V30 13 1 13 14
M  V30 14 1 14 15
M  V30 15 2 15 16
M  V30 16 1 16 17
M  V30 17 2 17 18
M  V30 18 1 18 19
M  V30 19 1 19 20
M  V30 20 2 19 21
M  V30 21 2 14 22
M  V30 22 1 22 23
M  V30 23 1 23 24
M  V30 24 2 24 25
M  V30 25 2 7 26
M  V30 26 1 26 3
M  V30 27 1 24 9
M  V30 28 2 23 12
M  V30 29 1 21 15
M  V30 30 1 1 27
M  V30 31 1 1 28
M  V30 32 1 1 29
M  V30 33 1 4 30
M  V30 34 1 5 31
M  V30 35 1 6 32
M  V30 36 1 8 33
M  V30 37 1 8 34
M  V30 38 1 10 35
M  V30 39 1 16 36
M  V30 40 1 17 37
M  V30 41 1 21 38
M  V30 42 1 22 39
M  V30 43 1 26 40
M  V30 END BOND
M  V30 END CTAB
M  END
>  <Dataset>  (501) 
ChEMBL_Kinases

>  <Ligand_Instance>  (501) 
nan

>  <PDB_ID>  (501) 
nan

>  <Standardized_SMILES>  (501) 
COc1cccc(Cn2cnc3sc(-c4ccnc(F)c4)cc3c2=O)c1

>  <Name>  (501) 
nan

>  <Pocket>  (501) 
nan

>  <ATP_Site>  (501) 
nan

>  <Peripheral>  (501) 
nan

>  <Num_H_Atoms_ProtBoundConf>  (501) 
nan

>  <Num_Resolved_Atoms>  (501) 
nan

>  <Num_Not_Resolved_Atoms>  (501) 
nan

$$$$
CHEMBL1276127
     RDKit          3D

  0  0  0  0  0  0  0  0  0  0999 V3000
M  V30 BEGIN CTAB
M  V30 COUNTS 30 33 0 0 0
M  V30 BEGIN ATOM
M  V30 1 O 2.614648 0.509986 2.778979 0
M  V30 2 C 2.357959 -0.582352 2.246409 0
M  V30 3 N 3.160217 -1.741674 2.425099 0
M  V30 4 C 2.514068 -2.766772 1.644787 0
M  V30 5 C 2.999770 -4.071157 1.557218 0
M  V30 6 C 2.322947 -4.992600 0.789338 0
M  V30 7 C 1.166407 -4.560458 0.129155 0
M  V30 8 C 0.766982 -3.254114 0.277086 0
M  V30 9 C 1.387206 -2.314891 1.011564 0
M  V30 10 C 1.259321 -0.938558 1.370189 0
M  V30 11 C 0.317925 -0.140472 0.977805 0
M  V30 12 N 0.166741 1.224034 1.316419 0
M  V30 13 C -0.975543 1.827603 0.721779 0
M  V30 14 C -1.430215 3.122584 0.827719 0
M  V30 15 C -2.578158 3.406097 0.125184 0
M  V30 16 C -3.253139 2.484080 -0.641575 0
M  V30 17 C -2.718991 1.218783 -0.682860 0
M  V30 18 C -1.568905 0.800977 -0.022464 0
M  V30 19 C -0.791840 -0.412573 0.121210 0
M  V30 20 O -1.226615 -1.371166 -0.491153 0
M  V30 21 H 4.023971 -1.788660 3.007739 0
M  V30 22 H 3.880991 -4.421324 2.053445 0
M  V30 23 H 2.682659 -6.004696 0.709514 0
M  V30 24 H 0.682561 -5.339911 -0.459013 0
M  V30 25 H -0.103327 -3.103798 -0.276520 0
M  V30 26 H 0.835649 1.717819 1.939857 0
M  V30 27 H -0.911779 3.851343 1.423331 0
M  V30 28 H -2.969481 4.402798 0.178079 0
M  V30 29 H -4.154858 2.723335 -1.188047 0
M  V30 30 H -3.254297 0.498595 -1.287367 0
M  V30 END ATOM
M  V30 BEGIN BOND
M  V30 1 2 1 2
M  V30 2 1 2 3
M  V30 3 1 3 4
M  V30 4 2 4 5
M  V30 5 1 5 6
M  V30 6 2 6 7
M  V30 7 1 7 8
M  V30 8 2 8 9
M  V30 9 1 9 10
M  V30 10 2 10 11
M  V30 11 1 11 12
M  V30 12 1 12 13
M  V30 13 2 13 14
M  V30 14 1 14 15
M  V30 15 2 15 16
M  V30 16 1 16 17
M  V30 17 2 17 18
M  V30 18 1 18 19
M  V30 19 2 19 20
M  V30 20 1 10 2
M  V30 21 1 19 11
M  V30 22 1 9 4
M  V30 23 1 18 13
M  V30 24 1 3 21
M  V30 25 1 5 22
M  V30 26 1 6 23
M  V30 27 1 7 24
M  V30 28 1 8 25
M  V30 29 1 12 26
M  V30 30 1 14 27
M  V30 31 1 15 28
M  V30 32 1 16 29
M  V30 33 1 17 30
M  V30 END BOND
M  V30 END CTAB
M  END
>  <Dataset>  (502) 
ChEMBL_Kinases

>  <Ligand_Instance>  (502) 
nan

>  <PDB_ID>  (502) 
nan

>  <Standardized_SMILES>  (502) 
O=C1Nc2ccccc2/C1=C1/Nc2ccccc2C1=O

>  <Name>  (502) 
INDIRUBIN

>  <Pocket>  (502) 
nan

>  <ATP_Site>  (502) 
nan

>  <Peripheral>  (502) 
nan

>  <Num_H_Atoms_ProtBoundConf>  (502) 
nan

>  <Num_Resolved_Atoms>  (502) 
nan

>  <Num_Not_Resolved_Atoms>  (502) 
nan

$$$$
CHEMBL204757
     RDKit          3D

  0  0  0  0  0  0  0  0  0  0999 V3000
M  V30 BEGIN CTAB
M  V30 COUNTS 56 59 0 0 0
M  V30 BEGIN ATOM
M  V30 1 C 0.822132 -3.104578 3.789994 0
M  V30 2 C 2.299604 -3.073661 3.840519 0
M  V30 3 O 2.989292 -2.653217 4.810548 0
M  V30 4 N 3.242772 -3.479719 2.879957 0
M  V30 5 C 4.636162 -3.313018 3.247083 0
M  V30 6 C 5.093820 -2.071339 2.468262 0
M  V30 7 C 4.424070 -1.989322 1.133884 0
M  V30 8 C 3.149405 -1.236842 1.121023 0
M  V30 9 O 2.018803 -1.729787 0.779544 0
M  V30 10 N 3.005085 0.151187 1.490043 0
M  V30 11 C 1.605061 0.475062 1.332911 0
M  V30 12 C 1.131173 0.948923 0.145190 0
M  V30 13 C -0.220808 1.227696 0.091830 0
M  V30 14 C -0.867838 1.742048 -1.112715 0
M  V30 15 C -0.181910 2.573027 -2.001505 0
M  V30 16 C -0.869667 3.011048 -3.112105 0
M  V30 17 N -2.140167 2.683526 -3.373972 0
M  V30 18 C -2.849537 1.888963 -2.557149 0
M  V30 19 N -4.184665 1.594519 -2.877995 0
M  V30 20 C -5.173368 0.740536 -2.361326 0
M  V30 21 C -6.543779 1.029100 -2.380723 0
M  V30 22 C -7.491457 0.188121 -1.895923 0
M  V30 23 C -7.135847 -1.018949 -1.348976 0
M  V30 24 C -5.795008 -1.366530 -1.299155 0
M  V30 25 C -4.874358 -0.484139 -1.801688 0
M  V30 26 C -2.173242 1.444821 -1.443206 0
M  V30 27 C -1.058858 1.043683 1.167745 0
M  V30 28 C -0.513933 0.561008 2.340341 0
M  V30 29 N 0.802907 0.284863 2.406820 0
M  V30 30 C 4.064525 -3.387426 0.612973 0
M  V30 31 C 3.066838 -4.055504 1.538071 0
M  V30 32 H 0.453017 -4.079695 4.164903 0
M  V30 33 H 0.438189 -2.914781 2.767687 0
M  V30 34 H 0.433993 -2.320259 4.475398 0
M  V30 35 H 4.787351 -3.126600 4.319531 0
M  V30 36 H 5.214164 -4.203475 2.905369 0
M  V30 37 H 6.211223 -2.091187 2.346291 0
M  V30 38 H 4.884469 -1.211002 3.140209 0
M  V30 39 H 5.092050 -1.546739 0.365009 0
M  V30 40 H 3.869475 0.655098 1.786530 0
M  V30 41 H 1.756623 1.105317 -0.715851 0
M  V30 42 H 0.844589 2.849583 -1.809282 0
M  V30 43 H -0.348470 3.660705 -3.816097 0
M  V30 44 H -4.598364 2.112750 -3.705010 0
M  V30 45 H -6.819150 1.991455 -2.817455 0
M  V30 46 H -8.526232 0.498383 -1.954788 0
M  V30 47 H -7.943552 -1.633622 -0.984348 0
M  V30 48 H -5.598576 -2.322922 -0.858511 0
M  V30 49 H -3.890166 -0.874954 -1.715251 0
M  V30 50 H -2.657179 0.822599 -0.736036 0
M  V30 51 H -2.106389 1.241614 1.183259 0
M  V30 52 H -1.100517 0.387524 3.232351 0
M  V30 53 H 4.970276 -3.989314 0.475552 0
M  V30 54 H 3.588442 -3.272690 -0.381837 0
M  V30 55 H 2.034840 -4.029574 1.190438 0
M  V30 56 H 3.356191 -5.138179 1.634482 0
M  V30 END ATOM
M  V30 BEGIN BOND
M  V30 1 1 1 2
M  V30 2 2 2 3
M  V30 3 1 2 4
M  V30 4 1 4 5
M  V30 5 1 5 6
M  V30 6 1 6 7
M  V30 7 1 7 8
M  V30 8 2 8 9
M  V30 9 1 8 10
M  V30 10 1 10 11
M  V30 11 2 11 12
M  V30 12 1 12 13
M  V30 13 1 13 14
M  V30 14 2 14 15
M  V30 15 1 15 16
M  V30 16 2 16 17
M  V30 17 1 17 18
M  V30 18 1 18 19
M  V30 19 1 19 20
M  V30 20 2 20 21
M  V30 21 1 21 22
M  V30 22 2 22 23
M  V30 23 1 23 24
M  V30 24 2 24 25
M  V30 25 2 18 26
M  V30 26 2 13 27
M  V30 27 1 27 28
M  V30 28 2 28 29
M  V30 29 1 7 30
M  V30 30 1 30 31
M  V30 31 1 31 4
M  V30 32 1 29 11
M  V30 33 1 26 14
M  V30 34 1 25 20
M  V30 35 1 1 32
M  V30 36 1 1 33
M  V30 37 1 1 34
M  V30 38 1 5 35
M  V30 39 1 5 36
M  V30 40 1 6 37
M  V30 41 1 6 38
M  V30 42 1 7 39
M  V30 43 1 10 40
M  V30 44 1 12 41
M  V30 45 1 15 42
M  V30 46 1 16 43
M  V30 47 1 19 44
M  V30 48 1 21 45
M  V30 49 1 22 46
M  V30 50 1 23 47
M  V30 51 1 24 48
M  V30 52 1 25 49
M  V30 53 1 26 50
M  V30 54 1 27 51
M  V30 55 1 28 52
M  V30 56 1 30 53
M  V30 57 1 30 54
M  V30 58 1 31 55
M  V30 59 1 31 56
M  V30 END BOND
M  V30 END CTAB
M  END
>  <Dataset>  (503) 
ChEMBL_Kinases

>  <Ligand_Instance>  (503) 
nan

>  <PDB_ID>  (503) 
nan

>  <Standardized_SMILES>  (503) 
CC(=O)N1CCC(C(=O)Nc2cc(-c3ccnc(Nc4ccccc4)c3)ccn2)CC1

>  <Name>  (503) 
nan

>  <Pocket>  (503) 
nan

>  <ATP_Site>  (503) 
nan

>  <Peripheral>  (503) 
nan

>  <Num_H_Atoms_ProtBoundConf>  (503) 
nan

>  <Num_Resolved_Atoms>  (503) 
nan

>  <Num_Not_Resolved_Atoms>  (503) 
nan

$$$$
CHEMBL4650280
     RDKit          3D

  0  0  0  0  0  0  0  0  0  0999 V3000
M  V30 BEGIN CTAB
M  V30 COUNTS 58 61 0 0 0
M  V30 BEGIN ATOM
M  V30 1 C 2.738118 -2.121274 1.249906 0
M  V30 2 C 2.480147 -0.776510 1.826080 0
M  V30 3 C 2.995576 -0.534514 3.081378 0
M  V30 4 N 2.816711 0.646549 3.685211 0
M  V30 5 C 2.125882 1.664910 3.106000 0
M  V30 6 N 1.956328 2.904925 3.778584 0
M  V30 7 C 1.223878 3.960197 3.142271 0
M  V30 8 C 1.817113 4.420300 1.830284 0
M  V30 9 C 0.798588 5.372277 1.204234 0
M  V30 10 O 0.668625 6.478013 2.038317 0
M  V30 11 C 0.137426 6.137895 3.279783 0
M  V30 12 C 1.071034 5.180568 3.995872 0
M  V30 13 N 1.634906 1.413166 1.892807 0
M  V30 14 C 1.783028 0.247323 1.238466 0
M  V30 15 N 1.253356 -0.010536 -0.059092 0
M  V30 16 C 1.497208 0.562056 -1.271992 0
M  V30 17 N 0.731569 -0.046086 -2.209075 0
M  V30 18 C -0.016064 -1.011491 -1.642038 0
M  V30 19 C -0.970858 -1.899098 -2.295629 0
M  V30 20 O -1.138692 -1.772518 -3.539650 0
M  V30 21 N -1.665295 -2.859227 -1.514204 0
M  V30 22 C -2.634641 -3.782698 -2.088760 0 CFG=2
M  V30 23 C -4.003404 -3.599504 -1.473281 0
M  V30 24 N -4.993702 -4.505311 -2.024708 0
M  V30 25 C -2.093201 -5.141006 -1.824729 0
M  V30 26 C -1.580655 -5.498848 -0.601093 0
M  V30 27 C -1.068718 -6.775095 -0.343285 0
M  V30 28 F -0.562836 -7.129964 0.862681 0
M  V30 29 C -1.113631 -7.653846 -1.405723 0
M  V30 30 C -1.610133 -7.375128 -2.662334 0
M  V30 31 Cl -1.612962 -8.577909 -3.933583 0
M  V30 32 C -2.102309 -6.077196 -2.835729 0
M  V30 33 C 0.322531 -0.973908 -0.304762 0
M  V30 34 H 2.278631 -2.931963 1.864014 0
M  V30 35 H 3.848892 -2.283993 1.254949 0
M  V30 36 H 2.439169 -2.132653 0.200299 0
M  V30 37 H 3.559762 -1.217770 3.676368 0
M  V30 38 H 2.371723 3.018412 4.725695 0
M  V30 39 H 0.197445 3.589704 2.885371 0
M  V30 40 H 2.674854 5.082893 2.114198 0
M  V30 41 H 2.102824 3.621975 1.148248 0
M  V30 42 H 1.165325 5.772060 0.230159 0
M  V30 43 H -0.135132 4.790736 1.079049 0
M  V30 44 H 0.014483 7.094072 3.838426 0
M  V30 45 H -0.823563 5.602504 3.134305 0
M  V30 46 H 0.664679 4.963071 5.002557 0
M  V30 47 H 2.060506 5.702961 4.050319 0
M  V30 48 H 2.210246 1.372816 -1.374153 0
M  V30 49 H -1.470612 -2.896467 -0.508530 0
M  V30 50 H -2.741711 -3.627225 -3.181579 0
M  V30 51 H -3.884856 -3.908731 -0.394364 0
M  V30 52 H -4.331567 -2.559236 -1.468242 0
M  V30 53 H -5.850246 -3.961446 -2.281623 0
M  V30 54 H -4.595080 -5.016616 -2.853212 0
M  V30 55 H -1.552432 -4.798667 0.222105 0
M  V30 56 H -0.723216 -8.671845 -1.256022 0
M  V30 57 H -2.493835 -5.857841 -3.827134 0
M  V30 58 H -0.126599 -1.651114 0.423849 0
M  V30 END ATOM
M  V30 BEGIN BOND
M  V30 1 1 1 2
M  V30 2 2 2 3
M  V30 3 1 3 4
M  V30 4 2 4 5
M  V30 5 1 5 6
M  V30 6 1 6 7
M  V30 7 1 7 8
M  V30 8 1 8 9
M  V30 9 1 9 10
M  V30 10 1 10 11
M  V30 11 1 11 12
M  V30 12 1 5 13
M  V30 13 2 13 14
M  V30 14 1 14 15
M  V30 15 1 15 16
M  V30 16 2 16 17
M  V30 17 1 17 18
M  V30 18 1 18 19
M  V30 19 2 19 20
M  V30 20 1 19 21
M  V30 21 1 21 22
M  V30 22 1 22 23
M  V30 23 1 23 24
M  V30 24 1 22 25
M  V30 25 2 25 26
M  V30 26 1 26 27
M  V30 27 1 27 28
M  V30 28 2 27 29
M  V30 29 1 29 30
M  V30 30 1 30 31
M  V30 31 2 30 32
M  V30 32 2 18 33
M  V30 33 1 14 2
M  V30 34 1 33 15
M  V30 35 1 12 7
M  V30 36 1 32 25
M  V30 37 1 1 34
M  V30 38 1 1 35
M  V30 39 1 1 36
M  V30 40 1 3 37
M  V30 41 1 6 38
M  V30 42 1 7 39
M  V30 43 1 8 40
M  V30 44 1 8 41
M  V30 45 1 9 42
M  V30 46 1 9 43
M  V30 47 1 11 44
M  V30 48 1 11 45
M  V30 49 1 12 46
M  V30 50 1 12 47
M  V30 51 1 16 48
M  V30 52 1 21 49
M  V30 53 1 22 50 CFG=3
M  V30 54 1 23 51
M  V30 55 1 23 52
M  V30 56 1 24 53
M  V30 57 1 24 54
M  V30 58 1 26 55
M  V30 59 1 29 56
M  V30 60 1 32 57
M  V30 61 1 33 58
M  V30 END BOND
M  V30 END CTAB
M  END
>  <Dataset>  (504) 
ChEMBL_Kinases

>  <Ligand_Instance>  (504) 
nan

>  <PDB_ID>  (504) 
nan

>  <Standardized_SMILES>  (504) 
Cc1cnc(NC2CCOCC2)nc1-n1cnc(C(=O)N[C@H](CN)c2cc(F)cc(Cl)c2)c1

>  <Name>  (504) 
ASN007

>  <Pocket>  (504) 
nan

>  <ATP_Site>  (504) 
nan

>  <Peripheral>  (504) 
nan

>  <Num_H_Atoms_ProtBoundConf>  (504) 
nan

>  <Num_Resolved_Atoms>  (504) 
nan

>  <Num_Not_Resolved_Atoms>  (504) 
nan

$$$$
CHEMBL4650284
     RDKit          3D

  0  0  0  0  0  0  0  0  0  0999 V3000
M  V30 BEGIN CTAB
M  V30 COUNTS 44 48 0 0 0
M  V30 BEGIN ATOM
M  V30 1 O -1.398484 -2.589561 4.257753 0
M  V30 2 C -0.817117 -1.804655 3.467611 0
M  V30 3 N 0.451864 -1.215959 3.747857 0
M  V30 4 C 1.125663 -0.325141 2.866220 0
M  V30 5 C 2.350430 0.245256 3.131212 0
M  V30 6 C 2.972015 1.107051 2.245274 0
M  V30 7 N 4.137833 1.777046 2.271324 0
M  V30 8 N 4.229353 2.469148 1.133255 0
M  V30 9 C 3.114362 2.233887 0.385346 0
M  V30 10 C 2.894753 2.840111 -0.924786 0
M  V30 11 C 2.444154 2.211446 -2.066714 0
M  V30 12 C 2.293818 2.953475 -3.231527 0
M  V30 13 N 2.572884 4.259486 -3.279289 0
M  V30 14 C 3.015731 4.906187 -2.180845 0
M  V30 15 C 3.178311 4.207235 -1.006369 0
M  V30 16 C 2.290767 1.365325 1.071650 0
M  V30 17 C 1.060153 0.806340 0.780245 0
M  V30 18 C 0.450370 -0.063233 1.692437 0
M  V30 19 C -0.856637 -0.556211 1.204905 0
M  V30 20 N -1.392814 -1.441475 2.216978 0
M  V30 21 C -2.699318 -2.041747 1.910599 0
M  V30 22 C -2.596529 -3.317704 1.197152 0
M  V30 23 C -2.569916 -3.290686 -0.202528 0
M  V30 24 C -2.477552 -4.386197 -1.035343 0
M  V30 25 C -2.405058 -5.622677 -0.414255 0
M  V30 26 C -2.426264 -5.721514 0.962414 0
M  V30 27 C -2.520299 -4.585971 1.741436 0
M  V30 28 H 0.900950 -1.461962 4.656684 0
M  V30 29 H 2.817369 -0.012438 4.079474 0
M  V30 30 H 4.792425 1.707478 3.080660 0
M  V30 31 H 2.236494 1.158248 -1.965568 0
M  V30 32 H 1.944950 2.450301 -4.102017 0
M  V30 33 H 3.226117 5.965499 -2.278443 0
M  V30 34 H 3.541086 4.828544 -0.181919 0
M  V30 35 H 0.637311 1.097016 -0.180026 0
M  V30 36 H -1.550843 0.258902 0.938799 0
M  V30 37 H -0.673631 -1.187752 0.289445 0
M  V30 38 H -3.284584 -2.131477 2.854285 0
M  V30 39 H -3.280797 -1.340828 1.276884 0
M  V30 40 H -2.627122 -2.312648 -0.700548 0
M  V30 41 H -2.464755 -4.257936 -2.098021 0
M  V30 42 H -2.330731 -6.525978 -1.010422 0
M  V30 43 H -2.369465 -6.692805 1.457576 0
M  V30 44 H -2.539360 -4.632248 2.818731 0
M  V30 END ATOM
M  V30 BEGIN BOND
M  V30 1 2 1 2
M  V30 2 1 2 3
M  V30 3 1 3 4
M  V30 4 2 4 5
M  V30 5 1 5 6
M  V30 6 1 6 7
M  V30 7 1 7 8
M  V30 8 2 8 9
M  V30 9 1 9 10
M  V30 10 2 10 11
M  V30 11 1 11 12
M  V30 12 2 12 13
M  V30 13 1 13 14
M  V30 14 2 14 15
M  V30 15 1 9 16
M  V30 16 1 16 17
M  V30 17 2 17 18
M  V30 18 1 18 19
M  V30 19 1 19 20
M  V30 20 1 20 21
M  V30 21 1 21 22
M  V30 22 2 22 23
M  V30 23 1 23 24
M  V30 24 2 24 25
M  V30 25 1 25 26
M  V30 26 2 26 27
M  V30 27 1 20 2
M  V30 28 1 27 22
M  V30 29 1 18 4
M  V30 30 2 16 6
M  V30 31 1 15 10
M  V30 32 1 3 28
M  V30 33 1 5 29
M  V30 34 1 7 30
M  V30 35 1 11 31
M  V30 36 1 12 32
M  V30 37 1 14 33
M  V30 38 1 15 34
M  V30 39 1 17 35
M  V30 40 1 19 36
M  V30 41 1 19 37
M  V30 42 1 21 38
M  V30 43 1 21 39
M  V30 44 1 23 40
M  V30 45 1 24 41
M  V30 46 1 25 42
M  V30 47 1 26 43
M  V30 48 1 27 44
M  V30 END BOND
M  V30 END CTAB
M  END
>  <Dataset>  (505) 
ChEMBL_Kinases

>  <Ligand_Instance>  (505) 
nan

>  <PDB_ID>  (505) 
nan

>  <Standardized_SMILES>  (505) 
O=C1Nc2cc3[nH]nc(-c4ccncc4)c3cc2CN1Cc1ccccc1

>  <Name>  (505) 
KO-947

>  <Pocket>  (505) 
nan

>  <ATP_Site>  (505) 
nan

>  <Peripheral>  (505) 
nan

>  <Num_H_Atoms_ProtBoundConf>  (505) 
nan

>  <Num_Resolved_Atoms>  (505) 
nan

>  <Num_Not_Resolved_Atoms>  (505) 
nan

$$$$
CHEMBL4650285
     RDKit          3D

  0  0  0  0  0  0  0  0  0  0999 V3000
M  V30 BEGIN CTAB
M  V30 COUNTS 59 63 0 0 0
M  V30 BEGIN ATOM
M  V30 1 C 5.637626 1.698178 6.756013 0
M  V30 2 N 5.474266 1.237049 5.387130 0
M  V30 3 N 6.075147 0.146582 5.000576 0
M  V30 4 C 5.761088 -0.051660 3.691267 0
M  V30 5 C 4.942821 0.989888 3.346432 0
M  V30 6 C 4.745827 1.827863 4.418770 0
M  V30 7 N 3.961448 3.025461 4.513453 0
M  V30 8 C 3.302564 3.423777 3.297951 0
M  V30 9 N 3.561699 4.613630 2.687527 0
M  V30 10 C 2.868874 4.832143 1.554721 0
M  V30 11 C 1.944680 4.000074 0.957270 0
M  V30 12 C 1.740276 2.819087 1.635455 0
M  V30 13 C 0.778848 1.808114 1.122831 0
M  V30 14 C 0.395706 0.616076 1.507740 0
M  V30 15 C -0.534248 -0.055647 0.768610 0
M  V30 16 C -1.024242 0.546668 -0.342922 0
M  V30 17 S -0.136655 2.142597 -0.354946 0
M  V30 18 C -2.032766 -0.186357 -1.177254 0
M  V30 19 C -1.574929 -0.347832 -2.578792 0
M  V30 20 C -3.318372 0.642701 -1.106866 0
M  V30 21 N -2.174125 -1.391381 -0.390020 0
M  V30 22 C -3.050792 -2.537361 -0.521946 0
M  V30 23 C -2.410966 -3.688592 -1.236782 0
M  V30 24 N -3.262135 -4.849293 -1.377898 0
M  V30 25 C -4.362882 -4.640668 -2.273526 0
M  V30 26 C -4.137211 -5.270976 -3.632851 0
M  V30 27 O -2.825918 -5.132824 -4.062748 0
M  V30 28 C -1.989100 -5.845608 -3.232962 0
M  V30 29 C -2.514924 -5.992195 -1.821097 0
M  V30 30 C -1.272261 -1.316620 0.748199 0
M  V30 31 O -1.135485 -2.243581 1.632542 0
M  V30 32 N 2.405151 2.548262 2.772641 0
M  V30 33 H 6.754868 1.742747 6.917075 0
M  V30 34 H 5.262230 2.716216 6.928736 0
M  V30 35 H 5.284026 0.967548 7.494743 0
M  V30 36 H 6.119746 -0.880630 3.111716 0
M  V30 37 H 4.506187 1.133106 2.351046 0
M  V30 38 H 3.934280 3.501223 5.441658 0
M  V30 39 H 3.086039 5.793554 1.071377 0
M  V30 40 H 1.425558 4.235200 0.050141 0
M  V30 41 H 0.869721 0.260128 2.410494 0
M  V30 42 H -1.975992 0.497842 -3.215799 0
M  V30 43 H -0.462386 -0.146818 -2.583178 0
M  V30 44 H -1.749106 -1.282346 -3.084143 0
M  V30 45 H -3.412317 0.978747 -0.070914 0
M  V30 46 H -4.178488 0.070737 -1.453905 0
M  V30 47 H -3.133227 1.541942 -1.730932 0
M  V30 48 H -3.985281 -2.196278 -1.030496 0
M  V30 49 H -3.297864 -2.910872 0.513641 0
M  V30 50 H -1.494259 -3.952468 -0.639670 0
M  V30 51 H -2.016934 -3.340104 -2.202603 0
M  V30 52 H -5.272222 -5.112597 -1.801343 0
M  V30 53 H -4.570926 -3.561258 -2.346527 0
M  V30 54 H -4.771574 -4.723711 -4.335362 0
M  V30 55 H -4.363986 -6.358044 -3.598661 0
M  V30 56 H -1.798382 -6.831585 -3.704784 0
M  V30 57 H -0.973415 -5.355973 -3.174042 0
M  V30 58 H -3.245395 -6.845731 -1.851991 0
M  V30 59 H -1.711041 -6.323065 -1.145250 0
M  V30 END ATOM
M  V30 BEGIN BOND
M  V30 1 1 1 2
M  V30 2 1 2 3
M  V30 3 2 3 4
M  V30 4 1 4 5
M  V30 5 2 5 6
M  V30 6 1 6 7
M  V30 7 1 7 8
M  V30 8 2 8 9
M  V30 9 1 9 10
M  V30 10 2 10 11
M  V30 11 1 11 12
M  V30 12 1 12 13
M  V30 13 2 13 14
M  V30 14 1 14 15
M  V30 15 2 15 16
M  V30 16 1 16 17
M  V30 17 1 16 18
M  V30 18 1 18 19
M  V30 19 1 18 20
M  V30 20 1 18 21
M  V30 21 1 21 22
M  V30 22 1 22 23
M  V30 23 1 23 24
M  V30 24 1 24 25
M  V30 25 1 25 26
M  V30 26 1 26 27
M  V30 27 1 27 28
M  V30 28 1 28 29
M  V30 29 1 21 30
M  V30 30 2 30 31
M  V30 31 2 12 32
M  V30 32 1 6 2
M  V30 33 1 32 8
M  V30 34 1 17 13
M  V30 35 1 29 24
M  V30 36 1 30 15
M  V30 37 1 1 33
M  V30 38 1 1 34
M  V30 39 1 1 35
M  V30 40 1 4 36
M  V30 41 1 5 37
M  V30 42 1 7 38
M  V30 43 1 10 39
M  V30 44 1 11 40
M  V30 45 1 14 41
M  V30 46 1 19 42
M  V30 47 1 19 43
M  V30 48 1 19 44
M  V30 49 1 20 45
M  V30 50 1 20 46
M  V30 51 1 20 47
M  V30 52 1 22 48
M  V30 53 1 22 49
M  V30 54 1 23 50
M  V30 55 1 23 51
M  V30 56 1 25 52
M  V30 57 1 25 53
M  V30 58 1 26 54
M  V30 59 1 26 55
M  V30 60 1 28 56
M  V30 61 1 28 57
M  V30 62 1 29 58
M  V30 63 1 29 59
M  V30 END BOND
M  V30 END CTAB
M  END
>  <Dataset>  (506) 
ChEMBL_Kinases

>  <Ligand_Instance>  (506) 
nan

>  <PDB_ID>  (506) 
nan

>  <Standardized_SMILES>  (506) 
Cn1nccc1Nc1nccc(-c2cc3c(s2)C(C)(C)N(CCN2CCOCC2)C3=O)n1

>  <Name>  (506) 
TEMUTERKIB

>  <Pocket>  (506) 
nan

>  <ATP_Site>  (506) 
nan

>  <Peripheral>  (506) 
nan

>  <Num_H_Atoms_ProtBoundConf>  (506) 
nan

>  <Num_Resolved_Atoms>  (506) 
nan

>  <Num_Not_Resolved_Atoms>  (506) 
nan

$$$$
CHEMBL204232
     RDKit          3D

  0  0  0  0  0  0  0  0  0  0999 V3000
M  V30 BEGIN CTAB
M  V30 COUNTS 52 55 0 0 0
M  V30 BEGIN ATOM
M  V30 1 C 4.328013 -2.849383 2.105167 0
M  V30 2 C 3.550793 -1.608915 1.779791 0
M  V30 3 O 2.957092 -1.105453 2.786622 0
M  V30 4 N 3.404657 -0.951431 0.519464 0
M  V30 5 C 2.560476 0.187653 0.755059 0
M  V30 6 C 3.072577 1.418107 1.105539 0
M  V30 7 C 4.516361 1.579240 1.244160 0
M  V30 8 C 5.155885 2.845966 1.612796 0
M  V30 9 O 5.199500 0.529575 1.020384 0
M  V30 10 C 2.158815 2.426965 1.303162 0
M  V30 11 O 2.578059 3.568211 1.624434 0
M  V30 12 N 0.829628 2.198572 1.155118 0
M  V30 13 C -0.082345 3.309633 1.379278 0
M  V30 14 C 0.293617 1.008327 0.813414 0
M  V30 15 N -1.045730 0.898799 0.695609 0
M  V30 16 C -1.582583 -0.309261 0.349749 0
M  V30 17 C -3.037790 -0.391093 0.232326 0
M  V30 18 C -3.475122 -0.718281 -1.045736 0
M  V30 19 C -4.821037 -0.839504 -1.341934 0
M  V30 20 C -5.730752 -0.625471 -0.326657 0
M  V30 21 Cl -7.455611 -0.762305 -0.629578 0
M  V30 22 C -5.318533 -0.304069 0.931388 0
M  V30 23 C -3.971118 -0.182743 1.227662 0
M  V30 24 Cl -3.321492 0.225006 2.803004 0
M  V30 25 C -0.734176 -1.375585 0.132967 0
M  V30 26 C -1.308118 -2.666854 -0.237425 0
M  V30 27 C -2.152968 -3.280541 0.688518 0
M  V30 28 C -2.734169 -4.504735 0.408458 0
M  V30 29 C -2.508826 -5.166569 -0.782727 0
M  V30 30 Cl -3.236238 -6.716967 -1.154380 0
M  V30 31 C -1.666822 -4.550559 -1.700549 0
M  V30 32 C -1.075836 -3.332237 -1.445907 0
M  V30 33 C 0.640395 -1.239903 0.259821 0
M  V30 34 C 1.182755 -0.014911 0.610441 0
M  V30 35 H 5.235997 -2.595524 2.702498 0
M  V30 36 H 4.586045 -3.432081 1.201420 0
M  V30 37 H 3.669658 -3.492638 2.724993 0
M  V30 38 H 3.930148 -1.440182 -0.249738 0
M  V30 39 H 4.814238 3.672150 0.954531 0
M  V30 40 H 6.256330 2.744164 1.406992 0
M  V30 41 H 4.985651 3.024298 2.685869 0
M  V30 42 H -0.094887 3.865553 0.401305 0
M  V30 43 H 0.246978 3.984364 2.185672 0
M  V30 44 H -1.123493 2.944180 1.501662 0
M  V30 45 H -2.801812 -0.898036 -1.884307 0
M  V30 46 H -5.226211 -1.090254 -2.310637 0
M  V30 47 H -5.967000 -0.126492 1.757877 0
M  V30 48 H -2.384794 -2.835806 1.643559 0
M  V30 49 H -3.400121 -5.026891 1.094722 0
M  V30 50 H -1.440039 -5.003441 -2.655417 0
M  V30 51 H -0.410322 -2.827001 -2.150790 0
M  V30 52 H 1.318612 -2.062186 0.094041 0
M  V30 END ATOM
M  V30 BEGIN BOND
M  V30 1 1 1 2
M  V30 2 2 2 3
M  V30 3 1 2 4
M  V30 4 1 4 5
M  V30 5 2 5 6
M  V30 6 1 6 7
M  V30 7 1 7 8
M  V30 8 2 7 9
M  V30 9 1 6 10
M  V30 10 2 10 11
M  V30 11 1 10 12
M  V30 12 1 12 13
M  V30 13 1 12 14
M  V30 14 2 14 15
M  V30 15 1 15 16
M  V30 16 1 16 17
M  V30 17 2 17 18
M  V30 18 1 18 19
M  V30 19 2 19 20
M  V30 20 1 20 21
M  V30 21 1 20 22
M  V30 22 2 22 23
M  V30 23 1 23 24
M  V30 24 2 16 25
M  V30 25 1 25 26
M  V30 26 2 26 27
M  V30 27 1 27 28
M  V30 28 2 28 29
M  V30 29 1 29 30
M  V30 30 1 29 31
M  V30 31 2 31 32
M  V30 32 1 25 33
M  V30 33 2 33 34
M  V30 34 1 34 5
M  V30 35 1 34 14
M  V30 36 1 23 17
M  V30 37 1 32 26
M  V30 38 1 1 35
M  V30 39 1 1 36
M  V30 40 1 1 37
M  V30 41 1 4 38
M  V30 42 1 8 39
M  V30 43 1 8 40
M  V30 44 1 8 41
M  V30 45 1 13 42
M  V30 46 1 13 43
M  V30 47 1 13 44
M  V30 48 1 18 45
M  V30 49 1 19 46
M  V30 50 1 22 47
M  V30 51 1 27 48
M  V30 52 1 28 49
M  V30 53 1 31 50
M  V30 54 1 32 51
M  V30 55 1 33 52
M  V30 END BOND
M  V30 END CTAB
M  END
>  <Dataset>  (507) 
ChEMBL_Kinases

>  <Ligand_Instance>  (507) 
nan

>  <PDB_ID>  (507) 
nan

>  <Standardized_SMILES>  (507) 
CC(=O)Nc1c(C(C)=O)c(=O)n(C)c2nc(-c3ccc(Cl)cc3Cl)c(-c3ccc(Cl)cc3)cc12

>  <Name>  (507) 
NAPHTHYRIDINONE

>  <Pocket>  (507) 
nan

>  <ATP_Site>  (507) 
nan

>  <Peripheral>  (507) 
nan

>  <Num_H_Atoms_ProtBoundConf>  (507) 
nan

>  <Num_Resolved_Atoms>  (507) 
nan

>  <Num_Not_Resolved_Atoms>  (507) 
nan

$$$$
CHEMBL466036
     RDKit          3D

  0  0  0  0  0  0  0  0  0  0999 V3000
M  V30 BEGIN CTAB
M  V30 COUNTS 46 49 0 0 0
M  V30 BEGIN ATOM
M  V30 1 C -5.862195 -0.080151 0.818241 0
M  V30 2 O -4.708933 -0.811218 0.444010 0
M  V30 3 C -3.507060 -0.117166 0.393146 0
M  V30 4 C -3.368144 1.236601 0.683938 0
M  V30 5 C -2.106434 1.839997 0.601497 0
M  V30 6 C -0.964321 1.111505 0.229941 0
M  V30 7 C 0.180096 2.008997 0.229728 0
M  V30 8 C 0.129111 3.255710 -0.407736 0
M  V30 9 N 1.189211 4.066542 -0.399475 0
M  V30 10 C 2.358295 3.776849 0.196263 0
M  V30 11 C 2.418650 2.535201 0.834847 0
M  V30 12 C 3.677320 2.213192 1.481207 0
M  V30 13 N 4.688925 1.948588 2.005346 0
M  V30 14 C 1.345822 1.640493 0.863205 0
M  V30 15 N 1.586140 0.429874 1.554936 0
M  V30 16 C 2.139244 -0.863206 1.323416 0
M  V30 17 C 2.629618 -1.137413 0.065648 0
M  V30 18 C 3.154354 -2.396169 -0.115451 0
M  V30 19 C 3.171539 -3.296598 0.915387 0
M  V30 20 N 3.621081 -4.574394 1.000922 0
M  V30 21 C 3.413705 -5.058429 2.256807 0
M  V30 22 C 2.808665 -4.051545 3.001959 0
M  V30 23 C 2.663905 -2.958824 2.152366 0
M  V30 24 C 2.112997 -1.699266 2.417275 0
M  V30 25 F 1.605574 -1.326998 3.612008 0
M  V30 26 C -1.118591 -0.226792 -0.054808 0
M  V30 27 C -2.367125 -0.800348 0.032390 0
M  V30 28 O -2.451091 -2.136690 -0.264094 0
M  V30 29 C -1.350945 -2.932851 -0.644370 0
M  V30 30 H -6.754378 -0.731045 0.912110 0
M  V30 31 H -6.039754 0.663982 0.011382 0
M  V30 32 H -5.665750 0.483715 1.749441 0
M  V30 33 H -4.265413 1.739419 0.959644 0
M  V30 34 H -2.177571 2.907980 0.862845 0
M  V30 35 H -0.767304 3.574585 -0.912459 0
M  V30 36 H 3.206057 4.441635 0.194760 0
M  V30 37 H 1.184640 0.768574 2.456401 0
M  V30 38 H 2.588358 -0.391717 -0.700480 0
M  V30 39 H 3.557055 -2.678257 -1.079719 0
M  V30 40 H 4.059647 -5.088878 0.200998 0
M  V30 41 H 3.686110 -6.061189 2.584300 0
M  V30 42 H 2.513222 -4.104310 4.022688 0
M  V30 43 H -0.197546 -0.667313 -0.325302 0
M  V30 44 H -1.672490 -3.828517 -1.231318 0
M  V30 45 H -0.629297 -2.397447 -1.314011 0
M  V30 46 H -0.826704 -3.273178 0.268070 0
M  V30 END ATOM
M  V30 BEGIN BOND
M  V30 1 1 1 2
M  V30 2 1 2 3
M  V30 3 2 3 4
M  V30 4 1 4 5
M  V30 5 2 5 6
M  V30 6 1 6 7
M  V30 7 2 7 8
M  V30 8 1 8 9
M  V30 9 2 9 10
M  V30 10 1 10 11
M  V30 11 1 11 12
M  V30 12 3 12 13
M  V30 13 2 11 14
M  V30 14 1 14 15
M  V30 15 1 15 16
M  V30 16 2 16 17
M  V30 17 1 17 18
M  V30 18 2 18 19
M  V30 19 1 19 20
M  V30 20 1 20 21
M  V30 21 2 21 22
M  V30 22 1 22 23
M  V30 23 2 23 24
M  V30 24 1 24 25
M  V30 25 1 6 26
M  V30 26 2 26 27
M  V30 27 1 27 28
M  V30 28 1 28 29
M  V30 29 1 27 3
M  V30 30 1 14 7
M  V30 31 1 24 16
M  V30 32 1 23 19
M  V30 33 1 1 30
M  V30 34 1 1 31
M  V30 35 1 1 32
M  V30 36 1 4 33
M  V30 37 1 5 34
M  V30 38 1 8 35
M  V30 39 1 10 36
M  V30 40 1 15 37
M  V30 41 1 17 38
M  V30 42 1 18 39
M  V30 43 1 20 40
M  V30 44 1 21 41
M  V30 45 1 22 42
M  V30 46 1 26 43
M  V30 47 1 29 44
M  V30 48 1 29 45
M  V30 49 1 29 46
M  V30 END BOND
M  V30 END CTAB
M  END
>  <Dataset>  (508) 
ChEMBL_Kinases

>  <Ligand_Instance>  (508) 
nan

>  <PDB_ID>  (508) 
nan

>  <Standardized_SMILES>  (508) 
COc1ccc(-c2cncc(C#N)c2Nc2ccc3[nH]ccc3c2F)cc1OC

>  <Name>  (508) 
nan

>  <Pocket>  (508) 
nan

>  <ATP_Site>  (508) 
nan

>  <Peripheral>  (508) 
nan

>  <Num_H_Atoms_ProtBoundConf>  (508) 
nan

>  <Num_Resolved_Atoms>  (508) 
nan

>  <Num_Not_Resolved_Atoms>  (508) 
nan

$$$$
CHEMBL466037
     RDKit          3D

  0  0  0  0  0  0  0  0  0  0999 V3000
M  V30 BEGIN CTAB
M  V30 COUNTS 52 55 0 0 0
M  V30 BEGIN ATOM
M  V30 1 C -0.959302 -2.449171 5.874760 0
M  V30 2 O 0.156692 -2.577936 5.018685 0
M  V30 3 C 0.509095 -1.612979 4.085113 0
M  V30 4 C -0.215030 -0.448649 3.927878 0
M  V30 5 C 0.146526 0.502731 2.995504 0
M  V30 6 C 1.253167 0.301476 2.194951 0
M  V30 7 C 1.799307 1.171795 1.159091 0
M  V30 8 C 3.171615 1.375229 1.150090 0
M  V30 9 N 3.794698 2.165784 0.233848 0
M  V30 10 C 3.121806 2.805820 -0.728235 0
M  V30 11 C 1.759731 2.624207 -0.745848 0
M  V30 12 C 0.915632 3.258844 -1.732934 0
M  V30 13 N 0.229797 3.784321 -2.516133 0
M  V30 14 C 1.100097 1.829925 0.168394 0
M  V30 15 N -0.310967 1.629242 0.165517 0
M  V30 16 C -0.758623 0.517483 -0.614705 0
M  V30 17 C 0.149629 -0.282595 -1.304032 0
M  V30 18 C -0.191445 -1.373019 -2.079431 0
M  V30 19 C -1.527599 -1.699357 -2.183222 0
M  V30 20 C -2.464633 -0.937778 -1.519524 0
M  V30 21 C -3.679706 -1.506242 -1.815928 0
M  V30 22 C -3.489842 -2.606511 -2.653806 0
M  V30 23 N -2.150097 -2.685704 -2.851950 0
M  V30 24 C -1.484493 -3.684412 -3.663788 0
M  V30 25 C -2.089253 0.145840 -0.752770 0
M  V30 26 C -3.081355 0.970784 -0.036227 0
M  V30 27 C 1.973373 -0.887149 2.371544 0
M  V30 28 C 1.621439 -1.845588 3.300466 0
M  V30 29 O 2.330950 -3.001837 3.464729 0
M  V30 30 C 3.466369 -3.384259 2.759393 0
M  V30 31 H -1.349321 -3.441122 6.189188 0
M  V30 32 H -0.750598 -1.763644 6.715883 0
M  V30 33 H -1.788983 -2.004028 5.267379 0
M  V30 34 H -1.079853 -0.243363 4.521893 0
M  V30 35 H -0.362402 1.437661 2.808843 0
M  V30 36 H 3.881285 0.938290 1.853736 0
M  V30 37 H 3.601123 3.439049 -1.465815 0
M  V30 38 H -1.075135 2.158522 0.637633 0
M  V30 39 H 1.221655 -0.065857 -1.254260 0
M  V30 40 H 0.567794 -1.952077 -2.588934 0
M  V30 41 H -4.648955 -1.155686 -1.454520 0
M  V30 42 H -4.271061 -3.248072 -3.049653 0
M  V30 43 H -1.209827 -3.193844 -4.643051 0
M  V30 44 H -2.145411 -4.541600 -3.887257 0
M  V30 45 H -0.510322 -3.983455 -3.215955 0
M  V30 46 H -4.082951 0.708767 -0.436762 0
M  V30 47 H -2.954662 2.051937 -0.168870 0
M  V30 48 H -3.105873 0.661053 1.032773 0
M  V30 49 H 2.855298 -1.129811 1.787870 0
M  V30 50 H 4.132931 -2.589036 2.426475 0
M  V30 51 H 3.229809 -4.011655 1.854195 0
M  V30 52 H 4.112220 -4.068866 3.381465 0
M  V30 END ATOM
M  V30 BEGIN BOND
M  V30 1 1 1 2
M  V30 2 1 2 3
M  V30 3 2 3 4
M  V30 4 1 4 5
M  V30 5 2 5 6
M  V30 6 1 6 7
M  V30 7 2 7 8
M  V30 8 1 8 9
M  V30 9 2 9 10
M  V30 10 1 10 11
M  V30 11 1 11 12
M  V30 12 3 12 13
M  V30 13 2 11 14
M  V30 14 1 14 15
M  V30 15 1 15 16
M  V30 16 2 16 17
M  V30 17 1 17 18
M  V30 18 2 18 19
M  V30 19 1 19 20
M  V30 20 1 20 21
M  V30 21 2 21 22
M  V30 22 1 22 23
M  V30 23 1 23 24
M  V30 24 2 20 25
M  V30 25 1 25 26
M  V30 26 1 6 27
M  V30 27 2 27 28
M  V30 28 1 28 29
M  V30 29 1 29 30
M  V30 30 1 28 3
M  V30 31 1 14 7
M  V30 32 1 25 16
M  V30 33 1 23 19
M  V30 34 1 1 31
M  V30 35 1 1 32
M  V30 36 1 1 33
M  V30 37 1 4 34
M  V30 38 1 5 35
M  V30 39 1 8 36
M  V30 40 1 10 37
M  V30 41 1 15 38
M  V30 42 1 17 39
M  V30 43 1 18 40
M  V30 44 1 21 41
M  V30 45 1 22 42
M  V30 46 1 24 43
M  V30 47 1 24 44
M  V30 48 1 24 45
M  V30 49 1 26 46
M  V30 50 1 26 47
M  V30 51 1 26 48
M  V30 52 1 27 49
M  V30 53 1 30 50
M  V30 54 1 30 51
M  V30 55 1 30 52
M  V30 END BOND
M  V30 END CTAB
M  END
>  <Dataset>  (509) 
ChEMBL_Kinases

>  <Ligand_Instance>  (509) 
nan

>  <PDB_ID>  (509) 
nan

>  <Standardized_SMILES>  (509) 
COc1ccc(-c2cncc(C#N)c2Nc2ccc3c(ccn3C)c2C)cc1OC

>  <Name>  (509) 
nan

>  <Pocket>  (509) 
nan

>  <ATP_Site>  (509) 
nan

>  <Peripheral>  (509) 
nan

>  <Num_H_Atoms_ProtBoundConf>  (509) 
nan

>  <Num_Resolved_Atoms>  (509) 
nan

>  <Num_Not_Resolved_Atoms>  (509) 
nan

$$$$
CHEMBL4648698
     RDKit          3D

  0  0  0  0  0  0  0  0  0  0999 V3000
M  V30 BEGIN CTAB
M  V30 COUNTS 48 52 0 0 0
M  V30 BEGIN ATOM
M  V30 1 C -0.262081 -6.046011 5.559165 0
M  V30 2 O -0.750437 -5.628518 4.313206 0
M  V30 3 C 0.009281 -4.953428 3.367421 0
M  V30 4 C 1.335285 -4.604720 3.523898 0
M  V30 5 C 1.991546 -3.932887 2.513994 0
M  V30 6 C 1.377229 -3.574456 1.308982 0
M  V30 7 C 2.207440 -2.857364 0.316891 0
M  V30 8 N 2.187515 -1.414625 0.481912 0
M  V30 9 C 3.126334 -0.929893 1.305727 0
M  V30 10 N 3.111165 0.407112 1.464894 0
M  V30 11 C 2.206389 1.161885 0.827685 0
M  V30 12 S 1.823444 2.977280 0.749304 0
M  V30 13 C 0.395788 2.866563 -0.423091 0
M  V30 14 C -0.168928 4.097264 -0.724243 0
M  V30 15 C 0.306300 5.303985 -0.192308 0
M  V30 16 C -0.272635 6.540439 -0.503212 0
M  V30 17 N -1.307662 6.598491 -1.327083 0
M  V30 18 C -1.835160 5.521282 -1.884763 0
M  V30 19 N -2.866954 5.378534 -2.730583 0
M  V30 20 C -2.972638 4.061671 -2.979038 0
M  V30 21 C -1.986787 3.410677 -2.268723 0
M  V30 22 C -1.241765 4.323260 -1.557481 0
M  V30 23 C 0.355472 1.548471 -0.624576 0
M  V30 24 C 1.187144 0.633251 -0.066956 0
M  V30 25 C 1.251928 -0.735397 -0.190002 0
M  V30 26 O 0.443427 -1.374234 -0.928203 0
M  V30 27 C 0.057779 -3.943317 1.200675 0
M  V30 28 C -0.634311 -4.610521 2.175769 0
M  V30 29 O -1.951526 -4.944047 1.991895 0
M  V30 30 C -2.613250 -4.602285 0.789592 0
M  V30 31 H 0.387363 -5.291741 6.003254 0
M  V30 32 H -1.116088 -6.281285 6.226566 0
M  V30 33 H 0.308004 -7.013652 5.444960 0
M  V30 34 H 1.819025 -4.877180 4.451535 0
M  V30 35 H 3.037822 -3.674381 2.673573 0
M  V30 36 H 1.893524 -3.151732 -0.712815 0
M  V30 37 H 3.246035 -3.226366 0.411749 0
M  V30 38 H 3.891015 -1.424395 1.862623 0
M  V30 39 H 1.124543 5.405777 0.477276 0
M  V30 40 H 0.090246 7.471424 -0.095731 0
M  V30 41 H -3.443750 6.167873 -3.095613 0
M  V30 42 H -3.733193 3.695413 -3.634810 0
M  V30 43 H -1.960177 2.351682 -2.378702 0
M  V30 44 H -0.418024 1.225735 -1.294061 0
M  V30 45 H -0.425314 -3.673317 0.276251 0
M  V30 46 H -3.569217 -5.191805 0.748962 0
M  V30 47 H -2.047488 -4.840685 -0.121957 0
M  V30 48 H -2.849635 -3.517040 0.760917 0
M  V30 END ATOM
M  V30 BEGIN BOND
M  V30 1 1 1 2
M  V30 2 1 2 3
M  V30 3 2 3 4
M  V30 4 1 4 5
M  V30 5 2 5 6
M  V30 6 1 6 7
M  V30 7 1 7 8
M  V30 8 1 8 9
M  V30 9 2 9 10
M  V30 10 1 10 11
M  V30 11 1 11 12
M  V30 12 1 12 13
M  V30 13 1 13 14
M  V30 14 2 14 15
M  V30 15 1 15 16
M  V30 16 2 16 17
M  V30 17 1 17 18
M  V30 18 1 18 19
M  V30 19 1 19 20
M  V30 20 2 20 21
M  V30 21 1 21 22
M  V30 22 2 13 23
M  V30 23 1 23 24
M  V30 24 1 24 25
M  V30 25 2 25 26
M  V30 26 1 6 27
M  V30 27 2 27 28
M  V30 28 1 28 29
M  V30 29 1 29 30
M  V30 30 1 28 3
M  V30 31 1 25 8
M  V30 32 2 24 11
M  V30 33 1 22 14
M  V30 34 2 22 18
M  V30 35 1 1 31
M  V30 36 1 1 32
M  V30 37 1 1 33
M  V30 38 1 4 34
M  V30 39 1 5 35
M  V30 40 1 7 36
M  V30 41 1 7 37
M  V30 42 1 9 38
M  V30 43 1 15 39
M  V30 44 1 16 40
M  V30 45 1 19 41
M  V30 46 1 20 42
M  V30 47 1 21 43
M  V30 48 1 23 44
M  V30 49 1 27 45
M  V30 50 1 30 46
M  V30 51 1 30 47
M  V30 52 1 30 48
M  V30 END BOND
M  V30 END CTAB
M  END
>  <Dataset>  (510) 
ChEMBL_Kinases

>  <Ligand_Instance>  (510) 
nan

>  <PDB_ID>  (510) 
nan

>  <Standardized_SMILES>  (510) 
COc1ccc(Cn2cnc3sc(-c4ccnc5[nH]ccc45)cc3c2=O)cc1OC

>  <Name>  (510) 
nan

>  <Pocket>  (510) 
nan

>  <ATP_Site>  (510) 
nan

>  <Peripheral>  (510) 
nan

>  <Num_H_Atoms_ProtBoundConf>  (510) 
nan

>  <Num_Resolved_Atoms>  (510) 
nan

>  <Num_Not_Resolved_Atoms>  (510) 
nan

$$$$
CHEMBL2041919
     RDKit          3D

  0  0  0  0  0  0  0  0  0  0999 V3000
M  V30 BEGIN CTAB
M  V30 COUNTS 32 36 0 0 0
M  V30 BEGIN ATOM
M  V30 1 C -1.676032 -4.401373 2.849191 0
M  V30 2 C -0.642197 -3.566681 2.185749 0
M  V30 3 C 0.632535 -4.133724 2.063998 0
M  V30 4 C 1.609226 -3.376147 1.450758 0
M  V30 5 C 1.314155 -2.111547 0.984591 0
M  V30 6 N 2.156172 -1.251239 0.365532 0
M  V30 7 C 1.484232 -0.133109 0.072375 0
M  V30 8 C 1.862137 1.035689 -0.546854 0
M  V30 9 C 3.099785 1.416371 -1.071253 0
M  V30 10 N 2.885782 2.655657 -1.549841 0
M  V30 11 N 1.632666 3.027910 -1.349376 0
M  V30 12 C 0.949478 2.052951 -0.726307 0
M  V30 13 C -0.354507 1.851088 -0.260699 0
M  V30 14 C -0.714158 0.679924 0.354276 0
M  V30 15 C 0.193698 -0.300574 0.519091 0
M  V30 16 C 0.071168 -1.530885 1.091214 0
M  V30 17 C -0.855405 -2.299661 1.694825 0
M  V30 18 C -2.104145 0.857610 0.679238 0
M  V30 19 O -2.949194 0.144093 1.235148 0
M  V30 20 N -2.543980 2.133513 0.250062 0
M  V30 21 C -1.447472 2.810932 -0.362904 0
M  V30 22 O -1.434991 3.961720 -0.868468 0
M  V30 23 H -2.667531 -4.264167 2.327249 0
M  V30 24 H -1.809482 -4.178978 3.915632 0
M  V30 25 H -1.445330 -5.475138 2.705090 0
M  V30 26 H 0.879165 -5.122568 2.423915 0
M  V30 27 H 2.594203 -3.791763 1.346839 0
M  V30 28 H 3.163523 -1.400263 0.138867 0
M  V30 29 H 3.986410 0.796324 -1.057519 0
M  V30 30 H 1.162344 3.923534 -1.603852 0
M  V30 31 H -1.848801 -1.973542 1.840201 0
M  V30 32 H -3.485569 2.619743 0.310607 0
M  V30 END ATOM
M  V30 BEGIN BOND
M  V30 1 1 1 2
M  V30 2 2 2 3
M  V30 3 1 3 4
M  V30 4 2 4 5
M  V30 5 1 5 6
M  V30 6 1 6 7
M  V30 7 2 7 8
M  V30 8 1 8 9
M  V30 9 2 9 10
M  V30 10 1 10 11
M  V30 11 1 11 12
M  V30 12 2 12 13
M  V30 13 1 13 14
M  V30 14 2 14 15
M  V30 15 1 15 16
M  V30 16 2 16 17
M  V30 17 1 14 18
M  V30 18 2 18 19
M  V30 19 1 18 20
M  V30 20 1 20 21
M  V30 21 2 21 22
M  V30 22 1 17 2
M  V30 23 1 16 5
M  V30 24 1 15 7
M  V30 25 1 12 8
M  V30 26 1 21 13
M  V30 27 1 1 23
M  V30 28 1 1 24
M  V30 29 1 1 25
M  V30 30 1 3 26
M  V30 31 1 4 27
M  V30 32 1 6 28
M  V30 33 1 9 29
M  V30 34 1 11 30
M  V30 35 1 17 31
M  V30 36 1 20 32
M  V30 END BOND
M  V30 END CTAB
M  END
>  <Dataset>  (511) 
ChEMBL_Kinases

>  <Ligand_Instance>  (511) 
nan

>  <PDB_ID>  (511) 
nan

>  <Standardized_SMILES>  (511) 
Cc1ccc2[nH]c3c4cn[nH]c4c4c(c3c2c1)C(=O)NC4=O

>  <Name>  (511) 
nan

>  <Pocket>  (511) 
nan

>  <ATP_Site>  (511) 
nan

>  <Peripheral>  (511) 
nan

>  <Num_H_Atoms_ProtBoundConf>  (511) 
nan

>  <Num_Resolved_Atoms>  (511) 
nan

>  <Num_Not_Resolved_Atoms>  (511) 
nan

$$$$
CHEMBL566868
     RDKit          3D

  0  0  0  0  0  0  0  0  0  0999 V3000
M  V30 BEGIN CTAB
M  V30 COUNTS 52 55 0 0 0
M  V30 BEGIN ATOM
M  V30 1 C 0.244817 -2.399371 2.195661 0
M  V30 2 C 0.223478 -3.286603 1.040760 0
M  V30 3 C 0.541902 -2.654158 -0.133637 0
M  V30 4 N 0.902621 -1.344256 -0.495433 0
M  V30 5 C 1.752908 -0.272802 -0.385255 0
M  V30 6 C 2.876325 -0.354654 -1.186326 0
M  V30 7 C 3.161918 -1.490008 -2.055239 0
M  V30 8 N 3.390607 -2.379644 -2.759516 0
M  V30 9 C 3.853576 0.628329 -1.250389 0
M  V30 10 N 3.698694 1.717624 -0.492445 0
M  V30 11 C 2.629003 1.842917 0.299622 0
M  V30 12 C 1.660581 0.869110 0.363684 0
M  V30 13 C 0.590668 1.151625 1.292707 0
M  V30 14 C 0.998419 0.813022 2.591646 0
M  V30 15 C 0.167778 1.019008 3.692123 0
M  V30 16 C -1.080142 1.561784 3.537978 0
M  V30 17 C -1.467218 1.890751 2.249116 0
M  V30 18 C -0.665584 1.696738 1.149938 0
M  V30 19 C -0.992927 2.012223 -0.247421 0
M  V30 20 N -2.262677 2.672191 -0.425058 0
M  V30 21 C -2.411787 3.925137 0.221790 0
M  V30 22 C -3.386184 1.788054 -0.372310 0
M  V30 23 C 0.532642 -3.461384 -1.291398 0
M  V30 24 C 0.226187 -4.814375 -1.282584 0
M  V30 25 C -0.074264 -5.329733 -0.050212 0
M  V30 26 N -0.409693 -6.576309 0.317952 0
M  V30 27 C -0.626627 -6.652222 1.660276 0
M  V30 28 C -0.425024 -5.384789 2.219143 0
M  V30 29 C -0.089240 -4.617233 1.125068 0
M  V30 30 H 1.270863 -2.042299 2.356368 0
M  V30 31 H -0.514796 -1.574241 2.098933 0
M  V30 32 H -0.021846 -2.989636 3.083109 0
M  V30 33 H 0.238549 -0.882204 -1.192282 0
M  V30 34 H 4.735468 0.595095 -1.860550 0
M  V30 35 H 2.579797 2.772461 0.889388 0
M  V30 36 H 1.958694 0.370709 2.899173 0
M  V30 37 H 0.443647 0.771621 4.706295 0
M  V30 38 H -1.734463 1.724747 4.387812 0
M  V30 39 H -2.429343 2.313072 2.082273 0
M  V30 40 H -0.172107 2.589479 -0.707739 0
M  V30 41 H -1.143084 1.004921 -0.744777 0
M  V30 42 H -1.600318 4.245153 0.884348 0
M  V30 43 H -3.436436 3.979822 0.696022 0
M  V30 44 H -2.475424 4.704009 -0.595405 0
M  V30 45 H -3.025718 0.830973 0.107439 0
M  V30 46 H -3.643428 1.486022 -1.413988 0
M  V30 47 H -4.288719 2.176748 0.104285 0
M  V30 48 H 0.757006 -3.118665 -2.319708 0
M  V30 49 H 0.213147 -5.444178 -2.143037 0
M  V30 50 H -0.494549 -7.398750 -0.350736 0
M  V30 51 H -0.911402 -7.534578 2.242939 0
M  V30 52 H -0.501955 -5.047793 3.243286 0
M  V30 END ATOM
M  V30 BEGIN BOND
M  V30 1 1 1 2
M  V30 2 2 2 3
M  V30 3 1 3 4
M  V30 4 1 4 5
M  V30 5 2 5 6
M  V30 6 1 6 7
M  V30 7 3 7 8
M  V30 8 1 6 9
M  V30 9 2 9 10
M  V30 10 1 10 11
M  V30 11 2 11 12
M  V30 12 1 12 13
M  V30 13 2 13 14
M  V30 14 1 14 15
M  V30 15 2 15 16
M  V30 16 1 16 17
M  V30 17 2 17 18
M  V30 18 1 18 19
M  V30 19 1 19 20
M  V30 20 1 20 21
M  V30 21 1 20 22
M  V30 22 1 3 23
M  V30 23 2 23 24
M  V30 24 1 24 25
M  V30 25 1 25 26
M  V30 26 1 26 27
M  V30 27 2 27 28
M  V30 28 1 28 29
M  V30 29 1 29 2
M  V30 30 1 12 5
M  V30 31 1 18 13
M  V30 32 2 29 25
M  V30 33 1 1 30
M  V30 34 1 1 31
M  V30 35 1 1 32
M  V30 36 1 4 33
M  V30 37 1 9 34
M  V30 38 1 11 35
M  V30 39 1 14 36
M  V30 40 1 15 37
M  V30 41 1 16 38
M  V30 42 1 17 39
M  V30 43 1 19 40
M  V30 44 1 19 41
M  V30 45 1 21 42
M  V30 46 1 21 43
M  V30 47 1 21 44
M  V30 48 1 22 45
M  V30 49 1 22 46
M  V30 50 1 22 47
M  V30 51 1 23 48
M  V30 52 1 24 49
M  V30 53 1 26 50
M  V30 54 1 27 51
M  V30 55 1 28 52
M  V30 END BOND
M  V30 END CTAB
M  END
>  <Dataset>  (512) 
ChEMBL_Kinases

>  <Ligand_Instance>  (512) 
nan

>  <PDB_ID>  (512) 
nan

>  <Standardized_SMILES>  (512) 
Cc1c(Nc2c(C#N)cncc2-c2ccccc2CN(C)C)ccc2[nH]ccc12

>  <Name>  (512) 
nan

>  <Pocket>  (512) 
nan

>  <ATP_Site>  (512) 
nan

>  <Peripheral>  (512) 
nan

>  <Num_H_Atoms_ProtBoundConf>  (512) 
nan

>  <Num_Resolved_Atoms>  (512) 
nan

>  <Num_Not_Resolved_Atoms>  (512) 
nan

$$$$
CHEMBL2041918
     RDKit          3D

  0  0  0  0  0  0  0  0  0  0999 V3000
M  V30 BEGIN CTAB
M  V30 COUNTS 29 33 0 0 0
M  V30 BEGIN ATOM
M  V30 1 O 3.797021 -0.652853 3.865364 0
M  V30 2 C 2.686925 -0.979753 3.385466 0
M  V30 3 N 1.730305 -1.914083 3.922177 0
M  V30 4 C 0.620088 -1.968566 3.045526 0
M  V30 5 O -0.288180 -2.738116 3.383943 0
M  V30 6 C 0.824761 -1.082484 1.931587 0
M  V30 7 C 2.043256 -0.518397 2.159464 0
M  V30 8 C 2.578533 0.409682 1.269073 0
M  V30 9 N 3.701316 1.142836 1.168368 0
M  V30 10 N 3.687071 1.883270 0.078012 0
M  V30 11 C 2.547782 1.682583 -0.610779 0
M  V30 12 C 1.843068 0.743245 0.150117 0
M  V30 13 C 0.616990 0.163365 -0.061295 0
M  V30 14 N -0.275752 0.300357 -1.029453 0
M  V30 15 C -1.343385 -0.510083 -0.768730 0
M  V30 16 C -2.494439 -0.672376 -1.523542 0
M  V30 17 C -3.483538 -1.543083 -1.107444 0
M  V30 18 C -3.274350 -2.240604 0.088276 0
M  V30 19 C -2.111282 -2.034060 0.789001 0
M  V30 20 C -1.117969 -1.186173 0.409758 0
M  V30 21 C 0.102539 -0.751680 0.828051 0
M  V30 22 H 1.957481 -2.407107 4.835655 0
M  V30 23 H 4.447777 1.085535 1.894542 0
M  V30 24 H 2.187042 2.104125 -1.535178 0
M  V30 25 H -0.151761 0.947246 -1.864566 0
M  V30 26 H -2.611051 -0.112084 -2.439741 0
M  V30 27 H -4.393742 -1.694273 -1.671035 0
M  V30 28 H -4.062589 -2.913433 0.389210 0
M  V30 29 H -2.041025 -2.595436 1.666865 0
M  V30 END ATOM
M  V30 BEGIN BOND
M  V30 1 2 1 2
M  V30 2 1 2 3
M  V30 3 1 3 4
M  V30 4 2 4 5
M  V30 5 1 4 6
M  V30 6 2 6 7
M  V30 7 1 7 8
M  V30 8 1 8 9
M  V30 9 1 9 10
M  V30 10 2 10 11
M  V30 11 1 11 12
M  V30 12 1 12 13
M  V30 13 1 13 14
M  V30 14 1 14 15
M  V30 15 2 15 16
M  V30 16 1 16 17
M  V30 17 2 17 18
M  V30 18 1 18 19
M  V30 19 2 19 20
M  V30 20 1 20 21
M  V30 21 1 7 2
M  V30 22 2 12 8
M  V30 23 2 21 13
M  V30 24 1 21 6
M  V30 25 1 20 15
M  V30 26 1 3 22
M  V30 27 1 9 23
M  V30 28 1 11 24
M  V30 29 1 14 25
M  V30 30 1 16 26
M  V30 31 1 17 27
M  V30 32 1 18 28
M  V30 33 1 19 29
M  V30 END BOND
M  V30 END CTAB
M  END
>  <Dataset>  (513) 
ChEMBL_Kinases

>  <Ligand_Instance>  (513) 
nan

>  <PDB_ID>  (513) 
nan

>  <Standardized_SMILES>  (513) 
O=C1NC(=O)c2c1c1[nH]ncc1c1[nH]c3ccccc3c21

>  <Name>  (513) 
nan

>  <Pocket>  (513) 
nan

>  <ATP_Site>  (513) 
nan

>  <Peripheral>  (513) 
nan

>  <Num_H_Atoms_ProtBoundConf>  (513) 
nan

>  <Num_Resolved_Atoms>  (513) 
nan

>  <Num_Not_Resolved_Atoms>  (513) 
nan

$$$$
CHEMBL2041917
     RDKit          3D

  0  0  0  0  0  0  0  0  0  0999 V3000
M  V30 BEGIN CTAB
M  V30 COUNTS 30 34 0 0 0
M  V30 BEGIN ATOM
M  V30 1 O 2.256613 -3.134850 -0.121276 0
M  V30 2 C 1.452060 -2.964989 0.805546 0
M  V30 3 N 1.327415 -4.048349 1.709063 0
M  V30 4 C 0.363202 -3.685149 2.710498 0
M  V30 5 O -0.040370 -4.352764 3.690955 0
M  V30 6 C -0.044782 -2.333582 2.313890 0
M  V30 7 C 0.587876 -1.884414 1.186011 0
M  V30 8 C 0.312757 -0.662740 0.706100 0
M  V30 9 C 0.806268 -0.007696 -0.382333 0
M  V30 10 C 1.690009 -0.201009 -1.395776 0
M  V30 11 C 1.961533 0.720861 -2.379124 0
M  V30 12 O 2.867857 0.511331 -3.410746 0
M  V30 13 C 1.303641 1.956958 -2.372601 0
M  V30 14 C 0.397621 2.187885 -1.356025 0
M  V30 15 C 0.174647 1.216498 -0.401721 0
M  V30 16 N -0.681905 1.288792 0.659332 0
M  V30 17 C -0.604972 0.136794 1.348466 0
M  V30 18 N -1.221543 -0.313920 2.456542 0
M  V30 19 N -2.123403 0.304129 3.202610 0
M  V30 20 C -2.497652 -0.482039 4.226235 0
M  V30 21 C -1.779278 -1.652272 4.096210 0
M  V30 22 C -0.980702 -1.530680 2.977533 0
M  V30 23 H 1.778066 -4.993962 1.772351 0
M  V30 24 H 2.233139 -1.084465 -1.494984 0
M  V30 25 H 2.605180 -0.117569 -4.158932 0
M  V30 26 H 1.469602 2.719428 -3.109904 0
M  V30 27 H -0.116089 3.117978 -1.326898 0
M  V30 28 H -1.312500 2.098758 0.922271 0
M  V30 29 H -3.210601 -0.277158 5.010322 0
M  V30 30 H -1.770814 -2.548947 4.699290 0
M  V30 END ATOM
M  V30 BEGIN BOND
M  V30 1 2 1 2
M  V30 2 1 2 3
M  V30 3 1 3 4
M  V30 4 2 4 5
M  V30 5 1 4 6
M  V30 6 2 6 7
M  V30 7 1 7 8
M  V30 8 1 8 9
M  V30 9 2 9 10
M  V30 10 1 10 11
M  V30 11 1 11 12
M  V30 12 2 11 13
M  V30 13 1 13 14
M  V30 14 2 14 15
M  V30 15 1 15 16
M  V30 16 1 16 17
M  V30 17 1 17 18
M  V30 18 1 18 19
M  V30 19 2 19 20
M  V30 20 1 20 21
M  V30 21 2 21 22
M  V30 22 1 7 2
M  V30 23 2 17 8
M  V30 24 1 22 18
M  V30 25 1 22 6
M  V30 26 1 15 9
M  V30 27 1 3 23
M  V30 28 1 10 24
M  V30 29 1 12 25
M  V30 30 1 13 26
M  V30 31 1 14 27
M  V30 32 1 16 28
M  V30 33 1 20 29
M  V30 34 1 21 30
M  V30 END BOND
M  V30 END CTAB
M  END
>  <Dataset>  (514) 
ChEMBL_Kinases

>  <Ligand_Instance>  (514) 
nan

>  <PDB_ID>  (514) 
nan

>  <Standardized_SMILES>  (514) 
O=C1NC(=O)c2c1c1c3cc(O)ccc3[nH]c1n1nccc21

>  <Name>  (514) 
nan

>  <Pocket>  (514) 
nan

>  <ATP_Site>  (514) 
nan

>  <Peripheral>  (514) 
nan

>  <Num_H_Atoms_ProtBoundConf>  (514) 
nan

>  <Num_Resolved_Atoms>  (514) 
nan

>  <Num_Not_Resolved_Atoms>  (514) 
nan

$$$$
CHEMBL2041914
     RDKit          3D

  0  0  0  0  0  0  0  0  0  0999 V3000
M  V30 BEGIN CTAB
M  V30 COUNTS 29 33 0 0 0
M  V30 BEGIN ATOM
M  V30 1 O 3.363747 0.405042 1.727189 0
M  V30 2 C 2.472588 -0.339500 2.154991 0
M  V30 3 N 2.762166 -0.976481 3.386587 0
M  V30 4 C 1.650757 -1.801671 3.758924 0
M  V30 5 O 1.511147 -2.526352 4.774145 0
M  V30 6 C 0.706436 -1.596051 2.661269 0
M  V30 7 C 1.176849 -0.733112 1.702639 0
M  V30 8 C 0.416891 -0.446733 0.630760 0
M  V30 9 C 0.665125 0.366532 -0.433190 0
M  V30 10 C 1.629721 1.191870 -0.926550 0
M  V30 11 C 1.566983 1.910356 -2.098543 0
M  V30 12 C 0.406918 1.794549 -2.872419 0
M  V30 13 C -0.602606 0.971614 -2.419771 0
M  V30 14 C -0.454680 0.287144 -1.230733 0
M  V30 15 N -1.351746 -0.560489 -0.647034 0
M  V30 16 C -0.826707 -1.019970 0.501454 0
M  V30 17 N -1.270329 -1.863613 1.452032 0
M  V30 18 N -2.435495 -2.507890 1.498034 0
M  V30 19 C -2.507692 -3.255780 2.604898 0
M  V30 20 C -1.323071 -3.066496 3.284426 0
M  V30 21 C -0.557004 -2.188423 2.545465 0
M  V30 22 H 3.602767 -0.950686 4.038025 0
M  V30 23 H 2.538833 1.331135 -0.395728 0
M  V30 24 H 2.359895 2.555168 -2.451669 0
M  V30 25 H 0.249989 2.309600 -3.804680 0
M  V30 26 H -1.496233 0.872261 -3.000084 0
M  V30 27 H -2.301604 -0.830859 -1.006954 0
M  V30 28 H -3.274304 -3.912266 2.997871 0
M  V30 29 H -0.956445 -3.471300 4.217338 0
M  V30 END ATOM
M  V30 BEGIN BOND
M  V30 1 2 1 2
M  V30 2 1 2 3
M  V30 3 1 3 4
M  V30 4 2 4 5
M  V30 5 1 4 6
M  V30 6 2 6 7
M  V30 7 1 7 8
M  V30 8 1 8 9
M  V30 9 2 9 10
M  V30 10 1 10 11
M  V30 11 2 11 12
M  V30 12 1 12 13
M  V30 13 2 13 14
M  V30 14 1 14 15
M  V30 15 1 15 16
M  V30 16 1 16 17
M  V30 17 1 17 18
M  V30 18 2 18 19
M  V30 19 1 19 20
M  V30 20 2 20 21
M  V30 21 1 7 2
M  V30 22 2 16 8
M  V30 23 1 21 17
M  V30 24 1 21 6
M  V30 25 1 14 9
M  V30 26 1 3 22
M  V30 27 1 10 23
M  V30 28 1 11 24
M  V30 29 1 12 25
M  V30 30 1 13 26
M  V30 31 1 15 27
M  V30 32 1 19 28
M  V30 33 1 20 29
M  V30 END BOND
M  V30 END CTAB
M  END
>  <Dataset>  (515) 
ChEMBL_Kinases

>  <Ligand_Instance>  (515) 
nan

>  <PDB_ID>  (515) 
nan

>  <Standardized_SMILES>  (515) 
O=C1NC(=O)c2c1c1c3ccccc3[nH]c1n1nccc21

>  <Name>  (515) 
nan

>  <Pocket>  (515) 
nan

>  <ATP_Site>  (515) 
nan

>  <Peripheral>  (515) 
nan

>  <Num_H_Atoms_ProtBoundConf>  (515) 
nan

>  <Num_Resolved_Atoms>  (515) 
nan

>  <Num_Not_Resolved_Atoms>  (515) 
nan

$$$$
CHEMBL466653
     RDKit          3D

  0  0  0  0  0  0  0  0  0  0999 V3000
M  V30 BEGIN CTAB
M  V30 COUNTS 41 44 0 0 0
M  V30 BEGIN ATOM
M  V30 1 C 1.263204 -3.261883 1.533331 0
M  V30 2 C 0.152492 -2.395011 1.989560 0
M  V30 3 C -0.340537 -1.487305 1.100024 0
M  V30 4 N 0.050122 -1.235602 -0.212267 0
M  V30 5 C 1.032344 -0.886205 -1.145532 0
M  V30 6 C 1.679770 -1.810766 -1.938661 0
M  V30 7 C 1.346711 -3.201569 -1.860784 0
M  V30 8 N 1.066503 -4.324943 -1.814851 0
M  V30 9 C 2.655360 -1.478814 -2.854333 0
M  V30 10 N 2.937008 -0.167484 -2.922999 0
M  V30 11 C 2.343065 0.771365 -2.181571 0
M  V30 12 C 1.366123 0.442579 -1.263092 0
M  V30 13 C 0.862877 1.598070 -0.549250 0
M  V30 14 C 0.442185 2.676904 -1.344723 0
M  V30 15 C -0.055451 3.875320 -0.875233 0
M  V30 16 C -0.152255 4.038245 0.490253 0
M  V30 17 C 0.247812 3.008850 1.315443 0
M  V30 18 C 0.738278 1.830676 0.803436 0
M  V30 19 C -1.385879 -0.661210 1.536612 0
M  V30 20 C -1.924263 -0.729038 2.804199 0
M  V30 21 C -1.340606 -1.685430 3.606905 0
M  V30 22 N -1.633890 -2.003006 4.891403 0
M  V30 23 C -0.857512 -2.997166 5.372051 0
M  V30 24 C -0.003113 -3.355279 4.344401 0
M  V30 25 C -0.314702 -2.542060 3.275418 0
M  V30 26 H 0.793606 -4.066131 0.933004 0
M  V30 27 H 1.978655 -2.733904 0.903927 0
M  V30 28 H 1.730731 -3.765420 2.407917 0
M  V30 29 H -0.745892 -1.346088 -0.911860 0
M  V30 30 H 3.162706 -2.200834 -3.474550 0
M  V30 31 H 2.725908 1.758876 -2.403489 0
M  V30 32 H 0.499479 2.596370 -2.442178 0
M  V30 33 H -0.356230 4.653092 -1.561405 0
M  V30 34 H -0.528465 4.938926 0.937186 0
M  V30 35 H 0.185259 3.103637 2.389464 0
M  V30 36 H 1.067760 0.998333 1.412963 0
M  V30 37 H -1.854128 0.105171 0.894367 0
M  V30 38 H -2.726374 -0.098538 3.146473 0
M  V30 39 H -2.385684 -1.537795 5.478176 0
M  V30 40 H -0.923382 -3.404708 6.371649 0
M  V30 41 H 0.753240 -4.116275 4.373697 0
M  V30 END ATOM
M  V30 BEGIN BOND
M  V30 1 1 1 2
M  V30 2 2 2 3
M  V30 3 1 3 4
M  V30 4 1 4 5
M  V30 5 2 5 6
M  V30 6 1 6 7
M  V30 7 3 7 8
M  V30 8 1 6 9
M  V30 9 2 9 10
M  V30 10 1 10 11
M  V30 11 2 11 12
M  V30 12 1 12 13
M  V30 13 2 13 14
M  V30 14 1 14 15
M  V30 15 2 15 16
M  V30 16 1 16 17
M  V30 17 2 17 18
M  V30 18 1 3 19
M  V30 19 2 19 20
M  V30 20 1 20 21
M  V30 21 1 21 22
M  V30 22 1 22 23
M  V30 23 2 23 24
M  V30 24 1 24 25
M  V30 25 1 25 2
M  V30 26 1 12 5
M  V30 27 1 18 13
M  V30 28 2 25 21
M  V30 29 1 1 26
M  V30 30 1 1 27
M  V30 31 1 1 28
M  V30 32 1 4 29
M  V30 33 1 9 30
M  V30 34 1 11 31
M  V30 35 1 14 32
M  V30 36 1 15 33
M  V30 37 1 16 34
M  V30 38 1 17 35
M  V30 39 1 18 36
M  V30 40 1 19 37
M  V30 41 1 20 38
M  V30 42 1 22 39
M  V30 43 1 23 40
M  V30 44 1 24 41
M  V30 END BOND
M  V30 END CTAB
M  END
>  <Dataset>  (516) 
ChEMBL_Kinases

>  <Ligand_Instance>  (516) 
nan

>  <PDB_ID>  (516) 
nan

>  <Standardized_SMILES>  (516) 
Cc1c(Nc2c(C#N)cncc2-c2ccccc2)ccc2[nH]ccc12

>  <Name>  (516) 
nan

>  <Pocket>  (516) 
nan

>  <ATP_Site>  (516) 
nan

>  <Peripheral>  (516) 
nan

>  <Num_H_Atoms_ProtBoundConf>  (516) 
nan

>  <Num_Resolved_Atoms>  (516) 
nan

>  <Num_Not_Resolved_Atoms>  (516) 
nan

$$$$
CHEMBL2041749
     RDKit          3D

  0  0  0  0  0  0  0  0  0  0999 V3000
M  V30 BEGIN CTAB
M  V30 COUNTS 33 37 0 0 0
M  V30 BEGIN ATOM
M  V30 1 C -0.801185 -5.349304 1.334212 0
M  V30 2 C -0.079879 -4.027271 1.397065 0
M  V30 3 C 1.125284 -4.036087 2.110497 0
M  V30 4 C 1.803094 -2.836197 2.181208 0
M  V30 5 C 1.280365 -1.706002 1.562758 0
M  V30 6 N 1.821110 -0.452146 1.537816 0
M  V30 7 C 1.007663 0.351070 0.837565 0
M  V30 8 C -0.055056 -0.418043 0.421581 0
M  V30 9 C -1.043393 0.137118 -0.313788 0
M  V30 10 C -0.975102 1.469249 -0.638927 0
M  V30 11 N 0.077048 2.235508 -0.228400 0
M  V30 12 C 0.426009 3.518114 -0.374371 0
M  V30 13 C 1.621260 3.784587 0.257683 0
M  V30 14 C 2.033877 2.615974 0.821685 0
M  V30 15 C 1.063902 1.688374 0.503896 0
M  V30 16 C -2.112234 1.928689 -1.435826 0
M  V30 17 O -2.326375 3.082674 -1.878721 0
M  V30 18 N -2.907808 0.762766 -1.585351 0
M  V30 19 C -2.270818 -0.310288 -0.915193 0
M  V30 20 O -2.836567 -1.411284 -0.946940 0
M  V30 21 C 0.095066 -1.698624 0.861442 0
M  V30 22 C -0.543982 -2.881436 0.808910 0
M  V30 23 H -0.111114 -6.176764 1.484426 0
M  V30 24 H -1.620765 -5.269148 2.085648 0
M  V30 25 H -1.299121 -5.363015 0.333507 0
M  V30 26 H 1.508585 -4.917654 2.578483 0
M  V30 27 H 2.725007 -2.780484 2.709819 0
M  V30 28 H 2.718072 -0.139577 1.981251 0
M  V30 29 H -0.157289 4.232832 -0.914553 0
M  V30 30 H 2.106644 4.742296 0.281320 0
M  V30 31 H 2.929732 2.448777 1.396071 0
M  V30 32 H -3.812321 0.811962 -2.132473 0
M  V30 33 H -1.448732 -3.018737 0.312806 0
M  V30 END ATOM
M  V30 BEGIN BOND
M  V30 1 1 1 2
M  V30 2 2 2 3
M  V30 3 1 3 4
M  V30 4 2 4 5
M  V30 5 1 5 6
M  V30 6 1 6 7
M  V30 7 2 7 8
M  V30 8 1 8 9
M  V30 9 2 9 10
M  V30 10 1 10 11
M  V30 11 1 11 12
M  V30 12 2 12 13
M  V30 13 1 13 14
M  V30 14 2 14 15
M  V30 15 1 10 16
M  V30 16 2 16 17
M  V30 17 1 16 18
M  V30 18 1 18 19
M  V30 19 2 19 20
M  V30 20 1 8 21
M  V30 21 2 21 22
M  V30 22 1 22 2
M  V30 23 1 21 5
M  V30 24 1 15 7
M  V30 25 1 19 9
M  V30 26 1 15 11
M  V30 27 1 1 23
M  V30 28 1 1 24
M  V30 29 1 1 25
M  V30 30 1 3 26
M  V30 31 1 4 27
M  V30 32 1 6 28
M  V30 33 1 12 29
M  V30 34 1 13 30
M  V30 35 1 14 31
M  V30 36 1 18 32
M  V30 37 1 22 33
M  V30 END BOND
M  V30 END CTAB
M  END
>  <Dataset>  (517) 
ChEMBL_Kinases

>  <Ligand_Instance>  (517) 
nan

>  <PDB_ID>  (517) 
nan

>  <Standardized_SMILES>  (517) 
Cc1ccc2[nH]c3c(c4c(n5cccc35)C(=O)NC4=O)c2c1

>  <Name>  (517) 
nan

>  <Pocket>  (517) 
nan

>  <ATP_Site>  (517) 
nan

>  <Peripheral>  (517) 
nan

>  <Num_H_Atoms_ProtBoundConf>  (517) 
nan

>  <Num_Resolved_Atoms>  (517) 
nan

>  <Num_Not_Resolved_Atoms>  (517) 
nan

$$$$
CHEMBL466654
     RDKit          3D

  0  0  0  0  0  0  0  0  0  0999 V3000
M  V30 BEGIN CTAB
M  V30 COUNTS 45 48 0 0 0
M  V30 BEGIN ATOM
M  V30 1 C -1.255452 -5.854114 -0.718544 0
M  V30 2 O -1.490918 -4.660870 -1.427471 0
M  V30 3 C -0.693052 -3.549147 -1.361122 0
M  V30 4 C 0.442693 -3.476845 -0.582371 0
M  V30 5 C 1.211996 -2.336410 -0.549443 0
M  V30 6 C 0.920707 -1.200865 -1.272139 0
M  V30 7 C 1.606421 0.051458 -1.347354 0
M  V30 8 C 1.831352 0.509289 -2.625509 0
M  V30 9 N 2.476307 1.667138 -2.830625 0
M  V30 10 C 2.922334 2.415234 -1.812315 0
M  V30 11 C 2.692875 1.949303 -0.535731 0
M  V30 12 C 3.214473 2.794639 0.499184 0
M  V30 13 N 3.638259 3.472424 1.360872 0
M  V30 14 C 2.032362 0.761820 -0.247721 0
M  V30 15 N 1.831450 0.338432 1.090479 0
M  V30 16 C 0.815644 0.285503 2.056448 0
M  V30 17 C 0.585072 -1.015981 2.516722 0
M  V30 18 C -0.395434 -1.273670 3.469671 0
M  V30 19 C -1.145521 -0.221843 3.961385 0
M  V30 20 N -2.152282 -0.106884 4.867890 0
M  V30 21 C -2.556290 1.166947 4.998469 0
M  V30 22 C -1.798273 1.962620 4.148322 0
M  V30 23 C -0.949511 1.072776 3.534685 0
M  V30 24 C 0.029200 1.278370 2.592957 0
M  V30 25 C 0.279384 2.632913 2.097190 0
M  V30 26 C -0.240936 -1.318717 -2.048759 0
M  V30 27 C -1.036871 -2.442351 -2.108310 0
M  V30 28 H -1.977580 -6.617154 -1.073616 0
M  V30 29 H -0.240357 -6.253152 -0.929158 0
M  V30 30 H -1.348314 -5.667418 0.374543 0
M  V30 31 H 0.742630 -4.327539 0.017448 0
M  V30 32 H 2.117952 -2.241215 0.054763 0
M  V30 33 H 1.518039 -0.008717 -3.520176 0
M  V30 34 H 3.436031 3.339323 -2.027265 0
M  V30 35 H 2.776849 -0.028703 1.348166 0
M  V30 36 H 1.057279 -1.976369 2.273454 0
M  V30 37 H -0.670148 -2.213771 3.901546 0
M  V30 38 H -2.567339 -0.898462 5.401043 0
M  V30 39 H -3.350167 1.513641 5.664633 0
M  V30 40 H -1.864153 3.021463 4.007861 0
M  V30 41 H -0.589865 3.278314 2.341352 0
M  V30 42 H 0.326744 2.624943 0.985387 0
M  V30 43 H 1.142263 3.125847 2.571297 0
M  V30 44 H -0.576636 -0.479863 -2.668774 0
M  V30 45 H -1.920384 -2.465339 -2.729220 0
M  V30 END ATOM
M  V30 BEGIN BOND
M  V30 1 1 1 2
M  V30 2 1 2 3
M  V30 3 2 3 4
M  V30 4 1 4 5
M  V30 5 2 5 6
M  V30 6 1 6 7
M  V30 7 2 7 8
M  V30 8 1 8 9
M  V30 9 2 9 10
M  V30 10 1 10 11
M  V30 11 1 11 12
M  V30 12 3 12 13
M  V30 13 2 11 14
M  V30 14 1 14 15
M  V30 15 1 15 16
M  V30 16 2 16 17
M  V30 17 1 17 18
M  V30 18 2 18 19
M  V30 19 1 19 20
M  V30 20 1 20 21
M  V30 21 2 21 22
M  V30 22 1 22 23
M  V30 23 2 23 24
M  V30 24 1 24 25
M  V30 25 1 6 26
M  V30 26 2 26 27
M  V30 27 1 27 3
M  V30 28 1 14 7
M  V30 29 1 24 16
M  V30 30 1 23 19
M  V30 31 1 1 28
M  V30 32 1 1 29
M  V30 33 1 1 30
M  V30 34 1 4 31
M  V30 35 1 5 32
M  V30 36 1 8 33
M  V30 37 1 10 34
M  V30 38 1 15 35
M  V30 39 1 17 36
M  V30 40 1 18 37
M  V30 41 1 20 38
M  V30 42 1 21 39
M  V30 43 1 22 40
M  V30 44 1 25 41
M  V30 45 1 25 42
M  V30 46 1 25 43
M  V30 47 1 26 44
M  V30 48 1 27 45
M  V30 END BOND
M  V30 END CTAB
M  END
>  <Dataset>  (518) 
ChEMBL_Kinases

>  <Ligand_Instance>  (518) 
nan

>  <PDB_ID>  (518) 
nan

>  <Standardized_SMILES>  (518) 
COc1ccc(-c2cncc(C#N)c2Nc2ccc3[nH]ccc3c2C)cc1

>  <Name>  (518) 
nan

>  <Pocket>  (518) 
nan

>  <ATP_Site>  (518) 
nan

>  <Peripheral>  (518) 
nan

>  <Num_H_Atoms_ProtBoundConf>  (518) 
nan

>  <Num_Resolved_Atoms>  (518) 
nan

>  <Num_Not_Resolved_Atoms>  (518) 
nan

$$$$
CHEMBL467068
     RDKit          3D

  0  0  0  0  0  0  0  0  0  0999 V3000
M  V30 BEGIN CTAB
M  V30 COUNTS 61 65 0 0 0
M  V30 BEGIN ATOM
M  V30 1 C 4.523929 -2.685045 2.217748 0
M  V30 2 C 3.167235 -2.678707 2.770014 0
M  V30 3 C 2.604130 -1.448753 2.988351 0
M  V30 4 N 3.106183 -0.164750 2.762738 0
M  V30 5 C 3.618869 0.610252 1.708538 0
M  V30 6 C 4.985085 0.854996 1.526854 0
M  V30 7 C 5.932513 0.337195 2.474838 0
M  V30 8 N 6.699352 -0.075483 3.248685 0
M  V30 9 C 5.522057 1.586753 0.491728 0
M  V30 10 N 4.698485 2.104369 -0.406413 0
M  V30 11 C 3.369869 1.927868 -0.321288 0
M  V30 12 C 2.854203 1.191811 0.723156 0
M  V30 13 C 1.402975 1.094169 0.699584 0
M  V30 14 C 0.506189 1.317601 1.714953 0
M  V30 15 C -0.849154 1.188331 1.565407 0
M  V30 16 C -1.384035 0.817392 0.352520 0
M  V30 17 O -2.767218 0.712934 0.297781 0
M  V30 18 C -3.323253 0.327635 -0.957582 0
M  V30 19 C -4.824109 0.277557 -0.795531 0
M  V30 20 N -5.545491 -0.094194 -1.961009 0
M  V30 21 C -5.541180 0.816679 -3.042491 0
M  V30 22 C -4.872445 0.319278 -4.291306 0
M  V30 23 O -4.167384 -0.861132 -4.094592 0
M  V30 24 C -4.983610 -1.844148 -3.592376 0
M  V30 25 C -5.605143 -1.476567 -2.277297 0
M  V30 26 C -0.530236 0.579766 -0.704154 0
M  V30 27 C 0.825889 0.719034 -0.518665 0
M  V30 28 C 1.304687 -1.472307 3.512557 0
M  V30 29 C 0.651909 -2.661245 3.783594 0
M  V30 30 C 1.281611 -3.852151 3.537923 0
M  V30 31 N 0.937437 -5.158549 3.685339 0
M  V30 32 C 1.935096 -5.996327 3.289111 0
M  V30 33 C 2.987820 -5.180670 2.859498 0
M  V30 34 C 2.553459 -3.884567 3.025795 0
M  V30 35 H 5.309274 -2.485475 2.974080 0
M  V30 36 H 4.587893 -2.005096 1.326030 0
M  V30 37 H 4.760882 -3.688688 1.811623 0
M  V30 38 H 3.126271 0.447441 3.616601 0
M  V30 39 H 6.586220 1.747350 0.395329 0
M  V30 40 H 2.777708 2.388454 -1.099600 0
M  V30 41 H 0.965471 1.608458 2.654254 0
M  V30 42 H -1.484319 1.386564 2.430360 0
M  V30 43 H -2.902807 -0.677834 -1.162986 0
M  V30 44 H -2.962735 0.994163 -1.737887 0
M  V30 45 H -5.192912 1.220439 -0.364279 0
M  V30 46 H -5.023259 -0.500546 -0.016185 0
M  V30 47 H -6.580632 1.109184 -3.307356 0
M  V30 48 H -5.044580 1.757564 -2.726520 0
M  V30 49 H -5.607508 0.160418 -5.109576 0
M  V30 50 H -4.145802 1.065889 -4.676220 0
M  V30 51 H -4.381791 -2.769964 -3.480884 0
M  V30 52 H -5.761951 -2.060670 -4.361874 0
M  V30 53 H -5.096960 -2.050607 -1.466529 0
M  V30 54 H -6.674555 -1.800806 -2.312378 0
M  V30 55 H -0.968055 0.290042 -1.649169 0
M  V30 56 H 1.459754 0.518399 -1.391859 0
M  V30 57 H 0.637168 -0.638205 3.783751 0
M  V30 58 H -0.340388 -2.773601 4.183401 0
M  V30 59 H 0.029115 -5.514641 4.053520 0
M  V30 60 H 1.886940 -7.074190 3.316406 0
M  V30 61 H 3.938021 -5.563686 2.479368 0
M  V30 END ATOM
M  V30 BEGIN BOND
M  V30 1 1 1 2
M  V30 2 2 2 3
M  V30 3 1 3 4
M  V30 4 1 4 5
M  V30 5 2 5 6
M  V30 6 1 6 7
M  V30 7 3 7 8
M  V30 8 1 6 9
M  V30 9 2 9 10
M  V30 10 1 10 11
M  V30 11 2 11 12
M  V30 12 1 12 13
M  V30 13 2 13 14
M  V30 14 1 14 15
M  V30 15 2 15 16
M  V30 16 1 16 17
M  V30 17 1 17 18
M  V30 18 1 18 19
M  V30 19 1 19 20
M  V30 20 1 20 21
M  V30 21 1 21 22
M  V30 22 1 22 23
M  V30 23 1 23 24
M  V30 24 1 24 25
M  V30 25 1 16 26
M  V30 26 2 26 27
M  V30 27 1 3 28
M  V30 28 2 28 29
M  V30 29 1 29 30
M  V30 30 1 30 31
M  V30 31 1 31 32
M  V30 32 2 32 33
M  V30 33 1 33 34
M  V30 34 1 34 2
M  V30 35 1 12 5
M  V30 36 1 27 13
M  V30 37 2 34 30
M  V30 38 1 25 20
M  V30 39 1 1 35
M  V30 40 1 1 36
M  V30 41 1 1 37
M  V30 42 1 4 38
M  V30 43 1 9 39
M  V30 44 1 11 40
M  V30 45 1 14 41
M  V30 46 1 15 42
M  V30 47 1 18 43
M  V30 48 1 18 44
M  V30 49 1 19 45
M  V30 50 1 19 46
M  V30 51 1 21 47
M  V30 52 1 21 48
M  V30 53 1 22 49
M  V30 54 1 22 50
M  V30 55 1 24 51
M  V30 56 1 24 52
M  V30 57 1 25 53
M  V30 58 1 25 54
M  V30 59 1 26 55
M  V30 60 1 27 56
M  V30 61 1 28 57
M  V30 62 1 29 58
M  V30 63 1 31 59
M  V30 64 1 32 60
M  V30 65 1 33 61
M  V30 END BOND
M  V30 END CTAB
M  END
>  <Dataset>  (519) 
ChEMBL_Kinases

>  <Ligand_Instance>  (519) 
nan

>  <PDB_ID>  (519) 
nan

>  <Standardized_SMILES>  (519) 
Cc1c(Nc2c(C#N)cncc2-c2ccc(OCCN3CCOCC3)cc2)ccc2[nH]ccc12

>  <Name>  (519) 
nan

>  <Pocket>  (519) 
nan

>  <ATP_Site>  (519) 
nan

>  <Peripheral>  (519) 
nan

>  <Num_H_Atoms_ProtBoundConf>  (519) 
nan

>  <Num_Resolved_Atoms>  (519) 
nan

>  <Num_Not_Resolved_Atoms>  (519) 
nan

$$$$
CHEMBL466211
     RDKit          3D

  0  0  0  0  0  0  0  0  0  0999 V3000
M  V30 BEGIN CTAB
M  V30 COUNTS 54 56 0 0 0
M  V30 BEGIN ATOM
M  V30 1 O 2.040985 -1.247337 2.912523 0
M  V30 2 C 1.131016 -0.467466 3.265433 0
M  V30 3 O 1.196912 0.577059 4.149166 0
M  V30 4 C 2.391972 0.907020 4.801877 0
M  V30 5 C 3.442837 1.265276 3.823273 0
M  V30 6 C 4.454927 0.507481 3.275956 0
M  V30 7 C 5.329239 1.034725 2.351292 0
M  V30 8 C 5.252386 2.340859 1.916348 0
M  V30 9 C 4.257946 3.137358 2.435177 0
M  V30 10 C 4.145428 4.544010 1.991864 0
M  V30 11 F 5.378008 5.106887 1.742763 0
M  V30 12 F 3.473231 5.265757 2.960153 0
M  V30 13 F 3.391666 4.654768 0.832240 0
M  V30 14 C 3.398008 2.584570 3.357270 0
M  V30 15 C -0.207680 -0.659142 2.678790 0
M  V30 16 C -1.333628 0.119182 2.961407 0
M  V30 17 C -2.539393 -0.119761 2.378232 0
M  V30 18 C -3.692123 0.766993 2.741877 0
M  V30 19 O -3.790390 1.871524 1.910186 0
M  V30 20 C -2.708206 -1.145208 1.477208 0
M  V30 21 C -1.642006 -1.956226 1.148465 0
M  V30 22 C -1.720783 -3.073966 0.200099 0
M  V30 23 O -0.702767 -3.760224 -0.041157 0
M  V30 24 O -2.923656 -3.316336 -0.384711 0
M  V30 25 C -3.241143 -4.324206 -1.319589 0
M  V30 26 C -2.438857 -4.214426 -2.566601 0
M  V30 27 C -1.245930 -4.825451 -2.888817 0
M  V30 28 C -0.637368 -4.600925 -4.091349 0
M  V30 29 C -1.169857 -3.760601 -5.047042 0
M  V30 30 C -2.362364 -3.117615 -4.787986 0
M  V30 31 C -2.988677 -2.207774 -5.760382 0
M  V30 32 F -2.452616 -2.466697 -7.027111 0
M  V30 33 F -4.365660 -2.301221 -5.786653 0
M  V30 34 F -2.676949 -0.901313 -5.427187 0
M  V30 35 C -2.961121 -3.365664 -3.551912 0
M  V30 36 C -0.445229 -1.666938 1.770349 0
M  V30 37 H 2.238938 1.789870 5.463792 0
M  V30 38 H 2.758626 0.044027 5.443538 0
M  V30 39 H 4.504085 -0.507104 3.640520 0
M  V30 40 H 6.089701 0.346820 1.984631 0
M  V30 41 H 5.981554 2.665973 1.188926 0
M  V30 42 H 2.631625 3.285365 3.723973 0
M  V30 43 H -1.172199 0.932993 3.685268 0
M  V30 44 H -4.591155 0.149774 2.683024 0
M  V30 45 H -3.511895 1.173032 3.778194 0
M  V30 46 H -4.344527 1.667223 1.116410 0
M  V30 47 H -3.661296 -1.343750 1.008246 0
M  V30 48 H -3.068007 -5.344034 -0.905492 0
M  V30 49 H -4.305452 -4.198760 -1.561512 0
M  V30 50 H -0.855864 -5.472434 -2.142297 0
M  V30 51 H 0.308317 -5.136664 -4.246775 0
M  V30 52 H -0.644235 -3.618019 -5.986244 0
M  V30 53 H -3.902228 -2.840455 -3.381937 0
M  V30 54 H 0.396813 -2.302280 1.514983 0
M  V30 END ATOM
M  V30 BEGIN BOND
M  V30 1 2 1 2
M  V30 2 1 2 3
M  V30 3 1 3 4
M  V30 4 1 4 5
M  V30 5 2 5 6
M  V30 6 1 6 7
M  V30 7 2 7 8
M  V30 8 1 8 9
M  V30 9 1 9 10
M  V30 10 1 10 11
M  V30 11 1 10 12
M  V30 12 1 10 13
M  V30 13 2 9 14
M  V30 14 1 2 15
M  V30 15 2 15 16
M  V30 16 1 16 17
M  V30 17 1 17 18
M  V30 18 1 18 19
M  V30 19 2 17 20
M  V30 20 1 20 21
M  V30 21 1 21 22
M  V30 22 2 22 23
M  V30 23 1 22 24
M  V30 24 1 24 25
M  V30 25 1 25 26
M  V30 26 2 26 27
M  V30 27 1 27 28
M  V30 28 2 28 29
M  V30 29 1 29 30
M  V30 30 1 30 31
M  V30 31 1 31 32
M  V30 32 1 31 33
M  V30 33 1 31 34
M  V30 34 2 30 35
M  V30 35 2 21 36
M  V30 36 1 14 5
M  V30 37 1 36 15
M  V30 38 1 35 26
M  V30 39 1 4 37
M  V30 40 1 4 38
M  V30 41 1 6 39
M  V30 42 1 7 40
M  V30 43 1 8 41
M  V30 44 1 14 42
M  V30 45 1 16 43
M  V30 46 1 18 44
M  V30 47 1 18 45
M  V30 48 1 19 46
M  V30 49 1 20 47
M  V30 50 1 25 48
M  V30 51 1 25 49
M  V30 52 1 27 50
M  V30 53 1 28 51
M  V30 54 1 29 52
M  V30 55 1 35 53
M  V30 56 1 36 54
M  V30 END BOND
M  V30 END CTAB
M  END
>  <Dataset>  (520) 
ChEMBL_Kinases

>  <Ligand_Instance>  (520) 
nan

>  <PDB_ID>  (520) 
nan

>  <Standardized_SMILES>  (520) 
O=C(OCc1cccc(C(F)(F)F)c1)c1cc(CO)cc(C(=O)OCc2cccc(C(F)(F)F)c2)c1

>  <Name>  (520) 
nan

>  <Pocket>  (520) 
nan

>  <ATP_Site>  (520) 
nan

>  <Peripheral>  (520) 
nan

>  <Num_H_Atoms_ProtBoundConf>  (520) 
nan

>  <Num_Resolved_Atoms>  (520) 
nan

>  <Num_Not_Resolved_Atoms>  (520) 
nan

$$$$
CHEMBL4648713
     RDKit          3D

  0  0  0  0  0  0  0  0  0  0999 V3000
M  V30 BEGIN CTAB
M  V30 COUNTS 43 47 0 0 0
M  V30 BEGIN ATOM
M  V30 1 O 1.401760 -2.423305 1.316768 0
M  V30 2 C 0.882607 -1.422171 1.915416 0
M  V30 3 C 1.085334 -0.114282 1.515840 0
M  V30 4 C 1.829172 0.354555 0.472491 0
M  V30 5 C 1.900622 1.688666 0.247073 0
M  V30 6 C 2.631764 2.383953 -0.800439 0
M  V30 7 C 3.376453 1.690744 -1.732441 0
M  V30 8 C 4.070783 2.346587 -2.726271 0
M  V30 9 N 4.017011 3.691620 -2.783134 0
M  V30 10 C 3.297057 4.384693 -1.884273 0
M  V30 11 N 3.125755 5.711246 -1.781760 0
M  V30 12 C 2.322765 6.004248 -0.733246 0
M  V30 13 C 2.000672 4.782151 -0.184242 0
M  V30 14 C 2.581189 3.756930 -0.864277 0
M  V30 15 S 0.895437 2.390984 1.527130 0
M  V30 16 C 0.439129 0.810802 2.292789 0
M  V30 17 N -0.334095 0.507180 3.360002 0
M  V30 18 C -0.523465 -0.777516 3.739368 0
M  V30 19 N 0.109865 -1.684614 2.977906 0
M  V30 20 C -0.094134 -3.069659 3.383387 0
M  V30 21 C -1.271212 -3.693018 2.737673 0
M  V30 22 C -2.504225 -3.563543 3.387724 0
M  V30 23 C -3.643923 -4.115920 2.850604 0
M  V30 24 C -3.640916 -4.816045 1.664095 0
M  V30 25 C -2.427592 -4.947996 1.016782 0
M  V30 26 C -2.296774 -5.689627 -0.284062 0
M  V30 27 F -1.402640 -4.988436 -1.061401 0
M  V30 28 F -1.733972 -6.949951 -0.050288 0
M  V30 29 F -3.534255 -5.818830 -0.892068 0
M  V30 30 C -1.298438 -4.394323 1.559811 0
M  V30 31 H 2.386891 -0.311932 -0.211023 0
M  V30 32 H 3.422368 0.611536 -1.690532 0
M  V30 33 H 4.632500 1.752979 -3.422509 0
M  V30 34 H 3.544145 6.431016 -2.411716 0
M  V30 35 H 1.978899 6.973059 -0.365084 0
M  V30 36 H 1.373874 4.674248 0.666398 0
M  V30 37 H -1.149683 -0.944548 4.595881 0
M  V30 38 H 0.782966 -3.696619 3.072740 0
M  V30 39 H -0.243632 -3.132694 4.478962 0
M  V30 40 H -2.541373 -3.013528 4.332084 0
M  V30 41 H -4.592075 -3.993349 3.389639 0
M  V30 42 H -4.518038 -5.260395 1.218193 0
M  V30 43 H -0.363612 -4.504274 1.048800 0
M  V30 END ATOM
M  V30 BEGIN BOND
M  V30 1 2 1 2
M  V30 2 1 2 3
M  V30 3 1 3 4
M  V30 4 2 4 5
M  V30 5 1 5 6
M  V30 6 2 6 7
M  V30 7 1 7 8
M  V30 8 2 8 9
M  V30 9 1 9 10
M  V30 10 1 10 11
M  V30 11 1 11 12
M  V30 12 2 12 13
M  V30 13 1 13 14
M  V30 14 1 5 15
M  V30 15 1 15 16
M  V30 16 1 16 17
M  V30 17 2 17 18
M  V30 18 1 18 19
M  V30 19 1 19 20
M  V30 20 1 20 21
M  V30 21 2 21 22
M  V30 22 1 22 23
M  V30 23 2 23 24
M  V30 24 1 24 25
M  V30 25 1 25 26
M  V30 26 1 26 27
M  V30 27 1 26 28
M  V30 28 1 26 29
M  V30 29 2 25 30
M  V30 30 1 19 2
M  V30 31 1 30 21
M  V30 32 2 16 3
M  V30 33 1 14 6
M  V30 34 2 14 10
M  V30 35 1 4 31
M  V30 36 1 7 32
M  V30 37 1 8 33
M  V30 38 1 11 34
M  V30 39 1 12 35
M  V30 40 1 13 36
M  V30 41 1 18 37
M  V30 42 1 20 38
M  V30 43 1 20 39
M  V30 44 1 22 40
M  V30 45 1 23 41
M  V30 46 1 24 42
M  V30 47 1 30 43
M  V30 END BOND
M  V30 END CTAB
M  END
>  <Dataset>  (521) 
ChEMBL_Kinases

>  <Ligand_Instance>  (521) 
nan

>  <PDB_ID>  (521) 
nan

>  <Standardized_SMILES>  (521) 
O=c1c2cc(-c3ccnc4[nH]ccc34)sc2ncn1Cc1cccc(C(F)(F)F)c1

>  <Name>  (521) 
nan

>  <Pocket>  (521) 
nan

>  <ATP_Site>  (521) 
nan

>  <Peripheral>  (521) 
nan

>  <Num_H_Atoms_ProtBoundConf>  (521) 
nan

>  <Num_Resolved_Atoms>  (521) 
nan

>  <Num_Not_Resolved_Atoms>  (521) 
nan

$$$$
CHEMBL567930
     RDKit          3D

  0  0  0  0  0  0  0  0  0  0999 V3000
M  V30 BEGIN CTAB
M  V30 COUNTS 52 55 0 0 0
M  V30 BEGIN ATOM
M  V30 1 C 1.032470 -3.261057 1.786472 0
M  V30 2 C 0.529083 -3.023462 0.430815 0
M  V30 3 C 0.936502 -2.010455 -0.408316 0
M  V30 4 N 1.923232 -1.139259 0.098972 0
M  V30 5 C 2.649587 -0.014920 -0.298182 0
M  V30 6 C 3.819180 -0.257277 -1.018927 0
M  V30 7 C 4.221636 -1.621408 -1.327945 0
M  V30 8 N 4.540267 -2.708637 -1.593157 0
M  V30 9 C 4.664731 0.719722 -1.485004 0
M  V30 10 N 4.329065 1.994541 -1.220623 0
M  V30 11 C 3.212754 2.285716 -0.529801 0
M  V30 12 C 2.342889 1.299415 -0.049434 0
M  V30 13 C 1.138894 1.641780 0.695485 0
M  V30 14 C 1.479058 2.569365 1.693128 0
M  V30 15 C 0.516875 3.080874 2.560632 0
M  V30 16 C -0.783433 2.689970 2.459551 0
M  V30 17 C -1.102667 1.770803 1.465832 0
M  V30 18 C -2.487054 1.285099 1.276717 0
M  V30 19 N -2.762310 0.098251 2.061975 0
M  V30 20 C -2.595468 0.332684 3.478894 0
M  V30 21 C -4.120211 -0.330246 1.787858 0
M  V30 22 C -0.159907 1.256885 0.600661 0
M  V30 23 C 0.456450 -1.794547 -1.682805 0
M  V30 24 C -0.514975 -2.645936 -2.193298 0
M  V30 25 C -0.945922 -3.664117 -1.391374 0
M  V30 26 N -1.876827 -4.615207 -1.663538 0
M  V30 27 C -1.977765 -5.419601 -0.567062 0
M  V30 28 C -1.100004 -4.961339 0.393664 0
M  V30 29 C -0.449994 -3.859734 -0.118760 0
M  V30 30 H 1.979294 -3.824301 1.840803 0
M  V30 31 H 1.174645 -2.286083 2.323603 0
M  V30 32 H 0.255152 -3.786275 2.409809 0
M  V30 33 H 2.351741 -1.217589 1.047486 0
M  V30 34 H 5.556023 0.501162 -2.035914 0
M  V30 35 H 3.001522 3.333187 -0.351632 0
M  V30 36 H 2.468436 2.995530 1.921569 0
M  V30 37 H 0.715509 3.794128 3.345105 0
M  V30 38 H -1.563877 3.073757 3.126617 0
M  V30 39 H -2.742587 1.081712 0.217407 0
M  V30 40 H -3.237380 2.050458 1.611614 0
M  V30 41 H -2.691263 -0.634443 4.001694 0
M  V30 42 H -3.384034 0.996773 3.891930 0
M  V30 43 H -1.628367 0.755414 3.741808 0
M  V30 44 H -4.182661 -0.521423 0.683985 0
M  V30 45 H -4.423323 -1.199875 2.378216 0
M  V30 46 H -4.823539 0.510655 1.972489 0
M  V30 47 H -0.311185 0.560353 -0.185053 0
M  V30 48 H 0.839091 -0.970853 -2.265776 0
M  V30 49 H -0.851117 -2.438068 -3.176819 0
M  V30 50 H -2.420394 -4.705962 -2.568408 0
M  V30 51 H -2.664333 -6.250456 -0.559859 0
M  V30 52 H -0.969149 -5.412246 1.370588 0
M  V30 END ATOM
M  V30 BEGIN BOND
M  V30 1 1 1 2
M  V30 2 2 2 3
M  V30 3 1 3 4
M  V30 4 1 4 5
M  V30 5 2 5 6
M  V30 6 1 6 7
M  V30 7 3 7 8
M  V30 8 1 6 9
M  V30 9 2 9 10
M  V30 10 1 10 11
M  V30 11 2 11 12
M  V30 12 1 12 13
M  V30 13 2 13 14
M  V30 14 1 14 15
M  V30 15 2 15 16
M  V30 16 1 16 17
M  V30 17 1 17 18
M  V30 18 1 18 19
M  V30 19 1 19 20
M  V30 20 1 19 21
M  V30 21 2 17 22
M  V30 22 1 3 23
M  V30 23 2 23 24
M  V30 24 1 24 25
M  V30 25 1 25 26
M  V30 26 1 26 27
M  V30 27 2 27 28
M  V30 28 1 28 29
M  V30 29 1 29 2
M  V30 30 1 12 5
M  V30 31 1 22 13
M  V30 32 2 29 25
M  V30 33 1 1 30
M  V30 34 1 1 31
M  V30 35 1 1 32
M  V30 36 1 4 33
M  V30 37 1 9 34
M  V30 38 1 11 35
M  V30 39 1 14 36
M  V30 40 1 15 37
M  V30 41 1 16 38
M  V30 42 1 18 39
M  V30 43 1 18 40
M  V30 44 1 20 41
M  V30 45 1 20 42
M  V30 46 1 20 43
M  V30 47 1 21 44
M  V30 48 1 21 45
M  V30 49 1 21 46
M  V30 50 1 22 47
M  V30 51 1 23 48
M  V30 52 1 24 49
M  V30 53 1 26 50
M  V30 54 1 27 51
M  V30 55 1 28 52
M  V30 END BOND
M  V30 END CTAB
M  END
>  <Dataset>  (522) 
ChEMBL_Kinases

>  <Ligand_Instance>  (522) 
nan

>  <PDB_ID>  (522) 
nan

>  <Standardized_SMILES>  (522) 
Cc1c(Nc2c(C#N)cncc2-c2cccc(CN(C)C)c2)ccc2[nH]ccc12

>  <Name>  (522) 
nan

>  <Pocket>  (522) 
nan

>  <ATP_Site>  (522) 
nan

>  <Peripheral>  (522) 
nan

>  <Num_H_Atoms_ProtBoundConf>  (522) 
nan

>  <Num_Resolved_Atoms>  (522) 
nan

>  <Num_Not_Resolved_Atoms>  (522) 
nan

$$$$
CHEMBL2048870
     RDKit          3D

  0  0  0  0  0  0  0  0  0  0999 V3000
M  V30 BEGIN CTAB
M  V30 COUNTS 51 53 0 0 0
M  V30 BEGIN ATOM
M  V30 1 C 0.513313 -3.555182 4.097513 0
M  V30 2 C 1.061335 -2.225256 4.604273 0
M  V30 3 C 2.003238 -2.560606 5.765089 0
M  V30 4 C 1.819453 -1.528719 3.498009 0
M  V30 5 O 1.019377 -1.254979 2.382075 0
M  V30 6 C 1.591237 -0.622570 1.284774 0
M  V30 7 C 2.924945 -0.225999 1.184883 0
M  V30 8 C 3.418766 0.396049 0.061021 0
M  V30 9 C 2.549087 0.627443 -0.994370 0
M  V30 10 C 1.227168 0.244587 -0.917177 0
M  V30 11 C 0.338028 0.537027 -2.056755 0
M  V30 12 C 0.483578 1.774545 -2.569873 0
M  V30 13 S 1.588635 3.133925 -2.087396 0
M  V30 14 C 0.404529 4.437988 -2.538318 0
M  V30 15 O 0.217998 5.556348 -2.030460 0
M  V30 16 N -0.271476 3.821512 -3.656698 0
M  V30 17 C -0.242976 2.394150 -3.696189 0
M  V30 18 O -0.798695 1.711828 -4.625505 0
M  V30 19 C 0.719825 -0.384691 0.214540 0
M  V30 20 N -0.641813 -0.752504 0.247603 0
M  V30 21 C -1.588306 0.217368 0.756492 0
M  V30 22 C -2.816032 0.077840 -0.132720 0
M  V30 23 C -3.431537 -1.265642 0.119269 0
M  V30 24 C -2.469893 -2.409540 0.117858 0 CFG=1
M  V30 25 N -2.916537 -3.374602 -0.900337 0
M  V30 26 C -1.059306 -2.056025 -0.215681 0
M  V30 27 H 0.127969 -3.421325 3.083127 0
M  V30 28 H 1.323416 -4.341131 4.162314 0
M  V30 29 H -0.324898 -3.863876 4.771093 0
M  V30 30 H 0.226264 -1.622045 4.996095 0
M  V30 31 H 1.514853 -2.403122 6.744464 0
M  V30 32 H 2.909906 -1.924858 5.758317 0
M  V30 33 H 2.304857 -3.649273 5.725178 0
M  V30 34 H 2.630425 -2.222204 3.172959 0
M  V30 35 H 2.323791 -0.622927 3.899501 0
M  V30 36 H 3.552494 -0.434507 2.040229 0
M  V30 37 H 4.463285 0.681948 0.039302 0
M  V30 38 H 3.028279 1.110962 -1.830993 0
M  V30 39 H -0.420962 -0.037465 -2.584937 0
M  V30 40 H -0.763077 4.398353 -4.405670 0
M  V30 41 H -1.924862 -0.028048 1.783278 0
M  V30 42 H -1.194608 1.234041 0.766301 0
M  V30 43 H -3.548179 0.864559 0.031522 0
M  V30 44 H -2.447677 0.081190 -1.192395 0
M  V30 45 H -3.889144 -1.220783 1.143745 0
M  V30 46 H -4.291031 -1.452303 -0.562446 0
M  V30 47 H -2.482917 -2.972275 1.077294 0
M  V30 48 H -2.254950 -4.190897 -0.942831 0
M  V30 49 H -3.039213 -2.903449 -1.841241 0
M  V30 50 H -0.849014 -2.117404 -1.324111 0
M  V30 51 H -0.371246 -2.784163 0.302645 0
M  V30 END ATOM
M  V30 BEGIN BOND
M  V30 1 1 1 2
M  V30 2 1 2 3
M  V30 3 1 2 4
M  V30 4 1 4 5
M  V30 5 1 5 6
M  V30 6 2 6 7
M  V30 7 1 7 8
M  V30 8 2 8 9
M  V30 9 1 9 10
M  V30 10 1 10 11
M  V30 11 2 11 12
M  V30 12 1 12 13
M  V30 13 1 13 14
M  V30 14 2 14 15
M  V30 15 1 14 16
M  V30 16 1 16 17
M  V30 17 2 17 18
M  V30 18 2 10 19
M  V30 19 1 19 20
M  V30 20 1 20 21
M  V30 21 1 21 22
M  V30 22 1 22 23
M  V30 23 1 23 24
M  V30 24 1 24 25
M  V30 25 1 24 26
M  V30 26 1 19 6
M  V30 27 1 26 20
M  V30 28 1 17 12
M  V30 29 1 1 27
M  V30 30 1 1 28
M  V30 31 1 1 29
M  V30 32 1 2 30
M  V30 33 1 3 31
M  V30 34 1 3 32
M  V30 35 1 3 33
M  V30 36 1 4 34
M  V30 37 1 4 35
M  V30 38 1 7 36
M  V30 39 1 8 37
M  V30 40 1 9 38
M  V30 41 1 11 39
M  V30 42 1 16 40
M  V30 43 1 21 41
M  V30 44 1 21 42
M  V30 45 1 22 43
M  V30 46 1 22 44
M  V30 47 1 23 45
M  V30 48 1 23 46
M  V30 49 1 24 47 CFG=1
M  V30 50 1 25 48
M  V30 51 1 25 49
M  V30 52 1 26 50
M  V30 53 1 26 51
M  V30 END BOND
M  V30 END CTAB
M  END
>  <Dataset>  (523) 
ChEMBL_Kinases

>  <Ligand_Instance>  (523) 
nan

>  <PDB_ID>  (523) 
nan

>  <Standardized_SMILES>  (523) 
CC(C)COc1cccc(/C=C2\SC(=O)NC2=O)c1N1CCC[C@@H](N)C1

>  <Name>  (523) 
nan

>  <Pocket>  (523) 
nan

>  <ATP_Site>  (523) 
nan

>  <Peripheral>  (523) 
nan

>  <Num_H_Atoms_ProtBoundConf>  (523) 
nan

>  <Num_Resolved_Atoms>  (523) 
nan

>  <Num_Not_Resolved_Atoms>  (523) 
nan

$$$$
CHEMBL4648857
     RDKit          3D

  0  0  0  0  0  0  0  0  0  0999 V3000
M  V30 BEGIN CTAB
M  V30 COUNTS 72 76 0 0 0
M  V30 BEGIN ATOM
M  V30 1 C 5.826329 -5.152717 0.768052 0
M  V30 2 N 5.713888 -5.289422 -0.678541 0
M  V30 3 C 4.355640 -5.639232 -0.988007 0
M  V30 4 C 6.167331 -4.071803 -1.343763 0
M  V30 5 C 5.197020 -2.957215 -1.061010 0
M  V30 6 C 4.555620 -2.280210 -2.004045 0
M  V30 7 C 3.635706 -1.221519 -1.602207 0
M  V30 8 O 3.521056 -1.062196 -0.365819 0
M  V30 9 N 2.904034 -0.412473 -2.479984 0
M  V30 10 C 1.980865 0.609972 -2.157912 0
M  V30 11 C 1.470826 1.407756 -3.141765 0
M  V30 12 C 0.545781 2.400678 -2.993881 0
M  V30 13 C 0.052457 2.647467 -1.730237 0
M  V30 14 C -0.971986 3.570458 -1.178020 0
M  V30 15 O -0.678591 4.743336 -0.854722 0
M  V30 16 N -2.241488 2.897363 -1.095228 0
M  V30 17 C -2.340410 1.518241 -1.585080 0
M  V30 18 C -3.759032 1.115307 -1.897842 0
M  V30 19 C -4.537024 0.948811 -0.588089 0
M  V30 20 C -3.976949 2.086662 0.291980 0 CFG=2
M  V30 21 N -4.848655 2.392633 1.393765 0
M  V30 22 C -4.920929 1.349435 2.399357 0
M  V30 23 N -5.727748 1.492742 3.466040 0
M  V30 24 C -5.778821 0.541914 4.413692 0
M  V30 25 C -5.007216 -0.598002 4.310628 0
M  V30 26 Cl -4.947495 -1.934825 5.452790 0
M  V30 27 C -4.181995 -0.759070 3.232986 0
M  V30 28 C -3.247655 -1.847648 2.884639 0
M  V30 29 C -3.306051 -3.226317 2.675218 0
M  V30 30 N -2.060633 -3.676437 2.361999 0
M  V30 31 C -1.182806 -2.658501 2.355686 0
M  V30 32 C 0.195789 -2.594577 2.103564 0
M  V30 33 C 0.857991 -1.379610 2.176925 0
M  V30 34 C 0.186036 -0.220373 2.495035 0
M  V30 35 C -1.162108 -0.361405 2.727739 0
M  V30 36 C -1.902709 -1.531035 2.676620 0
M  V30 37 N -4.201067 0.245321 2.340596 0
M  V30 38 C -3.577177 3.229829 -0.583783 0
M  V30 39 C 0.513593 1.878303 -0.639614 0
M  V30 40 C 1.463846 0.891156 -0.914042 0
M  V30 41 H 6.901302 -4.938693 0.955854 0
M  V30 42 H 5.175775 -4.374684 1.177247 0
M  V30 43 H 5.569079 -6.108217 1.258016 0
M  V30 44 H 4.304477 -6.765535 -0.904576 0
M  V30 45 H 3.696559 -5.263758 -0.165877 0
M  V30 46 H 4.038376 -5.350810 -1.992313 0
M  V30 47 H 7.183607 -3.843592 -0.986755 0
M  V30 48 H 6.169694 -4.344116 -2.431964 0
M  V30 49 H 5.074152 -2.751488 -0.003640 0
M  V30 50 H 4.778142 -2.583629 -3.017676 0
M  V30 51 H 3.100110 -0.633518 -3.484980 0
M  V30 52 H 1.787556 1.304250 -4.173430 0
M  V30 53 H 0.099183 3.067411 -3.684377 0
M  V30 54 H -1.750081 1.389855 -2.525580 0
M  V30 55 H -1.875237 0.824301 -0.859561 0
M  V30 56 H -4.284760 1.798125 -2.585679 0
M  V30 57 H -3.707635 0.113119 -2.364661 0
M  V30 58 H -5.613900 1.050771 -0.704477 0
M  V30 59 H -4.298181 0.011826 -0.092379 0
M  V30 60 H -3.002883 1.624507 0.679319 0
M  V30 61 H -5.421449 3.251672 1.543830 0
M  V30 62 H -6.398755 0.581081 5.306356 0
M  V30 63 H -4.273353 -3.678587 2.789787 0
M  V30 64 H -1.897509 -4.698370 2.170835 0
M  V30 65 H 0.728174 -3.513086 1.855369 0
M  V30 66 H 1.929859 -1.317224 1.984000 0
M  V30 67 H 0.698207 0.719395 2.555928 0
M  V30 68 H -1.656101 0.583890 2.976169 0
M  V30 69 H -3.502871 4.151365 0.010248 0
M  V30 70 H -4.280546 3.427723 -1.406636 0
M  V30 71 H 0.215463 1.959646 0.414384 0
M  V30 72 H 1.810549 0.295444 -0.065871 0
M  V30 END ATOM
M  V30 BEGIN BOND
M  V30 1 1 1 2
M  V30 2 1 2 3
M  V30 3 1 2 4
M  V30 4 1 4 5
M  V30 5 2 5 6
M  V30 6 1 6 7
M  V30 7 2 7 8
M  V30 8 1 7 9
M  V30 9 1 9 10
M  V30 10 2 10 11
M  V30 11 1 11 12
M  V30 12 2 12 13
M  V30 13 1 13 14
M  V30 14 2 14 15
M  V30 15 1 14 16
M  V30 16 1 16 17
M  V30 17 1 17 18
M  V30 18 1 18 19
M  V30 19 1 19 20
M  V30 20 1 20 21
M  V30 21 1 21 22
M  V30 22 2 22 23
M  V30 23 1 23 24
M  V30 24 2 24 25
M  V30 25 1 25 26
M  V30 26 1 25 27
M  V30 27 1 27 28
M  V30 28 2 28 29
M  V30 29 1 29 30
M  V30 30 1 30 31
M  V30 31 2 31 32
M  V30 32 1 32 33
M  V30 33 2 33 34
M  V30 34 1 34 35
M  V30 35 2 35 36
M  V30 36 2 27 37
M  V30 37 1 20 38
M  V30 38 1 13 39
M  V30 39 2 39 40
M  V30 40 1 40 10
M  V30 41 1 38 16
M  V30 42 1 37 22
M  V30 43 1 36 28
M  V30 44 1 36 31
M  V30 45 1 1 41
M  V30 46 1 1 42
M  V30 47 1 1 43
M  V30 48 1 3 44
M  V30 49 1 3 45
M  V30 50 1 3 46
M  V30 51 1 4 47
M  V30 52 1 4 48
M  V30 53 1 5 49
M  V30 54 1 6 50
M  V30 55 1 9 51
M  V30 56 1 11 52
M  V30 57 1 12 53
M  V30 58 1 17 54
M  V30 59 1 17 55
M  V30 60 1 18 56
M  V30 61 1 18 57
M  V30 62 1 19 58
M  V30 63 1 19 59
M  V30 64 1 20 60 CFG=1
M  V30 65 1 21 61
M  V30 66 1 24 62
M  V30 67 1 29 63
M  V30 68 1 30 64
M  V30 69 1 32 65
M  V30 70 1 33 66
M  V30 71 1 34 67
M  V30 72 1 35 68
M  V30 73 1 38 69
M  V30 74 1 38 70
M  V30 75 1 39 71
M  V30 76 1 40 72
M  V30 END BOND
M  V30 END CTAB
M  END
>  <Dataset>  (524) 
ChEMBL_Kinases

>  <Ligand_Instance>  (524) 
nan

>  <PDB_ID>  (524) 
nan

>  <Standardized_SMILES>  (524) 
CN(C)C/C=C/C(=O)Nc1ccc(C(=O)N2CCC[C@H](Nc3ncc(Cl)c(-c4c[nH]c5ccccc45)n3)C2)cc1

>  <Name>  (524) 
nan

>  <Pocket>  (524) 
nan

>  <ATP_Site>  (524) 
nan

>  <Peripheral>  (524) 
nan

>  <Num_H_Atoms_ProtBoundConf>  (524) 
nan

>  <Num_Resolved_Atoms>  (524) 
nan

>  <Num_Not_Resolved_Atoms>  (524) 
nan

$$$$
CHEMBL2048860
     RDKit          3D

  0  0  0  0  0  0  0  0  0  0999 V3000
M  V30 BEGIN CTAB
M  V30 COUNTS 50 52 0 0 0
M  V30 BEGIN ATOM
M  V30 1 C 3.948657 -4.805400 3.748020 0
M  V30 2 C 2.732372 -3.935516 3.953455 0
M  V30 3 C 2.955298 -3.068992 5.172879 0
M  V30 4 C 1.498645 -4.811935 4.127842 0
M  V30 5 O 2.565358 -3.072528 2.839013 0
M  V30 6 C 1.556429 -2.155641 2.744226 0
M  V30 7 O 0.675684 -1.991053 3.648386 0
M  V30 8 N 1.408214 -1.304381 1.620022 0
M  V30 9 C 0.444798 -0.283296 1.319174 0 CFG=1
M  V30 10 C 1.094374 1.031960 0.948276 0
M  V30 11 C 0.328914 1.390489 -0.334844 0
M  V30 12 N -0.980225 0.741627 -0.139057 0
M  V30 13 C -2.154082 1.568346 -0.263428 0
M  V30 14 C -3.011065 1.656269 0.811242 0
M  V30 15 C -4.104231 2.483400 0.691463 0
M  V30 16 C -4.303167 3.183557 -0.475825 0
M  V30 17 C -3.435716 3.085811 -1.547919 0
M  V30 18 C -2.315301 2.245947 -1.445182 0
M  V30 19 C -1.548530 2.227799 -2.673734 0
M  V30 20 C -1.258251 1.123882 -3.332263 0
M  V30 21 S -1.606903 -0.615466 -3.085917 0
M  V30 22 C -0.744322 -1.190136 -4.544357 0
M  V30 23 O -0.759316 -2.418752 -4.720368 0
M  V30 24 N -0.223072 -0.031583 -5.180533 0
M  V30 25 C -0.482408 1.189387 -4.561177 0
M  V30 26 O -0.003257 2.221724 -5.154605 0
M  V30 27 C -0.413979 -0.568567 0.130423 0
M  V30 28 H 4.477202 -4.560025 2.785225 0
M  V30 29 H 4.620015 -4.745444 4.619866 0
M  V30 30 H 3.618006 -5.851963 3.636194 0
M  V30 31 H 1.985361 -2.789454 5.664893 0
M  V30 32 H 3.508160 -3.616042 5.977309 0
M  V30 33 H 3.526730 -2.152698 4.959429 0
M  V30 34 H 0.683624 -4.165676 4.488100 0
M  V30 35 H 1.306349 -5.371215 3.209840 0
M  V30 36 H 1.726811 -5.562874 4.913764 0
M  V30 37 H 2.084715 -1.357055 0.802828 0
M  V30 38 H -0.226519 -0.213707 2.197500 0
M  V30 39 H 2.144302 0.870253 0.690554 0
M  V30 40 H 0.891488 1.786808 1.710129 0
M  V30 41 H 0.770704 0.905843 -1.229015 0
M  V30 42 H 0.275252 2.462675 -0.482498 0
M  V30 43 H -2.768480 1.062614 1.694340 0
M  V30 44 H -4.760123 2.530770 1.553960 0
M  V30 45 H -5.194072 3.798775 -0.445767 0
M  V30 46 H -3.700017 3.682089 -2.396842 0
M  V30 47 H -1.217176 3.209912 -3.020826 0
M  V30 48 H 0.290315 -0.306223 -6.046024 0
M  V30 49 H -1.220086 -1.306966 0.329702 0
M  V30 50 H 0.214041 -0.848785 -0.738610 0
M  V30 END ATOM
M  V30 BEGIN BOND
M  V30 1 1 1 2
M  V30 2 1 2 3
M  V30 3 1 2 4
M  V30 4 1 2 5
M  V30 5 1 5 6
M  V30 6 2 6 7
M  V30 7 1 6 8
M  V30 8 1 8 9
M  V30 9 1 9 10
M  V30 10 1 10 11
M  V30 11 1 11 12
M  V30 12 1 12 13
M  V30 13 2 13 14
M  V30 14 1 14 15
M  V30 15 2 15 16
M  V30 16 1 16 17
M  V30 17 2 17 18
M  V30 18 1 18 19
M  V30 19 2 19 20
M  V30 20 1 20 21
M  V30 21 1 21 22
M  V30 22 2 22 23
M  V30 23 1 22 24
M  V30 24 1 24 25
M  V30 25 2 25 26
M  V30 26 1 12 27
M  V30 27 1 27 9
M  V30 28 1 18 13
M  V30 29 1 25 20
M  V30 30 1 1 28
M  V30 31 1 1 29
M  V30 32 1 1 30
M  V30 33 1 3 31
M  V30 34 1 3 32
M  V30 35 1 3 33
M  V30 36 1 4 34
M  V30 37 1 4 35
M  V30 38 1 4 36
M  V30 39 1 8 37
M  V30 40 1 9 38 CFG=1
M  V30 41 1 10 39
M  V30 42 1 10 40
M  V30 43 1 11 41
M  V30 44 1 11 42
M  V30 45 1 14 43
M  V30 46 1 15 44
M  V30 47 1 16 45
M  V30 48 1 17 46
M  V30 49 1 19 47
M  V30 50 1 24 48
M  V30 51 1 27 49
M  V30 52 1 27 50
M  V30 END BOND
M  V30 END CTAB
M  END
>  <Dataset>  (525) 
ChEMBL_Kinases

>  <Ligand_Instance>  (525) 
nan

>  <PDB_ID>  (525) 
nan

>  <Standardized_SMILES>  (525) 
CC(C)(C)OC(=O)N[C@H]1CCN(c2ccccc2/C=C2\SC(=O)NC2=O)C1

>  <Name>  (525) 
nan

>  <Pocket>  (525) 
nan

>  <ATP_Site>  (525) 
nan

>  <Peripheral>  (525) 
nan

>  <Num_H_Atoms_ProtBoundConf>  (525) 
nan

>  <Num_Resolved_Atoms>  (525) 
nan

>  <Num_Not_Resolved_Atoms>  (525) 
nan

$$$$
CHEMBL567730
     RDKit          3D

  0  0  0  0  0  0  0  0  0  0999 V3000
M  V30 BEGIN CTAB
M  V30 COUNTS 57 61 0 0 0
M  V30 BEGIN ATOM
M  V30 1 C 0.834675 -2.606874 1.119508 0
M  V30 2 C 1.743269 -2.833003 -0.005965 0
M  V30 3 C 2.717295 -1.941446 -0.288629 0
M  V30 4 N 3.076876 -0.718655 0.283888 0
M  V30 5 C 2.947645 0.620904 0.559729 0
M  V30 6 C 4.039877 1.410501 0.150141 0
M  V30 7 C 5.206710 0.802129 -0.484754 0
M  V30 8 N 6.149337 0.309883 -0.975100 0
M  V30 9 C 4.185049 2.781686 0.285737 0
M  V30 10 N 3.141737 3.372818 0.879923 0
M  V30 11 C 2.049827 2.733438 1.311665 0
M  V30 12 C 1.979413 1.374099 1.139750 0
M  V30 13 C 0.683540 0.935958 1.598825 0
M  V30 14 C 0.412770 1.106596 2.963163 0
M  V30 15 C -0.801112 0.790867 3.584390 0
M  V30 16 C -1.803636 0.273163 2.790604 0
M  V30 17 C -1.574530 0.090743 1.442211 0
M  V30 18 C -2.570539 -0.449191 0.511115 0
M  V30 19 N -3.403856 0.551157 -0.122451 0
M  V30 20 C -4.165473 1.339064 0.806266 0
M  V30 21 C -5.455011 0.734601 1.245686 0
M  V30 22 O -5.532459 -0.614723 0.901563 0
M  V30 23 C -5.440427 -0.811109 -0.454725 0
M  V30 24 C -4.294940 -0.064904 -1.061162 0
M  V30 25 C -0.364674 0.414808 0.871042 0
M  V30 26 C 3.556880 -2.323412 -1.344193 0
M  V30 27 C 3.485760 -3.495905 -2.109212 0
M  V30 28 C 2.440639 -4.289986 -1.695251 0
M  V30 29 N 2.065763 -5.485175 -2.197239 0
M  V30 30 C 0.997710 -5.960297 -1.536374 0
M  V30 31 C 0.667367 -5.054204 -0.580505 0
M  V30 32 C 1.562994 -4.009759 -0.673790 0
M  V30 33 H 0.728436 -3.587311 1.689502 0
M  V30 34 H -0.164195 -2.422679 0.722751 0
M  V30 35 H 1.147125 -1.855199 1.836863 0
M  V30 36 H 3.932649 -1.044915 0.843621 0
M  V30 37 H 5.041375 3.347326 -0.044241 0
M  V30 38 H 1.355721 3.404345 1.749712 0
M  V30 39 H 1.189776 1.516326 3.621745 0
M  V30 40 H -0.912225 0.957582 4.636381 0
M  V30 41 H -2.756281 0.011655 3.216157 0
M  V30 42 H -2.149323 -1.152358 -0.233792 0
M  V30 43 H -3.259687 -1.086928 1.139322 0
M  V30 44 H -3.557735 1.659377 1.678861 0
M  V30 45 H -4.392920 2.304021 0.267634 0
M  V30 46 H -5.659572 0.864291 2.329428 0
M  V30 47 H -6.292675 1.223901 0.709684 0
M  V30 48 H -6.382099 -0.583816 -0.999079 0
M  V30 49 H -5.270324 -1.914808 -0.597177 0
M  V30 50 H -4.704956 0.732331 -1.734969 0
M  V30 51 H -3.670940 -0.757132 -1.696223 0
M  V30 52 H -0.147428 0.285706 -0.184457 0
M  V30 53 H 4.394808 -1.685983 -1.681215 0
M  V30 54 H 4.171116 -3.718380 -2.907748 0
M  V30 55 H 2.523434 -5.990582 -2.986656 0
M  V30 56 H 0.496232 -6.901023 -1.738274 0
M  V30 57 H -0.136777 -5.103272 0.137404 0
M  V30 END ATOM
M  V30 BEGIN BOND
M  V30 1 1 1 2
M  V30 2 2 2 3
M  V30 3 1 3 4
M  V30 4 1 4 5
M  V30 5 2 5 6
M  V30 6 1 6 7
M  V30 7 3 7 8
M  V30 8 1 6 9
M  V30 9 2 9 10
M  V30 10 1 10 11
M  V30 11 2 11 12
M  V30 12 1 12 13
M  V30 13 2 13 14
M  V30 14 1 14 15
M  V30 15 2 15 16
M  V30 16 1 16 17
M  V30 17 1 17 18
M  V30 18 1 18 19
M  V30 19 1 19 20
M  V30 20 1 20 21
M  V30 21 1 21 22
M  V30 22 1 22 23
M  V30 23 1 23 24
M  V30 24 2 17 25
M  V30 25 1 3 26
M  V30 26 2 26 27
M  V30 27 1 27 28
M  V30 28 1 28 29
M  V30 29 1 29 30
M  V30 30 2 30 31
M  V30 31 1 31 32
M  V30 32 1 32 2
M  V30 33 1 12 5
M  V30 34 1 25 13
M  V30 35 2 32 28
M  V30 36 1 24 19
M  V30 37 1 1 33
M  V30 38 1 1 34
M  V30 39 1 1 35
M  V30 40 1 4 36
M  V30 41 1 9 37
M  V30 42 1 11 38
M  V30 43 1 14 39
M  V30 44 1 15 40
M  V30 45 1 16 41
M  V30 46 1 18 42
M  V30 47 1 18 43
M  V30 48 1 20 44
M  V30 49 1 20 45
M  V30 50 1 21 46
M  V30 51 1 21 47
M  V30 52 1 23 48
M  V30 53 1 23 49
M  V30 54 1 24 50
M  V30 55 1 24 51
M  V30 56 1 25 52
M  V30 57 1 26 53
M  V30 58 1 27 54
M  V30 59 1 29 55
M  V30 60 1 30 56
M  V30 61 1 31 57
M  V30 END BOND
M  V30 END CTAB
M  END
>  <Dataset>  (526) 
ChEMBL_Kinases

>  <Ligand_Instance>  (526) 
nan

>  <PDB_ID>  (526) 
nan

>  <Standardized_SMILES>  (526) 
Cc1c(Nc2c(C#N)cncc2-c2cccc(CN3CCOCC3)c2)ccc2[nH]ccc12

>  <Name>  (526) 
nan

>  <Pocket>  (526) 
nan

>  <ATP_Site>  (526) 
nan

>  <Peripheral>  (526) 
nan

>  <Num_H_Atoms_ProtBoundConf>  (526) 
nan

>  <Num_Resolved_Atoms>  (526) 
nan

>  <Num_Not_Resolved_Atoms>  (526) 
nan

$$$$
CHEMBL567300
     RDKit          3D

  0  0  0  0  0  0  0  0  0  0999 V3000
M  V30 BEGIN CTAB
M  V30 COUNTS 58 62 0 0 0
M  V30 BEGIN ATOM
M  V30 1 C 1.906178 -3.286179 2.177711 0
M  V30 2 C 2.164445 -2.873458 0.760483 0
M  V30 3 C 2.693376 -1.615066 0.551422 0
M  V30 4 N 2.978418 -0.747106 1.666327 0
M  V30 5 C 3.522699 0.534754 1.403481 0
M  V30 6 C 4.920094 0.614153 1.351495 0
M  V30 7 C 5.731990 -0.558972 1.557940 0
M  V30 8 N 6.396947 -1.486648 1.729135 0
M  V30 9 C 5.508018 1.850326 1.096311 0
M  V30 10 N 4.765611 2.977748 0.897067 0
M  V30 11 C 3.402277 2.897662 0.948301 0
M  V30 12 C 2.795293 1.687762 1.198884 0
M  V30 13 C 1.419785 1.655261 1.242975 0
M  V30 14 C 0.413308 2.549935 1.092917 0
M  V30 15 C -0.915002 2.240549 1.189807 0
M  V30 16 C -1.166216 0.853002 1.471242 0
M  V30 17 C -2.483426 0.160387 1.648431 0
M  V30 18 N -3.020116 -0.353067 0.438901 0
M  V30 19 C -3.291052 0.544363 -0.604842 0
M  V30 20 C -4.607849 0.359978 -1.307039 0
M  V30 21 N -5.560495 -0.265376 -0.423029 0
M  V30 22 C -5.885327 0.549063 0.722821 0
M  V30 23 C -5.095627 -1.579297 -0.062884 0
M  V30 24 C -3.706058 -1.585026 0.503090 0
M  V30 25 S 0.489999 0.087273 1.578368 0
M  V30 26 C 2.957065 -1.169142 -0.727223 0
M  V30 27 C 2.662748 -2.045830 -1.754162 0
M  V30 28 C 2.134479 -3.306197 -1.568853 0
M  V30 29 N 1.784751 -4.290684 -2.417811 0
M  V30 30 C 1.309487 -5.340331 -1.703669 0
M  V30 31 C 1.354218 -5.021918 -0.348333 0
M  V30 32 C 1.871024 -3.748615 -0.269802 0
M  V30 33 H 1.397229 -4.262723 2.181476 0
M  V30 34 H 2.919113 -3.433062 2.626797 0
M  V30 35 H 1.320952 -2.547637 2.744557 0
M  V30 36 H 2.778195 -1.081709 2.634811 0
M  V30 37 H 6.593663 1.958368 1.046914 0
M  V30 38 H 2.836293 3.792143 0.789620 0
M  V30 39 H 0.724712 3.565489 0.883729 0
M  V30 40 H -1.748932 2.909552 1.079856 0
M  V30 41 H -2.363779 -0.707801 2.348767 0
M  V30 42 H -3.194997 0.830278 2.158097 0
M  V30 43 H -2.482415 0.446222 -1.384023 0
M  V30 44 H -3.239388 1.583112 -0.252561 0
M  V30 45 H -4.998291 1.332672 -1.638586 0
M  V30 46 H -4.465267 -0.300431 -2.170559 0
M  V30 47 H -5.682362 -0.078425 1.628998 0
M  V30 48 H -6.982088 0.714745 0.716435 0
M  V30 49 H -5.368511 1.518793 0.754151 0
M  V30 50 H -5.861548 -2.036618 0.601586 0
M  V30 51 H -5.087753 -2.191020 -0.993913 0
M  V30 52 H -3.065384 -2.381845 0.066540 0
M  V30 53 H -3.808471 -1.850969 1.592897 0
M  V30 54 H 3.367427 -0.193247 -0.895618 0
M  V30 55 H 2.856444 -1.733014 -2.788831 0
M  V30 56 H 1.843797 -4.305307 -3.447463 0
M  V30 57 H 0.926396 -6.319466 -1.990616 0
M  V30 58 H 1.078531 -5.555254 0.554741 0
M  V30 END ATOM
M  V30 BEGIN BOND
M  V30 1 1 1 2
M  V30 2 2 2 3
M  V30 3 1 3 4
M  V30 4 1 4 5
M  V30 5 2 5 6
M  V30 6 1 6 7
M  V30 7 3 7 8
M  V30 8 1 6 9
M  V30 9 2 9 10
M  V30 10 1 10 11
M  V30 11 2 11 12
M  V30 12 1 12 13
M  V30 13 2 13 14
M  V30 14 1 14 15
M  V30 15 2 15 16
M  V30 16 1 16 17
M  V30 17 1 17 18
M  V30 18 1 18 19
M  V30 19 1 19 20
M  V30 20 1 20 21
M  V30 21 1 21 22
M  V30 22 1 21 23
M  V30 23 1 23 24
M  V30 24 1 16 25
M  V30 25 1 3 26
M  V30 26 2 26 27
M  V30 27 1 27 28
M  V30 28 1 28 29
M  V30 29 1 29 30
M  V30 30 2 30 31
M  V30 31 1 31 32
M  V30 32 1 32 2
M  V30 33 1 12 5
M  V30 34 1 25 13
M  V30 35 2 32 28
M  V30 36 1 24 18
M  V30 37 1 1 33
M  V30 38 1 1 34
M  V30 39 1 1 35
M  V30 40 1 4 36
M  V30 41 1 9 37
M  V30 42 1 11 38
M  V30 43 1 14 39
M  V30 44 1 15 40
M  V30 45 1 17 41
M  V30 46 1 17 42
M  V30 47 1 19 43
M  V30 48 1 19 44
M  V30 49 1 20 45
M  V30 50 1 20 46
M  V30 51 1 22 47
M  V30 52 1 22 48
M  V30 53 1 22 49
M  V30 54 1 23 50
M  V30 55 1 23 51
M  V30 56 1 24 52
M  V30 57 1 24 53
M  V30 58 1 26 54
M  V30 59 1 27 55
M  V30 60 1 29 56
M  V30 61 1 30 57
M  V30 62 1 31 58
M  V30 END BOND
M  V30 END CTAB
M  END
>  <Dataset>  (527) 
ChEMBL_Kinases

>  <Ligand_Instance>  (527) 
nan

>  <PDB_ID>  (527) 
nan

>  <Standardized_SMILES>  (527) 
Cc1c(Nc2c(C#N)cncc2-c2ccc(CN3CCN(C)CC3)s2)ccc2[nH]ccc12

>  <Name>  (527) 
nan

>  <Pocket>  (527) 
nan

>  <ATP_Site>  (527) 
nan

>  <Peripheral>  (527) 
nan

>  <Num_H_Atoms_ProtBoundConf>  (527) 
nan

>  <Num_Resolved_Atoms>  (527) 
nan

>  <Num_Not_Resolved_Atoms>  (527) 
nan

$$$$
CHEMBL567299
     RDKit          3D

  0  0  0  0  0  0  0  0  0  0999 V3000
M  V30 BEGIN CTAB
M  V30 COUNTS 61 65 0 0 0
M  V30 BEGIN ATOM
M  V30 1 C 3.939358 0.171765 3.939280 0
M  V30 2 C 3.030102 -0.964553 3.803430 0
M  V30 3 C 2.758022 -1.368062 2.514788 0
M  V30 4 N 3.206516 -0.859696 1.283744 0
M  V30 5 C 3.217682 0.335357 0.561439 0
M  V30 6 C 4.337371 1.170514 0.460272 0
M  V30 7 C 5.577419 0.779029 1.091325 0
M  V30 8 N 6.572499 0.443719 1.604202 0
M  V30 9 C 4.392092 2.362575 -0.213465 0
M  V30 10 N 3.272079 2.763546 -0.831272 0
M  V30 11 C 2.146124 2.032955 -0.794126 0
M  V30 12 C 2.123984 0.837081 -0.106867 0
M  V30 13 C 0.844629 0.164580 -0.173690 0
M  V30 14 C -0.296180 0.929452 0.105060 0
M  V30 15 C -1.595008 0.465036 0.079856 0
M  V30 16 C -1.796779 -0.856182 -0.244528 0
M  V30 17 C -3.202946 -1.334948 -0.265941 0
M  V30 18 N -3.699306 -1.124360 -1.621500 0
M  V30 19 C -5.079070 -1.570526 -1.686374 0
M  V30 20 C -5.649008 -0.957800 -2.958546 0
M  V30 21 N -4.791104 -1.215451 -4.071072 0
M  V30 22 C -4.423769 -0.076856 -4.851590 0
M  V30 23 C -3.759369 -2.170803 -3.834005 0
M  V30 24 C -2.964848 -1.940694 -2.569139 0
M  V30 25 C -0.709879 -1.655282 -0.528170 0
M  V30 26 C 0.570123 -1.147022 -0.490340 0
M  V30 27 C 1.884239 -2.452773 2.371822 0
M  V30 28 C 1.341650 -3.062225 3.486736 0
M  V30 29 C 1.650524 -2.614548 4.752358 0
M  V30 30 N 1.311512 -2.965316 6.021795 0
M  V30 31 C 1.909410 -2.180678 6.928334 0
M  V30 32 C 2.695057 -1.247561 6.264680 0
M  V30 33 C 2.505770 -1.551135 4.932660 0
M  V30 34 H 4.985002 -0.187308 3.821281 0
M  V30 35 H 3.687994 1.025667 3.278968 0
M  V30 36 H 3.889347 0.577115 4.969220 0
M  V30 37 H 3.712968 -1.452516 0.576367 0
M  V30 38 H 5.270857 2.967481 -0.262977 0
M  V30 39 H 1.318034 2.465179 -1.330061 0
M  V30 40 H -0.169825 1.982935 0.366227 0
M  V30 41 H -2.412776 1.132964 0.310374 0
M  V30 42 H -3.146319 -2.451273 -0.127214 0
M  V30 43 H -3.849827 -0.897938 0.490018 0
M  V30 44 H -5.042830 -2.678181 -1.761088 0
M  V30 45 H -5.625450 -1.201824 -0.803559 0
M  V30 46 H -5.610984 0.153936 -2.771894 0
M  V30 47 H -6.709025 -1.214278 -3.121556 0
M  V30 48 H -5.379269 0.370190 -5.254313 0
M  V30 49 H -3.845557 -0.441006 -5.717592 0
M  V30 50 H -3.819467 0.682148 -4.313249 0
M  V30 51 H -4.232356 -3.176524 -3.853597 0
M  V30 52 H -3.057052 -2.159934 -4.686489 0
M  V30 53 H -2.868823 -2.941784 -2.074729 0
M  V30 54 H -1.958479 -1.549368 -2.732162 0
M  V30 55 H -0.866125 -2.685923 -0.781106 0
M  V30 56 H 1.459460 -1.745994 -0.708497 0
M  V30 57 H 1.509133 -2.972443 1.487424 0
M  V30 58 H 0.658587 -3.902449 3.516582 0
M  V30 59 H 0.657096 -3.759040 6.263916 0
M  V30 60 H 1.787513 -2.274299 8.001531 0
M  V30 61 H 3.311457 -0.465287 6.692449 0
M  V30 END ATOM
M  V30 BEGIN BOND
M  V30 1 1 1 2
M  V30 2 2 2 3
M  V30 3 1 3 4
M  V30 4 1 4 5
M  V30 5 2 5 6
M  V30 6 1 6 7
M  V30 7 3 7 8
M  V30 8 1 6 9
M  V30 9 2 9 10
M  V30 10 1 10 11
M  V30 11 2 11 12
M  V30 12 1 12 13
M  V30 13 2 13 14
M  V30 14 1 14 15
M  V30 15 2 15 16
M  V30 16 1 16 17
M  V30 17 1 17 18
M  V30 18 1 18 19
M  V30 19 1 19 20
M  V30 20 1 20 21
M  V30 21 1 21 22
M  V30 22 1 21 23
M  V30 23 1 23 24
M  V30 24 1 16 25
M  V30 25 2 25 26
M  V30 26 1 3 27
M  V30 27 2 27 28
M  V30 28 1 28 29
M  V30 29 1 29 30
M  V30 30 1 30 31
M  V30 31 2 31 32
M  V30 32 1 32 33
M  V30 33 1 33 2
M  V30 34 1 12 5
M  V30 35 1 26 13
M  V30 36 2 33 29
M  V30 37 1 24 18
M  V30 38 1 1 34
M  V30 39 1 1 35
M  V30 40 1 1 36
M  V30 41 1 4 37
M  V30 42 1 9 38
M  V30 43 1 11 39
M  V30 44 1 14 40
M  V30 45 1 15 41
M  V30 46 1 17 42
M  V30 47 1 17 43
M  V30 48 1 19 44
M  V30 49 1 19 45
M  V30 50 1 20 46
M  V30 51 1 20 47
M  V30 52 1 22 48
M  V30 53 1 22 49
M  V30 54 1 22 50
M  V30 55 1 23 51
M  V30 56 1 23 52
M  V30 57 1 24 53
M  V30 58 1 24 54
M  V30 59 1 25 55
M  V30 60 1 26 56
M  V30 61 1 27 57
M  V30 62 1 28 58
M  V30 63 1 30 59
M  V30 64 1 31 60
M  V30 65 1 32 61
M  V30 END BOND
M  V30 END CTAB
M  END
>  <Dataset>  (528) 
ChEMBL_Kinases

>  <Ligand_Instance>  (528) 
nan

>  <PDB_ID>  (528) 
nan

>  <Standardized_SMILES>  (528) 
Cc1c(Nc2c(C#N)cncc2-c2ccc(CN3CCN(C)CC3)cc2)ccc2[nH]ccc12

>  <Name>  (528) 
nan

>  <Pocket>  (528) 
nan

>  <ATP_Site>  (528) 
nan

>  <Peripheral>  (528) 
nan

>  <Num_H_Atoms_ProtBoundConf>  (528) 
nan

>  <Num_Resolved_Atoms>  (528) 
nan

>  <Num_Not_Resolved_Atoms>  (528) 
nan

$$$$
CHEMBL567103
     RDKit          3D

  0  0  0  0  0  0  0  0  0  0999 V3000
M  V30 BEGIN CTAB
M  V30 COUNTS 64 68 0 0 0
M  V30 BEGIN ATOM
M  V30 1 C 2.521278 -2.243631 3.414116 0
M  V30 2 C 1.309480 -1.471822 3.684019 0
M  V30 3 C 1.404746 -0.120842 3.448839 0
M  V30 4 N 2.460587 0.664410 2.984915 0
M  V30 5 C 3.325614 0.776253 1.896814 0
M  V30 6 C 4.651041 0.325768 1.927473 0
M  V30 7 C 5.195270 -0.246299 3.129515 0
M  V30 8 N 5.618658 -0.709901 4.114093 0
M  V30 9 C 5.536444 0.391198 0.872413 0
M  V30 10 N 5.086373 0.931136 -0.272149 0
M  V30 11 C 3.822672 1.372427 -0.333334 0
M  V30 12 C 2.913429 1.321520 0.702171 0
M  V30 13 C 1.591986 1.868013 0.427754 0
M  V30 14 C 0.690844 2.731610 1.013125 0
M  V30 15 O -0.378303 2.849251 0.288753 0
M  V30 16 C -0.312328 2.120815 -0.794951 0
M  V30 17 C -1.358609 2.010762 -1.856273 0
M  V30 18 N -2.290841 0.958008 -1.597484 0
M  V30 19 C -3.322860 0.793883 -2.574046 0
M  V30 20 C -3.263173 -0.511285 -3.333136 0
M  V30 21 C -3.128803 -1.717400 -2.460279 0
M  V30 22 N -2.179305 -2.620865 -3.076558 0
M  V30 23 C -1.985538 -3.823705 -2.294288 0
M  V30 24 C -2.687605 -3.010214 -4.370526 0
M  V30 25 C -2.728161 -1.324572 -1.066849 0
M  V30 26 C -1.650930 -0.273230 -1.198884 0
M  V30 27 C 0.912983 1.489847 -0.740937 0
M  V30 28 C 0.257519 0.644972 3.693403 0
M  V30 29 C -0.911358 0.028945 4.154378 0
M  V30 30 C -0.933939 -1.332968 4.368342 0
M  V30 31 N -1.859688 -2.236224 4.796666 0
M  V30 32 C -1.361733 -3.477258 4.828701 0
M  V30 33 C -0.047129 -3.440723 4.409859 0
M  V30 34 C 0.178826 -2.109403 4.136494 0
M  V30 35 H 2.988364 -1.991794 2.439593 0
M  V30 36 H 2.263717 -3.321011 3.361046 0
M  V30 37 H 3.225160 -2.149591 4.275672 0
M  V30 38 H 2.785578 1.471296 3.594880 0
M  V30 39 H 6.537370 0.039057 0.929031 0
M  V30 40 H 3.541492 1.797466 -1.304925 0
M  V30 41 H 0.992033 3.178035 1.967205 0
M  V30 42 H -0.866294 1.777170 -2.831830 0
M  V30 43 H -1.897431 2.962141 -1.982421 0
M  V30 44 H -3.169345 1.591702 -3.357042 0
M  V30 45 H -4.321072 0.985946 -2.152278 0
M  V30 46 H -4.211318 -0.591279 -3.899615 0
M  V30 47 H -2.444183 -0.459667 -4.077366 0
M  V30 48 H -4.093414 -2.269379 -2.384436 0
M  V30 49 H -2.961327 -4.144127 -1.872950 0
M  V30 50 H -1.693263 -4.622039 -3.008520 0
M  V30 51 H -1.183256 -3.753309 -1.547778 0
M  V30 52 H -3.143965 -4.029051 -4.303583 0
M  V30 53 H -3.516311 -2.340836 -4.688378 0
M  V30 54 H -1.878049 -3.006716 -5.135414 0
M  V30 55 H -3.603533 -0.836859 -0.581380 0
M  V30 56 H -2.435446 -2.174103 -0.439280 0
M  V30 57 H -1.127723 -0.083100 -0.240699 0
M  V30 58 H -0.906639 -0.627625 -1.921768 0
M  V30 59 H 1.211510 0.813562 -1.545431 0
M  V30 60 H 0.039097 1.715330 3.606006 0
M  V30 61 H -1.855919 0.486813 4.381615 0
M  V30 62 H -2.837057 -1.978349 5.064774 0
M  V30 63 H -1.932408 -4.353693 5.141266 0
M  V30 64 H 0.626651 -4.279840 4.325574 0
M  V30 END ATOM
M  V30 BEGIN BOND
M  V30 1 1 1 2
M  V30 2 2 2 3
M  V30 3 1 3 4
M  V30 4 1 4 5
M  V30 5 2 5 6
M  V30 6 1 6 7
M  V30 7 3 7 8
M  V30 8 1 6 9
M  V30 9 2 9 10
M  V30 10 1 10 11
M  V30 11 2 11 12
M  V30 12 1 12 13
M  V30 13 2 13 14
M  V30 14 1 14 15
M  V30 15 1 15 16
M  V30 16 1 16 17
M  V30 17 1 17 18
M  V30 18 1 18 19
M  V30 19 1 19 20
M  V30 20 1 20 21
M  V30 21 1 21 22
M  V30 22 1 22 23
M  V30 23 1 22 24
M  V30 24 1 21 25
M  V30 25 1 25 26
M  V30 26 2 16 27
M  V30 27 1 3 28
M  V30 28 2 28 29
M  V30 29 1 29 30
M  V30 30 1 30 31
M  V30 31 1 31 32
M  V30 32 2 32 33
M  V30 33 1 33 34
M  V30 34 1 34 2
M  V30 35 1 12 5
M  V30 36 1 27 13
M  V30 37 2 34 30
M  V30 38 1 26 18
M  V30 39 1 1 35
M  V30 40 1 1 36
M  V30 41 1 1 37
M  V30 42 1 4 38
M  V30 43 1 9 39
M  V30 44 1 11 40
M  V30 45 1 14 41
M  V30 46 1 17 42
M  V30 47 1 17 43
M  V30 48 1 19 44
M  V30 49 1 19 45
M  V30 50 1 20 46
M  V30 51 1 20 47
M  V30 52 1 21 48
M  V30 53 1 23 49
M  V30 54 1 23 50
M  V30 55 1 23 51
M  V30 56 1 24 52
M  V30 57 1 24 53
M  V30 58 1 24 54
M  V30 59 1 25 55
M  V30 60 1 25 56
M  V30 61 1 26 57
M  V30 62 1 26 58
M  V30 63 1 27 59
M  V30 64 1 28 60
M  V30 65 1 29 61
M  V30 66 1 31 62
M  V30 67 1 32 63
M  V30 68 1 33 64
M  V30 END BOND
M  V30 END CTAB
M  END
>  <Dataset>  (529) 
ChEMBL_Kinases

>  <Ligand_Instance>  (529) 
nan

>  <PDB_ID>  (529) 
nan

>  <Standardized_SMILES>  (529) 
Cc1c(Nc2c(C#N)cncc2-c2coc(CN3CCC(N(C)C)CC3)c2)ccc2[nH]ccc12

>  <Name>  (529) 
nan

>  <Pocket>  (529) 
nan

>  <ATP_Site>  (529) 
nan

>  <Peripheral>  (529) 
nan

>  <Num_H_Atoms_ProtBoundConf>  (529) 
nan

>  <Num_Resolved_Atoms>  (529) 
nan

>  <Num_Not_Resolved_Atoms>  (529) 
nan

$$$$
CHEMBL2048144
     RDKit          3D

  0  0  0  0  0  0  0  0  0  0999 V3000
M  V30 BEGIN CTAB
M  V30 COUNTS 52 56 0 0 0
M  V30 BEGIN ATOM
M  V30 1 O 3.754437 -3.730862 1.063594 0
M  V30 2 C 3.327290 -4.380887 0.070445 0
M  V30 3 O 3.068139 -5.745331 0.138463 0
M  V30 4 C 3.077046 -3.720368 -1.231208 0
M  V30 5 C 3.381447 -2.279059 -1.199448 0
M  V30 6 C 4.537485 -1.584599 -1.466170 0
M  V30 7 C 4.319510 -0.232665 -1.295710 0
M  V30 8 N 3.015525 -0.099964 -0.920619 0
M  V30 9 C 2.351407 1.128708 -0.635492 0
M  V30 10 C 2.330384 2.192556 -1.513746 0
M  V30 11 N 1.704737 3.362575 -1.255978 0
M  V30 12 C 1.066965 3.481892 -0.064017 0
M  V30 13 C 1.059694 2.445253 0.848146 0
M  V30 14 N 0.413929 2.491463 2.119621 0
M  V30 15 N 0.614813 3.395847 3.062787 0
M  V30 16 C -0.156138 3.154501 4.148718 0
M  V30 17 C -0.875282 2.016672 3.831805 0
M  V30 18 C -1.819787 1.276088 4.513949 0
M  V30 19 C -2.402369 0.153419 3.964232 0
M  V30 20 C -2.053713 -0.281117 2.680661 0
M  V30 21 N -2.637097 -1.438063 2.100729 0
M  V30 22 C -2.346177 -1.942150 0.773993 0
M  V30 23 C -2.789497 -0.906506 -0.224464 0
M  V30 24 C -4.061167 -1.495707 -0.791159 0
M  V30 25 C -3.763064 -2.956941 -0.885542 0
M  V30 26 C -3.116243 -3.200174 0.488684 0
M  V30 27 C -1.107216 0.490322 2.040270 0
M  V30 28 C -0.508208 1.616251 2.563880 0
M  V30 29 N 1.702892 1.301671 0.531849 0
M  V30 30 C 2.428048 -1.320708 -0.855402 0
M  V30 31 H 2.878830 -6.168017 1.050501 0
M  V30 32 H 2.051909 -3.943502 -1.537735 0
M  V30 33 H 3.762006 -4.150116 -2.017296 0
M  V30 34 H 5.476301 -2.064891 -1.767400 0
M  V30 35 H 5.058435 0.553623 -1.438449 0
M  V30 36 H 2.861471 2.040349 -2.460568 0
M  V30 37 H 0.534795 4.386705 0.233492 0
M  V30 38 H -0.191617 3.732771 5.057455 0
M  V30 39 H -2.099272 1.600275 5.507670 0
M  V30 40 H -3.141462 -0.434213 4.486214 0
M  V30 41 H -3.329743 -1.962569 2.681481 0
M  V30 42 H -1.267786 -2.197692 0.659254 0
M  V30 43 H -2.065321 -0.780449 -1.055884 0
M  V30 44 H -3.003979 0.062912 0.282588 0
M  V30 45 H -4.352506 -1.025126 -1.754852 0
M  V30 46 H -4.891139 -1.347866 -0.043813 0
M  V30 47 H -2.994803 -3.099486 -1.662646 0
M  V30 48 H -4.639214 -3.602814 -1.028550 0
M  V30 49 H -3.916610 -3.346877 1.251036 0
M  V30 50 H -2.504783 -4.112069 0.467818 0
M  V30 51 H -0.764785 0.238202 1.046621 0
M  V30 52 H 1.385824 -1.467809 -0.576121 0
M  V30 END ATOM
M  V30 BEGIN BOND
M  V30 1 2 1 2
M  V30 2 1 2 3
M  V30 3 1 2 4
M  V30 4 1 4 5
M  V30 5 1 5 6
M  V30 6 2 6 7
M  V30 7 1 7 8
M  V30 8 1 8 9
M  V30 9 2 9 10
M  V30 10 1 10 11
M  V30 11 2 11 12
M  V30 12 1 12 13
M  V30 13 1 13 14
M  V30 14 1 14 15
M  V30 15 2 15 16
M  V30 16 1 16 17
M  V30 17 2 17 18
M  V30 18 1 18 19
M  V30 19 2 19 20
M  V30 20 1 20 21
M  V30 21 1 21 22
M  V30 22 1 22 23
M  V30 23 1 23 24
M  V30 24 1 24 25
M  V30 25 1 25 26
M  V30 26 1 20 27
M  V30 27 2 27 28
M  V30 28 2 13 29
M  V30 29 1 8 30
M  V30 30 2 30 5
M  V30 31 1 29 9
M  V30 32 1 28 14
M  V30 33 1 28 17
M  V30 34 1 26 22
M  V30 35 1 3 31
M  V30 36 1 4 32
M  V30 37 1 4 33
M  V30 38 1 6 34
M  V30 39 1 7 35
M  V30 40 1 10 36
M  V30 41 1 12 37
M  V30 42 1 16 38
M  V30 43 1 18 39
M  V30 44 1 19 40
M  V30 45 1 21 41
M  V30 46 1 22 42
M  V30 47 1 23 43
M  V30 48 1 23 44
M  V30 49 1 24 45
M  V30 50 1 24 46
M  V30 51 1 25 47
M  V30 52 1 25 48
M  V30 53 1 26 49
M  V30 54 1 26 50
M  V30 55 1 27 51
M  V30 56 1 30 52
M  V30 END BOND
M  V30 END CTAB
M  END
>  <Dataset>  (530) 
ChEMBL_Kinases

>  <Ligand_Instance>  (530) 
nan

>  <PDB_ID>  (530) 
nan

>  <Standardized_SMILES>  (530) 
O=C(O)Cc1ccn(-c2cncc(-n3ncc4ccc(NC5CCCC5)cc43)n2)c1

>  <Name>  (530) 
nan

>  <Pocket>  (530) 
nan

>  <ATP_Site>  (530) 
nan

>  <Peripheral>  (530) 
nan

>  <Num_H_Atoms_ProtBoundConf>  (530) 
nan

>  <Num_Resolved_Atoms>  (530) 
nan

>  <Num_Not_Resolved_Atoms>  (530) 
nan

$$$$
CHEMBL4649365
     RDKit          3D

  0  0  0  0  0  0  0  0  0  0999 V3000
M  V30 BEGIN CTAB
M  V30 COUNTS 34 36 0 0 0
M  V30 BEGIN ATOM
M  V30 1 C 0.169936 -2.158406 3.596793 0
M  V30 2 N -0.379117 -3.032294 2.574608 0
M  V30 3 C -1.478251 -3.962236 2.760730 0
M  V30 4 C 0.157818 -3.028637 1.256114 0
M  V30 5 O -0.231048 -3.739382 0.282107 0
M  V30 6 C 1.259365 -2.216154 0.743975 0
M  V30 7 C 2.595309 -2.585671 0.763340 0
M  V30 8 C 3.532900 -1.724276 0.247166 0
M  V30 9 C 3.200252 -0.499068 -0.293317 0
M  V30 10 C 1.875948 -0.103812 -0.326203 0
M  V30 11 N 1.229876 1.008975 -0.777091 0
M  V30 12 C -0.083621 0.833363 -0.541372 0
M  V30 13 C -1.129129 1.796343 -0.874997 0
M  V30 14 C -0.794979 2.991499 -1.478825 0
M  V30 15 C -1.806023 3.882667 -1.782500 0
M  V30 16 N -3.089188 3.594842 -1.497200 0
M  V30 17 C -3.433838 2.435466 -0.909064 0
M  V30 18 C -2.451005 1.521365 -0.591268 0
M  V30 19 N -0.278427 -0.362693 0.046634 0
M  V30 20 C 0.929875 -0.981177 0.198507 0
M  V30 21 H 1.277889 -2.116042 3.504974 0
M  V30 22 H -0.037045 -2.554432 4.612581 0
M  V30 23 H -0.231194 -1.141989 3.579703 0
M  V30 24 H -2.233108 -3.887287 1.945441 0
M  V30 25 H -2.041617 -3.628008 3.678152 0
M  V30 26 H -1.169028 -4.999111 2.897418 0
M  V30 27 H 2.813451 -3.544879 1.191392 0
M  V30 28 H 4.559880 -2.066318 0.289459 0
M  V30 29 H 3.968800 0.174264 -0.700947 0
M  V30 30 H 1.734909 1.825111 -1.221588 0
M  V30 31 H 0.237892 3.197569 -1.696375 0
M  V30 32 H -1.594024 4.833996 -2.256856 0
M  V30 33 H -4.440389 2.123972 -0.644729 0
M  V30 34 H -2.644677 0.568955 -0.118517 0
M  V30 END ATOM
M  V30 BEGIN BOND
M  V30 1 1 1 2
M  V30 2 1 2 3
M  V30 3 1 2 4
M  V30 4 2 4 5
M  V30 5 1 4 6
M  V30 6 2 6 7
M  V30 7 1 7 8
M  V30 8 2 8 9
M  V30 9 1 9 10
M  V30 10 1 10 11
M  V30 11 1 11 12
M  V30 12 1 12 13
M  V30 13 2 13 14
M  V30 14 1 14 15
M  V30 15 2 15 16
M  V30 16 1 16 17
M  V30 17 2 17 18
M  V30 18 2 12 19
M  V30 19 1 19 20
M  V30 20 1 20 6
M  V30 21 2 20 10
M  V30 22 1 18 13
M  V30 23 1 1 21
M  V30 24 1 1 22
M  V30 25 1 1 23
M  V30 26 1 3 24
M  V30 27 1 3 25
M  V30 28 1 3 26
M  V30 29 1 7 27
M  V30 30 1 8 28
M  V30 31 1 9 29
M  V30 32 1 11 30
M  V30 33 1 14 31
M  V30 34 1 15 32
M  V30 35 1 17 33
M  V30 36 1 18 34
M  V30 END BOND
M  V30 END CTAB
M  END
>  <Dataset>  (531) 
ChEMBL_Kinases

>  <Ligand_Instance>  (531) 
nan

>  <PDB_ID>  (531) 
nan

>  <Standardized_SMILES>  (531) 
CN(C)C(=O)c1cccc2[nH]c(-c3ccncc3)nc12

>  <Name>  (531) 
nan

>  <Pocket>  (531) 
nan

>  <ATP_Site>  (531) 
nan

>  <Peripheral>  (531) 
nan

>  <Num_H_Atoms_ProtBoundConf>  (531) 
nan

>  <Num_Resolved_Atoms>  (531) 
nan

>  <Num_Not_Resolved_Atoms>  (531) 
nan

$$$$
CHEMBL567094
     RDKit          3D

  0  0  0  0  0  0  0  0  0  0999 V3000
M  V30 BEGIN CTAB
M  V30 COUNTS 53 57 0 0 0
M  V30 BEGIN ATOM
M  V30 1 C -0.340221 0.041181 -1.492870 0
M  V30 2 C -0.307592 -1.418194 -1.524484 0
M  V30 3 C 0.619547 -1.950722 -0.659176 0
M  V30 4 N 1.554251 -1.403220 0.259863 0
M  V30 5 C 2.635152 -0.521808 0.220369 0
M  V30 6 C 3.818363 -1.026222 -0.330456 0
M  V30 7 C 3.915339 -2.373322 -0.829465 0
M  V30 8 N 3.994575 -3.473535 -1.221613 0
M  V30 9 C 4.975236 -0.281170 -0.438447 0
M  V30 10 N 4.986002 0.990693 0.000437 0
M  V30 11 C 3.873674 1.522966 0.539134 0
M  V30 12 C 2.715762 0.784611 0.650413 0
M  V30 13 C 1.513518 1.332938 1.261658 0
M  V30 14 C 1.418534 2.632492 1.714099 0
M  V30 15 C 0.181487 2.888345 2.243821 0
M  V30 16 C -0.469074 1.681162 2.090737 0
M  V30 17 C -1.860381 1.333418 2.482076 0
M  V30 18 N -1.944698 0.820629 3.819077 0
M  V30 19 C -1.182021 -0.368918 4.036059 0
M  V30 20 C -1.873023 -1.381838 3.151925 0
M  V30 21 C -3.328087 -0.974139 3.302308 0
M  V30 22 C -3.308369 0.372526 4.037663 0
M  V30 23 O 0.349037 0.842640 1.525075 0
M  V30 24 C 0.758197 -3.345658 -0.600525 0
M  V30 25 C -0.028238 -4.181848 -1.403329 0
M  V30 26 C -0.947282 -3.610987 -2.258291 0
M  V30 27 N -1.853321 -4.088690 -3.156835 0
M  V30 28 C -2.517833 -3.051141 -3.741502 0
M  V30 29 C -2.042691 -1.842529 -3.218966 0
M  V30 30 C -1.080388 -2.240249 -2.313107 0
M  V30 31 H -1.073989 0.466066 -0.794913 0
M  V30 32 H 0.659135 0.508280 -1.381128 0
M  V30 33 H -0.685654 0.370193 -2.517002 0
M  V30 34 H 1.543457 -1.638903 1.267547 0
M  V30 35 H 5.885166 -0.680372 -0.865980 0
M  V30 36 H 3.910215 2.546543 0.883520 0
M  V30 37 H 2.218988 3.377129 1.664162 0
M  V30 38 H -0.225200 3.800752 2.684449 0
M  V30 39 H -2.328042 0.612715 1.753636 0
M  V30 40 H -2.491416 2.245607 2.431775 0
M  V30 41 H -0.106665 -0.292788 3.869427 0
M  V30 42 H -1.345007 -0.682852 5.085409 0
M  V30 43 H -1.527979 -1.288467 2.106226 0
M  V30 44 H -1.714213 -2.422185 3.506334 0
M  V30 45 H -3.864093 -1.724675 3.905222 0
M  V30 46 H -3.776909 -0.862663 2.299621 0
M  V30 47 H -3.518570 0.181910 5.122829 0
M  V30 48 H -4.022751 1.088292 3.593626 0
M  V30 49 H 1.424795 -3.961411 0.008774 0
M  V30 50 H 0.010342 -5.257209 -1.424000 0
M  V30 51 H -1.964842 -5.113210 -3.319162 0
M  V30 52 H -3.290538 -3.159165 -4.491765 0
M  V30 53 H -2.355617 -0.836979 -3.466650 0
M  V30 END ATOM
M  V30 BEGIN BOND
M  V30 1 1 1 2
M  V30 2 2 2 3
M  V30 3 1 3 4
M  V30 4 1 4 5
M  V30 5 2 5 6
M  V30 6 1 6 7
M  V30 7 3 7 8
M  V30 8 1 6 9
M  V30 9 2 9 10
M  V30 10 1 10 11
M  V30 11 2 11 12
M  V30 12 1 12 13
M  V30 13 2 13 14
M  V30 14 1 14 15
M  V30 15 2 15 16
M  V30 16 1 16 17
M  V30 17 1 17 18
M  V30 18 1 18 19
M  V30 19 1 19 20
M  V30 20 1 20 21
M  V30 21 1 21 22
M  V30 22 1 16 23
M  V30 23 1 3 24
M  V30 24 2 24 25
M  V30 25 1 25 26
M  V30 26 1 26 27
M  V30 27 1 27 28
M  V30 28 2 28 29
M  V30 29 1 29 30
M  V30 30 1 30 2
M  V30 31 1 12 5
M  V30 32 1 23 13
M  V30 33 2 30 26
M  V30 34 1 22 18
M  V30 35 1 1 31
M  V30 36 1 1 32
M  V30 37 1 1 33
M  V30 38 1 4 34
M  V30 39 1 9 35
M  V30 40 1 11 36
M  V30 41 1 14 37
M  V30 42 1 15 38
M  V30 43 1 17 39
M  V30 44 1 17 40
M  V30 45 1 19 41
M  V30 46 1 19 42
M  V30 47 1 20 43
M  V30 48 1 20 44
M  V30 49 1 21 45
M  V30 50 1 21 46
M  V30 51 1 22 47
M  V30 52 1 22 48
M  V30 53 1 24 49
M  V30 54 1 25 50
M  V30 55 1 27 51
M  V30 56 1 28 52
M  V30 57 1 29 53
M  V30 END BOND
M  V30 END CTAB
M  END
>  <Dataset>  (532) 
ChEMBL_Kinases

>  <Ligand_Instance>  (532) 
nan

>  <PDB_ID>  (532) 
nan

>  <Standardized_SMILES>  (532) 
Cc1c(Nc2c(C#N)cncc2-c2ccc(CN3CCCC3)o2)ccc2[nH]ccc12

>  <Name>  (532) 
nan

>  <Pocket>  (532) 
nan

>  <ATP_Site>  (532) 
nan

>  <Peripheral>  (532) 
nan

>  <Num_H_Atoms_ProtBoundConf>  (532) 
nan

>  <Num_Resolved_Atoms>  (532) 
nan

>  <Num_Not_Resolved_Atoms>  (532) 
nan

$$$$
CHEMBL4649403
     RDKit          3D

  0  0  0  0  0  0  0  0  0  0999 V3000
M  V30 BEGIN CTAB
M  V30 COUNTS 42 45 0 0 0
M  V30 BEGIN ATOM
M  V30 1 C 1.557844 -6.720732 0.269373 0
M  V30 2 O 1.045488 -5.532457 -0.251923 0
M  V30 3 C 1.816189 -4.566238 -0.886101 0
M  V30 4 C 3.176379 -4.686702 -1.064977 0
M  V30 5 C 3.863972 -3.677760 -1.706446 0
M  V30 6 C 3.135809 -2.574906 -2.145487 0
M  V30 7 C 1.757971 -2.439785 -1.971004 0
M  V30 8 C 1.188534 -1.182401 -2.520061 0
M  V30 9 N 1.262099 -0.144442 -1.478556 0
M  V30 10 C 2.396270 0.560613 -1.483099 0
M  V30 11 N 2.510675 1.505784 -0.561585 0
M  V30 12 C 1.462391 1.710801 0.346266 0
M  V30 13 S 1.206672 2.881205 1.749600 0
M  V30 14 C -0.383258 2.273907 2.157905 0
M  V30 15 C -1.178119 2.836577 3.275831 0
M  V30 16 C -0.609188 3.869551 3.990072 0
M  V30 17 C -1.414974 4.350635 5.029145 0
M  V30 18 N -2.634517 3.840761 5.295917 0
M  V30 19 C -3.120568 2.830439 4.550890 0
M  V30 20 N -4.419233 2.292195 4.839949 0
M  V30 21 C -2.418362 2.281499 3.508580 0
M  V30 22 C -0.630174 1.293522 1.286618 0
M  V30 23 C 0.285237 0.957874 0.328624 0
M  V30 24 C 0.236670 -0.005927 -0.656036 0
M  V30 25 O -0.768368 -0.751740 -0.780146 0
M  V30 26 C 1.112142 -3.467659 -1.327243 0
M  V30 27 H 2.413007 -6.564833 0.956040 0
M  V30 28 H 1.819255 -7.405153 -0.571833 0
M  V30 29 H 0.753455 -7.182587 0.895566 0
M  V30 30 H 3.683682 -5.562455 -0.703755 0
M  V30 31 H 4.931898 -3.733991 -1.866660 0
M  V30 32 H 3.736347 -1.804679 -2.648582 0
M  V30 33 H 0.126240 -1.337590 -2.818304 0
M  V30 34 H 1.746172 -0.859793 -3.418275 0
M  V30 35 H 3.251620 0.500434 -2.110880 0
M  V30 36 H 0.355269 4.292609 3.800013 0
M  V30 37 H -1.035610 5.162399 5.635118 0
M  V30 38 H -5.398615 2.685376 4.732531 0
M  V30 39 H -4.598131 1.333589 5.239945 0
M  V30 40 H -2.826516 1.478491 2.930832 0
M  V30 41 H -1.587438 0.799490 1.397010 0
M  V30 42 H 0.056676 -3.328465 -1.213156 0
M  V30 END ATOM
M  V30 BEGIN BOND
M  V30 1 1 1 2
M  V30 2 1 2 3
M  V30 3 2 3 4
M  V30 4 1 4 5
M  V30 5 2 5 6
M  V30 6 1 6 7
M  V30 7 1 7 8
M  V30 8 1 8 9
M  V30 9 1 9 10
M  V30 10 2 10 11
M  V30 11 1 11 12
M  V30 12 1 12 13
M  V30 13 1 13 14
M  V30 14 1 14 15
M  V30 15 2 15 16
M  V30 16 1 16 17
M  V30 17 2 17 18
M  V30 18 1 18 19
M  V30 19 1 19 20
M  V30 20 2 19 21
M  V30 21 2 14 22
M  V30 22 1 22 23
M  V30 23 1 23 24
M  V30 24 2 24 25
M  V30 25 2 7 26
M  V30 26 1 26 3
M  V30 27 1 24 9
M  V30 28 2 23 12
M  V30 29 1 21 15
M  V30 30 1 1 27
M  V30 31 1 1 28
M  V30 32 1 1 29
M  V30 33 1 4 30
M  V30 34 1 5 31
M  V30 35 1 6 32
M  V30 36 1 8 33
M  V30 37 1 8 34
M  V30 38 1 10 35
M  V30 39 1 16 36
M  V30 40 1 17 37
M  V30 41 1 20 38
M  V30 42 1 20 39
M  V30 43 1 21 40
M  V30 44 1 22 41
M  V30 45 1 26 42
M  V30 END BOND
M  V30 END CTAB
M  END
>  <Dataset>  (533) 
ChEMBL_Kinases

>  <Ligand_Instance>  (533) 
nan

>  <PDB_ID>  (533) 
nan

>  <Standardized_SMILES>  (533) 
COc1cccc(Cn2cnc3sc(-c4ccnc(N)c4)cc3c2=O)c1

>  <Name>  (533) 
nan

>  <Pocket>  (533) 
nan

>  <ATP_Site>  (533) 
nan

>  <Peripheral>  (533) 
nan

>  <Num_H_Atoms_ProtBoundConf>  (533) 
nan

>  <Num_Resolved_Atoms>  (533) 
nan

>  <Num_Not_Resolved_Atoms>  (533) 
nan

$$$$
CHEMBL4649424
     RDKit          3D

  0  0  0  0  0  0  0  0  0  0999 V3000
M  V30 BEGIN CTAB
M  V30 COUNTS 58 62 0 0 0
M  V30 BEGIN ATOM
M  V30 1 C 2.505212 1.233063 5.303615 0
M  V30 2 N 2.971737 0.827511 3.972515 0
M  V30 3 C 4.275154 0.285235 3.795690 0
M  V30 4 O 4.754414 -0.154490 4.871632 0
M  V30 5 C 5.019335 0.220865 2.531720 0
M  V30 6 C 6.220580 -0.377875 2.765207 0
M  V30 7 C 7.097222 -0.544537 1.693844 0
M  V30 8 C 6.710208 -0.093142 0.429550 0
M  V30 9 C 5.486220 0.504572 0.247922 0
M  V30 10 C 4.599583 0.682144 1.289114 0
M  V30 11 N 3.384892 1.327186 0.861688 0
M  V30 12 C 3.441140 2.023921 -0.395388 0
M  V30 13 C 2.183652 1.289856 1.617875 0
M  V30 14 N 1.147238 1.512070 0.768271 0
M  V30 15 C -0.113226 1.510801 1.267728 0
M  V30 16 N -1.370985 1.723260 0.635045 0
M  V30 17 C -2.087061 0.699240 -0.082110 0
M  V30 18 C -3.355231 0.841340 -0.602902 0
M  V30 19 C -3.978123 -0.174077 -1.297592 0
M  V30 20 C -3.322304 -1.393050 -1.492121 0
M  V30 21 N -3.970317 -2.434113 -2.203115 0
M  V30 22 C -5.357677 -2.452969 -2.533446 0
M  V30 23 C -6.057557 -3.687959 -1.997949 0
M  V30 24 C -5.096311 -4.626949 -1.281065 0
M  V30 25 O -4.715774 -4.153178 -0.048548 0
M  V30 26 C -3.854279 -4.894123 -2.105743 0
M  V30 27 C -3.319443 -3.615395 -2.706859 0
M  V30 28 C -2.062723 -1.481761 -0.953275 0
M  V30 29 C -1.395061 -0.499681 -0.250982 0
M  V30 30 N -0.334969 1.290651 2.598825 0
M  V30 31 C 0.662560 1.066428 3.477904 0
M  V30 32 C 1.962014 1.064338 2.982880 0
M  V30 33 H 1.917120 2.167453 5.274076 0
M  V30 34 H 2.017367 0.393270 5.833160 0
M  V30 35 H 3.401435 1.490179 5.937432 0
M  V30 36 H 6.515510 -0.722338 3.732265 0
M  V30 37 H 8.046133 -1.023198 1.907864 0
M  V30 38 H 7.417549 -0.236383 -0.397004 0
M  V30 39 H 5.200843 0.848619 -0.734848 0
M  V30 40 H 2.565831 2.736977 -0.450841 0
M  V30 41 H 3.304176 1.353595 -1.273859 0
M  V30 42 H 4.335466 2.673911 -0.501336 0
M  V30 43 H -1.816819 2.688145 0.688121 0
M  V30 44 H -3.845734 1.797679 -0.439631 0
M  V30 45 H -4.958670 0.060277 -1.649126 0
M  V30 46 H -5.423181 -2.530572 -3.659545 0
M  V30 47 H -5.943914 -1.576873 -2.257596 0
M  V30 48 H -6.546227 -4.286383 -2.789900 0
M  V30 49 H -6.829268 -3.415931 -1.253192 0
M  V30 50 H -5.612122 -5.605502 -1.155776 0
M  V30 51 H -3.757462 -3.973996 0.048926 0
M  V30 52 H -3.119770 -5.382134 -1.436306 0
M  V30 53 H -4.067218 -5.648125 -2.916138 0
M  V30 54 H -2.210641 -3.570563 -2.562781 0
M  V30 55 H -3.509803 -3.621430 -3.824123 0
M  V30 56 H -1.495555 -2.410450 -1.068655 0
M  V30 57 H -0.398927 -0.652166 0.141369 0
M  V30 58 H 0.528370 0.888905 4.534782 0
M  V30 END ATOM
M  V30 BEGIN BOND
M  V30 1 1 1 2
M  V30 2 1 2 3
M  V30 3 2 3 4
M  V30 4 1 3 5
M  V30 5 2 5 6
M  V30 6 1 6 7
M  V30 7 2 7 8
M  V30 8 1 8 9
M  V30 9 2 9 10
M  V30 10 1 10 11
M  V30 11 1 11 12
M  V30 12 1 11 13
M  V30 13 2 13 14
M  V30 14 1 14 15
M  V30 15 1 15 16
M  V30 16 1 16 17
M  V30 17 2 17 18
M  V30 18 1 18 19
M  V30 19 2 19 20
M  V30 20 1 20 21
M  V30 21 1 21 22
M  V30 22 1 22 23
M  V30 23 1 23 24
M  V30 24 1 24 25
M  V30 25 1 24 26
M  V30 26 1 26 27
M  V30 27 1 20 28
M  V30 28 2 28 29
M  V30 29 2 15 30
M  V30 30 1 30 31
M  V30 31 2 31 32
M  V30 32 1 32 2
M  V30 33 1 10 5
M  V30 34 1 32 13
M  V30 35 1 29 17
M  V30 36 1 27 21
M  V30 37 1 1 33
M  V30 38 1 1 34
M  V30 39 1 1 35
M  V30 40 1 6 36
M  V30 41 1 7 37
M  V30 42 1 8 38
M  V30 43 1 9 39
M  V30 44 1 12 40
M  V30 45 1 12 41
M  V30 46 1 12 42
M  V30 47 1 16 43
M  V30 48 1 18 44
M  V30 49 1 19 45
M  V30 50 1 22 46
M  V30 51 1 22 47
M  V30 52 1 23 48
M  V30 53 1 23 49
M  V30 54 1 24 50
M  V30 55 1 25 51
M  V30 56 1 26 52
M  V30 57 1 26 53
M  V30 58 1 27 54
M  V30 59 1 27 55
M  V30 60 1 28 56
M  V30 61 1 29 57
M  V30 62 1 31 58
M  V30 END BOND
M  V30 END CTAB
M  END
>  <Dataset>  (534) 
ChEMBL_Kinases

>  <Ligand_Instance>  (534) 
nan

>  <PDB_ID>  (534) 
nan

>  <Standardized_SMILES>  (534) 
CN1C(=O)c2ccccc2N(C)c2nc(Nc3ccc(N4CCC(O)CC4)cc3)ncc21

>  <Name>  (534) 
nan

>  <Pocket>  (534) 
nan

>  <ATP_Site>  (534) 
nan

>  <Peripheral>  (534) 
nan

>  <Num_H_Atoms_ProtBoundConf>  (534) 
nan

>  <Num_Resolved_Atoms>  (534) 
nan

>  <Num_Not_Resolved_Atoms>  (534) 
nan

$$$$
CHEMBL1272270
     RDKit          3D

  0  0  0  0  0  0  0  0  0  0999 V3000
M  V30 BEGIN CTAB
M  V30 COUNTS 46 49 0 0 0
M  V30 BEGIN ATOM
M  V30 1 C -0.569151 -5.808105 -1.036500 0
M  V30 2 S -1.782252 -4.588112 -1.595081 0
M  V30 3 C -1.180071 -2.922196 -1.381391 0
M  V30 4 N -0.473349 -2.293765 -2.349834 0
M  V30 5 C -0.167419 -1.064829 -1.903568 0
M  V30 6 C 0.571717 -0.042438 -2.610687 0
M  V30 7 C 1.931608 -0.095724 -2.842617 0
M  V30 8 C 2.573838 0.910198 -3.533600 0
M  V30 9 C 1.914547 2.015538 -4.029740 0
M  V30 10 F 2.495919 3.028277 -4.713202 0
M  V30 11 C 0.555337 2.103471 -3.817318 0
M  V30 12 C -0.080786 1.084553 -3.120583 0
M  V30 13 C -0.665584 -0.882125 -0.654031 0
M  V30 14 C -0.662215 0.178154 0.316635 0
M  V30 15 C -1.140539 1.470354 0.240537 0
M  V30 16 C -1.040021 2.335710 1.309469 0
M  V30 17 N -0.470239 1.982209 2.498845 0
M  V30 18 C -0.003274 0.733376 2.586470 0
M  V30 19 N 0.588499 0.340418 3.822450 0
M  V30 20 C 0.676953 1.249320 4.916308 0
M  V30 21 O 0.232111 2.437189 4.819691 0
M  V30 22 C 1.309510 0.756958 6.176589 0
M  V30 23 C 2.370659 -0.299488 6.082971 0
M  V30 24 C 1.012210 -0.630041 6.610501 0
M  V30 25 C -0.080211 -0.168126 1.545835 0
M  V30 26 N -1.293487 -2.059562 -0.353792 0
M  V30 27 C -2.012171 -2.439590 0.869965 0
M  V30 28 H 0.075816 -6.160306 -1.870747 0
M  V30 29 H 0.026280 -5.456541 -0.172975 0
M  V30 30 H -1.101881 -6.730135 -0.659843 0
M  V30 31 H 2.493505 -0.945018 -2.473317 0
M  V30 32 H 3.646739 0.885305 -3.726713 0
M  V30 33 H 0.005661 2.957982 -4.193255 0
M  V30 34 H -1.154571 1.231888 -3.002685 0
M  V30 35 H -1.578124 1.705563 -0.704308 0
M  V30 36 H -1.469038 3.324557 1.081934 0
M  V30 37 H 0.968362 -0.637131 3.935072 0
M  V30 38 H 1.373312 1.488500 7.014917 0
M  V30 39 H 2.663487 -0.693004 5.082129 0
M  V30 40 H 3.241628 -0.252496 6.785564 0
M  V30 41 H 0.435434 -1.343161 5.987438 0
M  V30 42 H 1.000800 -0.881730 7.697429 0
M  V30 43 H 0.339311 -1.167067 1.736856 0
M  V30 44 H -2.883664 -3.075141 0.592536 0
M  V30 45 H -1.371705 -3.065791 1.523361 0
M  V30 46 H -2.435197 -1.564365 1.400184 0
M  V30 END ATOM
M  V30 BEGIN BOND
M  V30 1 1 1 2
M  V30 2 1 2 3
M  V30 3 2 3 4
M  V30 4 1 4 5
M  V30 5 1 5 6
M  V30 6 2 6 7
M  V30 7 1 7 8
M  V30 8 2 8 9
M  V30 9 1 9 10
M  V30 10 1 9 11
M  V30 11 2 11 12
M  V30 12 2 5 13
M  V30 13 1 13 14
M  V30 14 2 14 15
M  V30 15 1 15 16
M  V30 16 2 16 17
M  V30 17 1 17 18
M  V30 18 1 18 19
M  V30 19 1 19 20
M  V30 20 2 20 21
M  V30 21 1 20 22
M  V30 22 1 22 23
M  V30 23 1 23 24
M  V30 24 2 18 25
M  V30 25 1 13 26
M  V30 26 1 26 27
M  V30 27 1 26 3
M  V30 28 1 12 6
M  V30 29 1 25 14
M  V30 30 1 24 22
M  V30 31 1 1 28
M  V30 32 1 1 29
M  V30 33 1 1 30
M  V30 34 1 7 31
M  V30 35 1 8 32
M  V30 36 1 11 33
M  V30 37 1 12 34
M  V30 38 1 15 35
M  V30 39 1 16 36
M  V30 40 1 19 37
M  V30 41 1 22 38
M  V30 42 1 23 39
M  V30 43 1 23 40
M  V30 44 1 24 41
M  V30 45 1 24 42
M  V30 46 1 25 43
M  V30 47 1 27 44
M  V30 48 1 27 45
M  V30 49 1 27 46
M  V30 END BOND
M  V30 END CTAB
M  END
>  <Dataset>  (535) 
ChEMBL_Kinases

>  <Ligand_Instance>  (535) 
nan

>  <PDB_ID>  (535) 
nan

>  <Standardized_SMILES>  (535) 
CSc1nc(-c2ccc(F)cc2)c(-c2ccnc(NC(=O)C3CC3)c2)n1C

>  <Name>  (535) 
nan

>  <Pocket>  (535) 
nan

>  <ATP_Site>  (535) 
nan

>  <Peripheral>  (535) 
nan

>  <Num_H_Atoms_ProtBoundConf>  (535) 
nan

>  <Num_Resolved_Atoms>  (535) 
nan

>  <Num_Not_Resolved_Atoms>  (535) 
nan

$$$$
CHEMBL567092
     RDKit          3D

  0  0  0  0  0  0  0  0  0  0999 V3000
M  V30 BEGIN CTAB
M  V30 COUNTS 60 64 0 0 0
M  V30 BEGIN ATOM
M  V30 1 C 4.925039 -2.328751 0.501457 0
M  V30 2 C 3.820043 -2.695112 1.396785 0
M  V30 3 C 2.991675 -1.665292 1.786787 0
M  V30 4 N 3.019628 -0.307156 1.461468 0
M  V30 5 C 2.993415 0.540168 0.349155 0
M  V30 6 C 4.119328 1.178487 -0.182123 0
M  V30 7 C 5.394340 0.999747 0.468982 0
M  V30 8 N 6.417863 0.867132 0.995372 0
M  V30 9 C 4.121997 1.993701 -1.288388 0
M  V30 10 N 2.971049 2.197377 -1.906830 0
M  V30 11 C 1.835962 1.629706 -1.472696 0
M  V30 12 C 1.846159 0.813362 -0.361255 0
M  V30 13 C 0.528683 0.297201 -0.026359 0
M  V30 14 C -0.125637 0.275076 1.185167 0
M  V30 15 C -1.382413 -0.259576 1.326017 0
M  V30 16 C -2.076059 -0.810203 0.268414 0
M  V30 17 C -3.417422 -1.369585 0.459889 0
M  V30 18 N -4.487376 -0.495198 0.274819 0
M  V30 19 C -4.644898 0.658444 1.034636 0
M  V30 20 C -5.101321 1.787597 0.143884 0
M  V30 21 N -5.288568 1.448774 -1.211212 0
M  V30 22 C -4.334733 1.957427 -2.140817 0
M  V30 23 C -5.866375 0.190612 -1.522349 0
M  V30 24 C -5.558796 -0.903487 -0.553411 0
M  V30 25 N -1.447977 -0.795796 -0.924653 0
M  V30 26 C -0.213136 -0.271996 -1.069661 0
M  V30 27 C 1.937071 -2.019816 2.636146 0
M  V30 28 C 1.753558 -3.317446 3.045199 0
M  V30 29 C 2.622267 -4.308070 2.617249 0
M  V30 30 N 2.735132 -5.646905 2.817762 0
M  V30 31 C 3.796825 -6.145681 2.144258 0
M  V30 32 C 4.423679 -5.120772 1.467324 0
M  V30 33 C 3.673147 -4.008043 1.782560 0
M  V30 34 H 4.475784 -1.680323 -0.297389 0
M  V30 35 H 5.713490 -1.829343 1.086452 0
M  V30 36 H 5.343666 -3.261851 0.035885 0
M  V30 37 H 3.079454 0.419772 2.217898 0
M  V30 38 H 5.024649 2.459081 -1.651971 0
M  V30 39 H 0.955730 1.871431 -2.062042 0
M  V30 40 H 0.464315 0.724153 1.998897 0
M  V30 41 H -1.755569 -0.205837 2.317430 0
M  V30 42 H -3.453922 -1.797736 1.482702 0
M  V30 43 H -3.517592 -2.229287 -0.231177 0
M  V30 44 H -3.756119 0.900761 1.612603 0
M  V30 45 H -5.483463 0.502474 1.775211 0
M  V30 46 H -4.276072 2.558689 0.176759 0
M  V30 47 H -5.986117 2.325482 0.538749 0
M  V30 48 H -3.395758 1.393227 -2.156473 0
M  V30 49 H -4.177003 3.039968 -1.903624 0
M  V30 50 H -4.776901 1.948547 -3.175209 0
M  V30 51 H -6.966693 0.300598 -1.693676 0
M  V30 52 H -5.466285 -0.136254 -2.526064 0
M  V30 53 H -6.464900 -0.997667 0.114066 0
M  V30 54 H -5.343422 -1.884253 -0.988658 0
M  V30 55 H 0.115602 -0.356628 -2.103511 0
M  V30 56 H 1.152352 -1.410908 3.092245 0
M  V30 57 H 0.984150 -3.713542 3.693295 0
M  V30 58 H 2.098493 -6.222542 3.406883 0
M  V30 59 H 4.096503 -7.184394 2.144340 0
M  V30 60 H 5.290153 -5.244510 0.857668 0
M  V30 END ATOM
M  V30 BEGIN BOND
M  V30 1 1 1 2
M  V30 2 2 2 3
M  V30 3 1 3 4
M  V30 4 1 4 5
M  V30 5 2 5 6
M  V30 6 1 6 7
M  V30 7 3 7 8
M  V30 8 1 6 9
M  V30 9 2 9 10
M  V30 10 1 10 11
M  V30 11 2 11 12
M  V30 12 1 12 13
M  V30 13 2 13 14
M  V30 14 1 14 15
M  V30 15 2 15 16
M  V30 16 1 16 17
M  V30 17 1 17 18
M  V30 18 1 18 19
M  V30 19 1 19 20
M  V30 20 1 20 21
M  V30 21 1 21 22
M  V30 22 1 21 23
M  V30 23 1 23 24
M  V30 24 1 16 25
M  V30 25 2 25 26
M  V30 26 1 3 27
M  V30 27 2 27 28
M  V30 28 1 28 29
M  V30 29 1 29 30
M  V30 30 1 30 31
M  V30 31 2 31 32
M  V30 32 1 32 33
M  V30 33 1 33 2
M  V30 34 1 12 5
M  V30 35 1 26 13
M  V30 36 2 33 29
M  V30 37 1 24 18
M  V30 38 1 1 34
M  V30 39 1 1 35
M  V30 40 1 1 36
M  V30 41 1 4 37
M  V30 42 1 9 38
M  V30 43 1 11 39
M  V30 44 1 14 40
M  V30 45 1 15 41
M  V30 46 1 17 42
M  V30 47 1 17 43
M  V30 48 1 19 44
M  V30 49 1 19 45
M  V30 50 1 20 46
M  V30 51 1 20 47
M  V30 52 1 22 48
M  V30 53 1 22 49
M  V30 54 1 22 50
M  V30 55 1 23 51
M  V30 56 1 23 52
M  V30 57 1 24 53
M  V30 58 1 24 54
M  V30 59 1 26 55
M  V30 60 1 27 56
M  V30 61 1 28 57
M  V30 62 1 30 58
M  V30 63 1 31 59
M  V30 64 1 32 60
M  V30 END BOND
M  V30 END CTAB
M  END
>  <Dataset>  (536) 
ChEMBL_Kinases

>  <Ligand_Instance>  (536) 
nan

>  <PDB_ID>  (536) 
nan

>  <Standardized_SMILES>  (536) 
Cc1c(Nc2c(C#N)cncc2-c2ccc(CN3CCN(C)CC3)nc2)ccc2[nH]ccc12

>  <Name>  (536) 
nan

>  <Pocket>  (536) 
nan

>  <ATP_Site>  (536) 
nan

>  <Peripheral>  (536) 
nan

>  <Num_H_Atoms_ProtBoundConf>  (536) 
nan

>  <Num_Resolved_Atoms>  (536) 
nan

>  <Num_Not_Resolved_Atoms>  (536) 
nan

$$$$
CHEMBL4649639
     RDKit          3D

  0  0  0  0  0  0  0  0  0  0999 V3000
M  V30 BEGIN CTAB
M  V30 COUNTS 53 57 0 0 0
M  V30 BEGIN ATOM
M  V30 1 C 3.508968 -3.326519 4.334533 0
M  V30 2 C 2.173686 -2.871247 3.860472 0
M  V30 3 C 1.121480 -3.014641 4.762267 0
M  V30 4 C -0.160594 -2.623929 4.438818 0
M  V30 5 C -0.382902 -2.080368 3.184533 0
M  V30 6 C 0.667782 -1.941307 2.293653 0
M  V30 7 C 0.490929 -1.367735 0.961002 0
M  V30 8 N 1.185560 -0.274962 0.589299 0
M  V30 9 N 0.852110 0.043667 -0.666909 0
M  V30 10 C 1.412003 1.202656 -1.381643 0
M  V30 11 C 0.536211 2.393140 -1.168137 0
M  V30 12 S -0.895052 2.169554 -0.377791 0
M  V30 13 N 0.752129 3.749259 -1.554869 0
M  V30 14 C -0.136579 4.838067 -1.324439 0
M  V30 15 C -0.264337 5.102485 0.034291 0
M  V30 16 C -1.117595 6.166260 0.357733 0
M  V30 17 C -1.782069 6.898049 -0.597767 0
M  V30 18 C -1.621701 6.594857 -1.947256 0
M  V30 19 C -0.779518 5.541663 -2.295395 0
M  V30 20 C -0.057739 -0.807347 -1.167466 0
M  V30 21 C -0.284073 -1.696665 -0.137044 0
M  V30 22 C -1.166336 -2.847812 -0.022527 0
M  V30 23 C -2.495989 -2.433480 0.141881 0
M  V30 24 C -3.527403 -3.366138 0.275357 0
M  V30 25 N -3.201100 -4.669903 0.240738 0
M  V30 26 C -1.941944 -5.072030 0.085250 0
M  V30 27 C -1.586875 -6.421345 0.045149 0
M  V30 28 C -0.265648 -6.798300 -0.120203 0
M  V30 29 C 0.734214 -5.838668 -0.249124 0
M  V30 30 C 0.440251 -4.472898 -0.217396 0
M  V30 31 C -0.887704 -4.198853 -0.050702 0
M  V30 32 N 1.917940 -2.341388 2.657232 0
M  V30 33 H 3.619896 -4.376774 4.014919 0
M  V30 34 H 3.596913 -3.197177 5.434410 0
M  V30 35 H 4.308132 -2.764256 3.806626 0
M  V30 36 H 1.312961 -3.441152 5.741972 0
M  V30 37 H -0.991929 -2.723591 5.120534 0
M  V30 38 H -1.360297 -1.760176 2.878598 0
M  V30 39 H 2.434549 1.383196 -1.015707 0
M  V30 40 H 1.475053 0.903963 -2.445742 0
M  V30 41 H 1.672090 3.856877 -2.049564 0
M  V30 42 H 0.216571 4.582456 0.848386 0
M  V30 43 H -1.299246 6.468393 1.387748 0
M  V30 44 H -2.440570 7.716732 -0.367721 0
M  V30 45 H -2.093039 7.100171 -2.757135 0
M  V30 46 H -0.584181 5.223963 -3.320922 0
M  V30 47 H -0.536263 -0.854063 -2.108203 0
M  V30 48 H -2.844746 -1.389219 0.182368 0
M  V30 49 H -4.560616 -3.041187 0.400910 0
M  V30 50 H -2.394396 -7.131138 0.149519 0
M  V30 51 H -0.117779 -7.868375 -0.135807 0
M  V30 52 H 1.725759 -6.210348 -0.364831 0
M  V30 53 H 1.209099 -3.726400 -0.316295 0
M  V30 END ATOM
M  V30 BEGIN BOND
M  V30 1 1 1 2
M  V30 2 2 2 3
M  V30 3 1 3 4
M  V30 4 2 4 5
M  V30 5 1 5 6
M  V30 6 1 6 7
M  V30 7 2 7 8
M  V30 8 1 8 9
M  V30 9 1 9 10
M  V30 10 1 10 11
M  V30 11 2 11 12
M  V30 12 1 11 13
M  V30 13 1 13 14
M  V30 14 2 14 15
M  V30 15 1 15 16
M  V30 16 2 16 17
M  V30 17 1 17 18
M  V30 18 2 18 19
M  V30 19 1 9 20
M  V30 20 2 20 21
M  V30 21 1 21 22
M  V30 22 2 22 23
M  V30 23 1 23 24
M  V30 24 2 24 25
M  V30 25 1 25 26
M  V30 26 2 26 27
M  V30 27 1 27 28
M  V30 28 2 28 29
M  V30 29 1 29 30
M  V30 30 2 30 31
M  V30 31 2 6 32
M  V30 32 1 32 2
M  V30 33 1 21 7
M  V30 34 1 31 22
M  V30 35 1 19 14
M  V30 36 1 31 26
M  V30 37 1 1 33
M  V30 38 1 1 34
M  V30 39 1 1 35
M  V30 40 1 3 36
M  V30 41 1 4 37
M  V30 42 1 5 38
M  V30 43 1 10 39
M  V30 44 1 10 40
M  V30 45 1 13 41
M  V30 46 1 15 42
M  V30 47 1 16 43
M  V30 48 1 17 44
M  V30 49 1 18 45
M  V30 50 1 19 46
M  V30 51 1 20 47
M  V30 52 1 23 48
M  V30 53 1 24 49
M  V30 54 1 27 50
M  V30 55 1 28 51
M  V30 56 1 29 52
M  V30 57 1 30 53
M  V30 END BOND
M  V30 END CTAB
M  END
>  <Dataset>  (537) 
ChEMBL_Kinases

>  <Ligand_Instance>  (537) 
nan

>  <PDB_ID>  (537) 
nan

>  <Standardized_SMILES>  (537) 
Cc1cccc(-c2nn(CC(=S)Nc3ccccc3)cc2-c2ccnc3ccccc23)n1

>  <Name>  (537) 
nan

>  <Pocket>  (537) 
nan

>  <ATP_Site>  (537) 
nan

>  <Peripheral>  (537) 
nan

>  <Num_H_Atoms_ProtBoundConf>  (537) 
nan

>  <Num_Resolved_Atoms>  (537) 
nan

>  <Num_Not_Resolved_Atoms>  (537) 
nan

$$$$
CHEMBL4649693
     RDKit          3D

  0  0  0  0  0  0  0  0  0  0999 V3000
M  V30 BEGIN CTAB
M  V30 COUNTS 38 41 0 0 0
M  V30 BEGIN ATOM
M  V30 1 N 2.065516 -6.146480 3.659281 0
M  V30 2 C 0.808975 -5.658231 3.248351 0
M  V30 3 C 0.733846 -4.520971 2.476209 0
M  V30 4 C -0.552006 -4.126001 2.126307 0
M  V30 5 C -0.714692 -2.941623 1.316722 0
M  V30 6 C 0.165972 -2.079254 0.792195 0
M  V30 7 C -0.259827 -1.011444 0.044177 0
M  V30 8 C 0.469370 -0.019276 -0.577750 0
M  V30 9 O 1.737993 0.001082 -0.509250 0
M  V30 10 N -0.162738 0.923608 -1.254843 0
M  V30 11 C 0.654657 1.962104 -1.899217 0
M  V30 12 C 0.887234 3.122855 -1.022349 0
M  V30 13 C -0.073783 4.138232 -1.094894 0
M  V30 14 C -0.035352 5.302972 -0.356622 0
M  V30 15 C 1.015438 5.494737 0.517036 0
M  V30 16 C 1.977356 4.509642 0.608683 0
M  V30 17 F 3.056136 4.594394 1.437212 0
M  V30 18 C 1.921099 3.351517 -0.138410 0
M  V30 19 C -1.479728 1.044753 -1.422171 0
M  V30 20 N -2.216167 0.100007 -0.832734 0
M  V30 21 C -1.645918 -0.908050 -0.115647 0
M  V30 22 S -2.329635 -2.309556 0.785382 0
M  V30 23 C -1.665251 -4.831845 2.530281 0
M  V30 24 C -1.492901 -5.961119 3.303342 0
M  V30 25 N -0.252062 -6.354322 3.649132 0
M  V30 26 H 2.207827 -6.727384 4.533776 0
M  V30 27 H 3.052534 -6.122490 3.340127 0
M  V30 28 H 1.572689 -3.955080 2.148854 0
M  V30 29 H 1.222230 -2.286428 1.000593 0
M  V30 30 H 1.666475 1.552417 -2.139602 0
M  V30 31 H 0.154934 2.281092 -2.823461 0
M  V30 32 H -0.932667 4.049459 -1.767528 0
M  V30 33 H -0.802572 6.052730 -0.451666 0
M  V30 34 H 1.128767 6.375090 1.135756 0
M  V30 35 H 2.651277 2.555396 -0.099210 0
M  V30 36 H -2.005837 1.808739 -1.971745 0
M  V30 37 H -2.684742 -4.555762 2.277871 0
M  V30 38 H -2.369727 -6.526645 3.627993 0
M  V30 END ATOM
M  V30 BEGIN BOND
M  V30 1 1 1 2
M  V30 2 2 2 3
M  V30 3 1 3 4
M  V30 4 1 4 5
M  V30 5 2 5 6
M  V30 6 1 6 7
M  V30 7 1 7 8
M  V30 8 2 8 9
M  V30 9 1 8 10
M  V30 10 1 10 11
M  V30 11 1 11 12
M  V30 12 2 12 13
M  V30 13 1 13 14
M  V30 14 2 14 15
M  V30 15 1 15 16
M  V30 16 1 16 17
M  V30 17 2 16 18
M  V30 18 1 10 19
M  V30 19 2 19 20
M  V30 20 1 20 21
M  V30 21 1 21 22
M  V30 22 2 4 23
M  V30 23 1 23 24
M  V30 24 2 24 25
M  V30 25 1 25 2
M  V30 26 1 22 5
M  V30 27 2 21 7
M  V30 28 1 18 12
M  V30 29 1 1 26
M  V30 30 1 1 27
M  V30 31 1 3 28
M  V30 32 1 6 29
M  V30 33 1 11 30
M  V30 34 1 11 31
M  V30 35 1 13 32
M  V30 36 1 14 33
M  V30 37 1 15 34
M  V30 38 1 18 35
M  V30 39 1 19 36
M  V30 40 1 23 37
M  V30 41 1 24 38
M  V30 END BOND
M  V30 END CTAB
M  END
>  <Dataset>  (538) 
ChEMBL_Kinases

>  <Ligand_Instance>  (538) 
nan

>  <PDB_ID>  (538) 
nan

>  <Standardized_SMILES>  (538) 
Nc1cc(-c2cc3c(=O)n(Cc4cccc(F)c4)cnc3s2)ccn1

>  <Name>  (538) 
nan

>  <Pocket>  (538) 
nan

>  <ATP_Site>  (538) 
nan

>  <Peripheral>  (538) 
nan

>  <Num_H_Atoms_ProtBoundConf>  (538) 
nan

>  <Num_Resolved_Atoms>  (538) 
nan

>  <Num_Not_Resolved_Atoms>  (538) 
nan

$$$$
CHEMBL4649719
     RDKit          3D

  0  0  0  0  0  0  0  0  0  0999 V3000
M  V30 BEGIN CTAB
M  V30 COUNTS 54 58 0 0 0
M  V30 BEGIN ATOM
M  V30 1 C 3.739418 -4.605369 3.273319 0
M  V30 2 C 2.819746 -3.462271 3.069428 0
M  V30 3 C 2.194493 -2.965019 4.194130 0
M  V30 4 C 1.336346 -1.898465 4.004862 0
M  V30 5 C 1.133356 -1.373138 2.728520 0
M  V30 6 C 1.795392 -1.919669 1.628407 0
M  V30 7 C 1.501130 -1.283375 0.348745 0
M  V30 8 N 1.828966 0.027693 0.238098 0
M  V30 9 N 1.520111 0.497213 -0.955110 0
M  V30 10 C 1.721347 1.849848 -1.439827 0
M  V30 11 C 0.535692 2.699102 -1.152385 0
M  V30 12 S -0.469110 3.529258 -2.166892 0
M  V30 13 N 0.199883 2.826730 0.222147 0
M  V30 14 C -0.882491 3.578284 0.758168 0
M  V30 15 C -0.824529 4.910665 1.137595 0
M  V30 16 C -1.932637 5.558114 1.650215 0
M  V30 17 C -3.090854 4.815658 1.764105 0
M  V30 18 C -3.204466 3.487834 1.402111 0
M  V30 19 C -4.424047 2.742401 1.533047 0
M  V30 20 N -5.429501 2.144367 1.647067 0
M  V30 21 C -2.078235 2.872916 0.893867 0
M  V30 22 C 0.979585 -0.527905 -1.637737 0
M  V30 23 C 0.950915 -1.652500 -0.859215 0
M  V30 24 C 0.502731 -3.015261 -1.034192 0
M  V30 25 C 1.303240 -4.142248 -0.981345 0
M  V30 26 C 0.787210 -5.411529 -1.161159 0
M  V30 27 N -0.523598 -5.585437 -1.395143 0
M  V30 28 C -1.334022 -4.519732 -1.454110 0
M  V30 29 C -2.681816 -4.801915 -1.702198 0
M  V30 30 C -3.519439 -3.686701 -1.762096 0
M  V30 31 C -3.093980 -2.393710 -1.595880 0
M  V30 32 C -1.741074 -2.194259 -1.353031 0
M  V30 33 C -0.851582 -3.236231 -1.278974 0
M  V30 34 N 2.638638 -2.970481 1.826578 0
M  V30 35 H 4.452438 -4.261987 4.079082 0
M  V30 36 H 4.287401 -4.884514 2.371064 0
M  V30 37 H 3.212793 -5.484741 3.730509 0
M  V30 38 H 2.344045 -3.363655 5.187474 0
M  V30 39 H 0.796959 -1.435298 4.821419 0
M  V30 40 H 0.449519 -0.531940 2.616214 0
M  V30 41 H 2.555488 2.304841 -0.837151 0
M  V30 42 H 1.962557 1.846166 -2.518003 0
M  V30 43 H 0.682834 2.397449 1.055636 0
M  V30 44 H 0.133286 5.403877 1.007537 0
M  V30 45 H -1.867564 6.595872 1.940042 0
M  V30 46 H -3.973441 5.329212 2.171991 0
M  V30 47 H -2.158597 1.817698 0.603461 0
M  V30 48 H 0.599788 -0.548294 -2.649646 0
M  V30 49 H 2.350556 -3.961580 -0.791494 0
M  V30 50 H 1.466576 -6.266054 -1.108880 0
M  V30 51 H -3.051047 -5.807222 -1.837889 0
M  V30 52 H -4.587723 -3.819940 -1.952444 0
M  V30 53 H -3.782002 -1.566317 -1.651532 0
M  V30 54 H -1.389725 -1.181895 -1.219807 0
M  V30 END ATOM
M  V30 BEGIN BOND
M  V30 1 1 1 2
M  V30 2 2 2 3
M  V30 3 1 3 4
M  V30 4 2 4 5
M  V30 5 1 5 6
M  V30 6 1 6 7
M  V30 7 2 7 8
M  V30 8 1 8 9
M  V30 9 1 9 10
M  V30 10 1 10 11
M  V30 11 2 11 12
M  V30 12 1 11 13
M  V30 13 1 13 14
M  V30 14 2 14 15
M  V30 15 1 15 16
M  V30 16 2 16 17
M  V30 17 1 17 18
M  V30 18 1 18 19
M  V30 19 3 19 20
M  V30 20 2 18 21
M  V30 21 1 9 22
M  V30 22 2 22 23
M  V30 23 1 23 24
M  V30 24 2 24 25
M  V30 25 1 25 26
M  V30 26 2 26 27
M  V30 27 1 27 28
M  V30 28 2 28 29
M  V30 29 1 29 30
M  V30 30 2 30 31
M  V30 31 1 31 32
M  V30 32 2 32 33
M  V30 33 2 6 34
M  V30 34 1 34 2
M  V30 35 1 23 7
M  V30 36 1 33 24
M  V30 37 1 21 14
M  V30 38 1 33 28
M  V30 39 1 1 35
M  V30 40 1 1 36
M  V30 41 1 1 37
M  V30 42 1 3 38
M  V30 43 1 4 39
M  V30 44 1 5 40
M  V30 45 1 10 41
M  V30 46 1 10 42
M  V30 47 1 13 43
M  V30 48 1 15 44
M  V30 49 1 16 45
M  V30 50 1 17 46
M  V30 51 1 21 47
M  V30 52 1 22 48
M  V30 53 1 25 49
M  V30 54 1 26 50
M  V30 55 1 29 51
M  V30 56 1 30 52
M  V30 57 1 31 53
M  V30 58 1 32 54
M  V30 END BOND
M  V30 END CTAB
M  END
>  <Dataset>  (539) 
ChEMBL_Kinases

>  <Ligand_Instance>  (539) 
nan

>  <PDB_ID>  (539) 
nan

>  <Standardized_SMILES>  (539) 
Cc1cccc(-c2nn(CC(=S)Nc3cccc(C#N)c3)cc2-c2ccnc3ccccc23)n1

>  <Name>  (539) 
nan

>  <Pocket>  (539) 
nan

>  <ATP_Site>  (539) 
nan

>  <Peripheral>  (539) 
nan

>  <Num_H_Atoms_ProtBoundConf>  (539) 
nan

>  <Num_Resolved_Atoms>  (539) 
nan

>  <Num_Not_Resolved_Atoms>  (539) 
nan

$$$$
CHEMBL567082
     RDKit          3D

  0  0  0  0  0  0  0  0  0  0999 V3000
M  V30 BEGIN CTAB
M  V30 COUNTS 62 66 0 0 0
M  V30 BEGIN ATOM
M  V30 1 C -4.753127 -0.848658 0.741249 0
M  V30 2 C -3.614694 -0.978751 1.097893 0
M  V30 3 C -2.275744 -1.147727 1.538813 0
M  V30 4 C -2.095156 -1.461363 2.861146 0
M  V30 5 C -0.831065 -1.662850 3.339287 0
M  V30 6 C 0.219882 -1.535788 2.446755 0
M  V30 7 C -0.009014 -1.210887 1.093847 0
M  V30 8 C 1.277696 -1.101456 0.344532 0
M  V30 9 C 1.710608 -1.829082 -0.772577 0
M  V30 10 S 3.351358 -1.056241 -1.187359 0
M  V30 11 C 3.306621 0.172673 0.180624 0
M  V30 12 C 4.468723 1.135617 0.320511 0
M  V30 13 N 4.179487 2.393048 -0.258530 0
M  V30 14 C 3.743189 2.444158 -1.597768 0
M  V30 15 C 2.304722 2.863089 -1.763557 0
M  V30 16 N 1.639093 3.183749 -0.538259 0
M  V30 17 C 0.406741 3.901708 -0.806836 0
M  V30 18 C 2.388757 3.969290 0.395063 0
M  V30 19 C 3.796794 3.454293 0.596891 0
M  V30 20 C 2.116824 -0.083715 0.808624 0
M  V30 21 C -1.322195 -0.998728 0.577951 0
M  V30 22 C -1.323181 -0.595686 -0.828896 0
M  V30 23 C -2.080129 -1.498684 -1.681657 0
M  V30 24 C -1.742350 -2.798165 -1.957437 0
M  V30 25 C -2.442960 -3.727376 -2.686124 0
M  V30 26 C -3.663792 -3.340035 -3.237108 0
M  V30 27 C -4.075648 -2.044425 -3.005032 0
M  V30 28 C -3.311774 -1.143994 -2.251079 0
M  V30 29 C -3.834840 0.230870 -2.144404 0
M  V30 30 C -5.382038 -1.856206 -3.693149 0
M  V30 31 C -5.688346 -2.995716 -4.279506 0
M  V30 32 C -4.670491 -4.032122 -4.062874 0
M  V30 33 H -5.773529 -0.715826 0.410231 0
M  V30 34 H -2.935889 -1.551004 3.531592 0
M  V30 35 H -0.644706 -1.909899 4.364961 0
M  V30 36 H 1.197874 -1.699629 2.852094 0
M  V30 37 H 1.321925 -2.579207 -1.281974 0
M  V30 38 H 4.716685 1.280071 1.397291 0
M  V30 39 H 5.357436 0.690765 -0.186984 0
M  V30 40 H 4.371098 3.157509 -2.169309 0
M  V30 41 H 3.889146 1.451392 -2.074158 0
M  V30 42 H 2.267595 3.675946 -2.512435 0
M  V30 43 H 1.694716 2.037465 -2.234013 0
M  V30 44 H -0.326091 3.172900 -1.191838 0
M  V30 45 H -0.045822 4.309307 0.125443 0
M  V30 46 H 0.518242 4.670749 -1.603578 0
M  V30 47 H 1.876711 3.875126 1.386864 0
M  V30 48 H 2.366400 5.061754 0.179226 0
M  V30 49 H 3.997260 3.213067 1.677414 0
M  V30 50 H 4.483492 4.322727 0.374128 0
M  V30 51 H 2.022757 0.606721 1.628225 0
M  V30 52 H -1.631003 0.479484 -0.949940 0
M  V30 53 H -0.292030 -0.585442 -1.241192 0
M  V30 54 H -0.828484 -3.223781 -1.578390 0
M  V30 55 H -2.133722 -4.739160 -2.875361 0
M  V30 56 H -3.557338 0.812453 -1.285032 0
M  V30 57 H -3.470505 0.788754 -3.052161 0
M  V30 58 H -4.956304 0.181935 -2.289604 0
M  V30 59 H -5.983372 -0.932000 -3.706574 0
M  V30 60 H -6.559754 -3.231089 -4.871960 0
M  V30 61 H -4.268873 -4.445384 -4.998478 0
M  V30 62 H -5.179165 -4.874725 -3.546999 0
M  V30 END ATOM
M  V30 BEGIN BOND
M  V30 1 3 1 2
M  V30 2 1 2 3
M  V30 3 2 3 4
M  V30 4 1 4 5
M  V30 5 2 5 6
M  V30 6 1 6 7
M  V30 7 1 7 8
M  V30 8 2 8 9
M  V30 9 1 9 10
M  V30 10 1 10 11
M  V30 11 1 11 12
M  V30 12 1 12 13
M  V30 13 1 13 14
M  V30 14 1 14 15
M  V30 15 1 15 16
M  V30 16 1 16 17
M  V30 17 1 16 18
M  V30 18 1 18 19
M  V30 19 2 11 20
M  V30 20 2 7 21
M  V30 21 1 21 22
M  V30 22 1 22 23
M  V30 23 2 23 24
M  V30 24 1 24 25
M  V30 25 2 25 26
M  V30 26 1 26 27
M  V30 27 2 27 28
M  V30 28 1 28 29
M  V30 29 1 27 30
M  V30 30 2 30 31
M  V30 31 1 31 32
M  V30 32 1 21 3
M  V30 33 1 28 23
M  V30 34 1 20 8
M  V30 35 1 32 26
M  V30 36 1 19 13
M  V30 37 1 1 33
M  V30 38 1 4 34
M  V30 39 1 5 35
M  V30 40 1 6 36
M  V30 41 1 9 37
M  V30 42 1 12 38
M  V30 43 1 12 39
M  V30 44 1 14 40
M  V30 45 1 14 41
M  V30 46 1 15 42
M  V30 47 1 15 43
M  V30 48 1 17 44
M  V30 49 1 17 45
M  V30 50 1 17 46
M  V30 51 1 18 47
M  V30 52 1 18 48
M  V30 53 1 19 49
M  V30 54 1 19 50
M  V30 55 1 20 51
M  V30 56 1 22 52
M  V30 57 1 22 53
M  V30 58 1 24 54
M  V30 59 1 25 55
M  V30 60 1 29 56
M  V30 61 1 29 57
M  V30 62 1 29 58
M  V30 63 1 30 59
M  V30 64 1 31 60
M  V30 65 1 32 61
M  V30 66 1 32 62
M  V30 END BOND
M  V30 END CTAB
M  END
>  <Dataset>  (540) 
ChEMBL_Kinases

>  <Ligand_Instance>  (540) 
nan

>  <PDB_ID>  (540) 
nan

>  <Standardized_SMILES>  (540) 
C#Cc1cccc(-c2csc(CN3CCN(C)CC3)c2)c1Cc1ccc2c(c1C)C=CC2

>  <Name>  (540) 
nan

>  <Pocket>  (540) 
nan

>  <ATP_Site>  (540) 
nan

>  <Peripheral>  (540) 
nan

>  <Num_H_Atoms_ProtBoundConf>  (540) 
nan

>  <Num_Resolved_Atoms>  (540) 
nan

>  <Num_Not_Resolved_Atoms>  (540) 
nan

$$$$
CHEMBL4649318
     RDKit          3D

  0  0  0  0  0  0  0  0  0  0999 V3000
M  V30 BEGIN CTAB
M  V30 COUNTS 69 73 0 0 0
M  V30 BEGIN ATOM
M  V30 1 C 3.273626 0.173620 4.897601 0
M  V30 2 O 2.283265 0.243590 3.915491 0
M  V30 3 C 2.462693 -0.065510 2.575791 0
M  V30 4 C 3.679332 -0.482453 2.085379 0
M  V30 5 C 3.859837 -0.787323 0.767543 0
M  V30 6 N 5.108584 -1.216706 0.254236 0
M  V30 7 C 6.315759 -1.371447 1.038408 0
M  V30 8 C 6.769413 -2.839183 1.017204 0
M  V30 9 N 5.927395 -3.556731 0.134553 0
M  V30 10 C 4.853161 -4.293353 0.680997 0
M  V30 11 C 5.776159 -3.066927 -1.183573 0
M  V30 12 C 5.415075 -1.576191 -1.113162 0
M  V30 13 C 2.748533 -0.648756 -0.026010 0
M  V30 14 C 1.516242 -0.234511 0.429774 0
M  V30 15 C 1.346347 0.070766 1.764114 0
M  V30 16 N 0.108426 0.495558 2.267692 0
M  V30 17 C -1.040999 0.638323 1.440815 0
M  V30 18 N -1.307995 1.819840 0.823908 0
M  V30 19 C -2.397571 1.946603 0.043585 0
M  V30 20 C -3.282668 0.924754 -0.174082 0
M  V30 21 C -2.982762 -0.254965 0.464177 0
M  V30 22 N -1.894322 -0.391715 1.247467 0
M  V30 23 N -3.718361 -1.469857 0.417573 0
M  V30 24 C -3.024184 -2.651510 0.902451 0
M  V30 25 C -5.047598 -1.669910 -0.044424 0
M  V30 26 C -5.572042 -2.872275 0.413412 0
M  V30 27 C -6.858548 -3.218312 0.052965 0
M  V30 28 C -7.606521 -2.380351 -0.748785 0
M  V30 29 C -7.108042 -1.179084 -1.217286 0
M  V30 30 C -5.802971 -0.849606 -0.839285 0
M  V30 31 C -5.379644 0.438642 -1.388850 0
M  V30 32 O -6.078150 0.841966 -2.381147 0
M  V30 33 N -4.315097 1.359736 -1.029834 0
M  V30 34 C -4.346314 2.706115 -1.567062 0
M  V30 35 C -4.736410 3.792023 -0.621835 0
M  V30 36 C -3.366060 3.022184 -2.639441 0
M  V30 37 H 2.780878 0.079326 5.902669 0
M  V30 38 H 4.000166 1.012563 4.881953 0
M  V30 39 H 3.878948 -0.763640 4.762709 0
M  V30 40 H 4.455131 -0.545148 2.817460 0
M  V30 41 H 6.250723 -0.998158 2.059324 0
M  V30 42 H 7.149057 -0.787016 0.556257 0
M  V30 43 H 7.862032 -2.913950 0.799762 0
M  V30 44 H 6.628284 -3.224502 2.033212 0
M  V30 45 H 3.913213 -3.678173 0.567113 0
M  V30 46 H 4.629569 -5.222347 0.110682 0
M  V30 47 H 4.972852 -4.444084 1.767639 0
M  V30 48 H 4.919761 -3.585244 -1.650806 0
M  V30 49 H 6.679331 -3.157526 -1.823394 0
M  V30 50 H 4.566219 -1.364057 -1.765896 0
M  V30 51 H 6.301104 -0.965178 -1.461006 0
M  V30 52 H 2.754211 -0.857482 -1.084070 0
M  V30 53 H 0.650410 -0.129398 -0.202691 0
M  V30 54 H 0.032205 0.714932 3.292146 0
M  V30 55 H -2.525465 2.897695 -0.394860 0
M  V30 56 H -3.116113 -3.522632 0.197287 0
M  V30 57 H -3.235761 -2.899077 1.950015 0
M  V30 58 H -1.921763 -2.424296 0.858304 0
M  V30 59 H -4.977502 -3.501177 1.029619 0
M  V30 60 H -7.320630 -4.144402 0.380357 0
M  V30 61 H -8.633248 -2.644328 -1.043075 0
M  V30 62 H -7.645082 -0.479574 -1.848549 0
M  V30 63 H -5.302426 2.642183 -2.186627 0
M  V30 64 H -4.091621 4.705348 -0.739389 0
M  V30 65 H -5.763980 4.195052 -0.699928 0
M  V30 66 H -4.687469 3.476178 0.463391 0
M  V30 67 H -2.882199 4.036098 -2.504859 0
M  V30 68 H -2.556441 2.233739 -2.697613 0
M  V30 69 H -3.733142 3.055453 -3.683173 0
M  V30 END ATOM
M  V30 BEGIN BOND
M  V30 1 1 1 2
M  V30 2 1 2 3
M  V30 3 2 3 4
M  V30 4 1 4 5
M  V30 5 1 5 6
M  V30 6 1 6 7
M  V30 7 1 7 8
M  V30 8 1 8 9
M  V30 9 1 9 10
M  V30 10 1 9 11
M  V30 11 1 11 12
M  V30 12 2 5 13
M  V30 13 1 13 14
M  V30 14 2 14 15
M  V30 15 1 15 16
M  V30 16 1 16 17
M  V30 17 2 17 18
M  V30 18 1 18 19
M  V30 19 2 19 20
M  V30 20 1 20 21
M  V30 21 2 21 22
M  V30 22 1 21 23
M  V30 23 1 23 24
M  V30 24 1 23 25
M  V30 25 2 25 26
M  V30 26 1 26 27
M  V30 27 2 27 28
M  V30 28 1 28 29
M  V30 29 2 29 30
M  V30 30 1 30 31
M  V30 31 2 31 32
M  V30 32 1 31 33
M  V30 33 1 33 34
M  V30 34 1 34 35
M  V30 35 1 34 36
M  V30 36 1 15 3
M  V30 37 1 22 17
M  V30 38 1 30 25
M  V30 39 1 12 6
M  V30 40 1 33 20
M  V30 41 1 1 37
M  V30 42 1 1 38
M  V30 43 1 1 39
M  V30 44 1 4 40
M  V30 45 1 7 41
M  V30 46 1 7 42
M  V30 47 1 8 43
M  V30 48 1 8 44
M  V30 49 1 10 45
M  V30 50 1 10 46
M  V30 51 1 10 47
M  V30 52 1 11 48
M  V30 53 1 11 49
M  V30 54 1 12 50
M  V30 55 1 12 51
M  V30 56 1 13 52
M  V30 57 1 14 53
M  V30 58 1 16 54
M  V30 59 1 19 55
M  V30 60 1 24 56
M  V30 61 1 24 57
M  V30 62 1 24 58
M  V30 63 1 26 59
M  V30 64 1 27 60
M  V30 65 1 28 61
M  V30 66 1 29 62
M  V30 67 1 34 63
M  V30 68 1 35 64
M  V30 69 1 35 65
M  V30 70 1 35 66
M  V30 71 1 36 67
M  V30 72 1 36 68
M  V30 73 1 36 69
M  V30 END BOND
M  V30 END CTAB
M  END
>  <Dataset>  (541) 
ChEMBL_Kinases

>  <Ligand_Instance>  (541) 
nan

>  <PDB_ID>  (541) 
nan

>  <Standardized_SMILES>  (541) 
COc1cc(N2CCN(C)CC2)ccc1Nc1ncc2c(n1)N(C)c1ccccc1C(=O)N2C(C)C

>  <Name>  (541) 
nan

>  <Pocket>  (541) 
nan

>  <ATP_Site>  (541) 
nan

>  <Peripheral>  (541) 
nan

>  <Num_H_Atoms_ProtBoundConf>  (541) 
nan

>  <Num_Resolved_Atoms>  (541) 
nan

>  <Num_Not_Resolved_Atoms>  (541) 
nan

$$$$
CHEMBL1990482
     RDKit          3D

  0  0  0  0  0  0  0  0  0  0999 V3000
M  V30 BEGIN CTAB
M  V30 COUNTS 28 30 0 0 0
M  V30 BEGIN ATOM
M  V30 1 N -2.152757 -2.834667 1.069382 0
M  V30 2 C -1.180364 -3.592033 1.784830 0
M  V30 3 O -1.439713 -4.718149 2.279622 0
M  V30 4 C 0.159698 -3.042463 1.948288 0
M  V30 5 C 1.138285 -3.727692 2.628481 0
M  V30 6 C 2.423181 -3.256294 2.813899 0
M  V30 7 C 2.699836 -2.016639 2.266374 0
M  V30 8 C 1.769253 -1.266966 1.568937 0
M  V30 9 N 1.754343 -0.076391 0.949467 0
M  V30 10 C 0.540615 0.169001 0.417841 0
M  V30 11 C 0.102561 1.359037 -0.342512 0
M  V30 12 C -1.207297 1.403445 -0.802528 0
M  V30 13 C -1.540078 2.562006 -1.511488 0
M  V30 14 N -0.676877 3.567923 -1.742571 0
M  V30 15 C 0.577478 3.453700 -1.265047 0
M  V30 16 C 1.037038 2.352814 -0.543548 0
M  V30 17 N -0.220671 -0.911470 0.721497 0
M  V30 18 C 0.492782 -1.810131 1.423373 0
M  V30 19 H -2.410915 -2.593881 0.081719 0
M  V30 20 H -2.785916 -2.400053 1.779093 0
M  V30 21 H 0.848924 -4.699145 3.033337 0
M  V30 22 H 3.164014 -3.819334 3.351694 0
M  V30 23 H 3.708360 -1.591602 2.383498 0
M  V30 24 H 2.578803 0.534463 0.909274 0
M  V30 25 H -1.912821 0.607004 -0.626931 0
M  V30 26 H -2.584125 2.562148 -1.859957 0
M  V30 27 H 1.282052 4.254645 -1.443269 0
M  V30 28 H 2.039916 2.277738 -0.170147 0
M  V30 END ATOM
M  V30 BEGIN BOND
M  V30 1 1 1 2
M  V30 2 2 2 3
M  V30 3 1 2 4
M  V30 4 2 4 5
M  V30 5 1 5 6
M  V30 6 2 6 7
M  V30 7 1 7 8
M  V30 8 1 8 9
M  V30 9 1 9 10
M  V30 10 1 10 11
M  V30 11 2 11 12
M  V30 12 1 12 13
M  V30 13 2 13 14
M  V30 14 1 14 15
M  V30 15 2 15 16
M  V30 16 2 10 17
M  V30 17 1 17 18
M  V30 18 1 18 4
M  V30 19 2 18 8
M  V30 20 1 16 11
M  V30 21 1 1 19
M  V30 22 1 1 20
M  V30 23 1 5 21
M  V30 24 1 6 22
M  V30 25 1 7 23
M  V30 26 1 9 24
M  V30 27 1 12 25
M  V30 28 1 13 26
M  V30 29 1 15 27
M  V30 30 1 16 28
M  V30 END BOND
M  V30 END CTAB
M  END
>  <Dataset>  (542) 
ChEMBL_Kinases

>  <Ligand_Instance>  (542) 
nan

>  <PDB_ID>  (542) 
nan

>  <Standardized_SMILES>  (542) 
NC(=O)c1cccc2[nH]c(-c3ccncc3)nc12

>  <Name>  (542) 
nan

>  <Pocket>  (542) 
nan

>  <ATP_Site>  (542) 
nan

>  <Peripheral>  (542) 
nan

>  <Num_H_Atoms_ProtBoundConf>  (542) 
nan

>  <Num_Resolved_Atoms>  (542) 
nan

>  <Num_Not_Resolved_Atoms>  (542) 
nan

$$$$
CHEMBL474600
     RDKit          3D

  0  0  0  0  0  0  0  0  0  0999 V3000
M  V30 BEGIN CTAB
M  V30 COUNTS 62 67 0 0 0
M  V30 BEGIN ATOM
M  V30 1 C 7.661940 2.896889 7.230925 0
M  V30 2 C 6.739446 2.712269 6.099404 0
M  V30 3 O 6.174165 1.575879 6.240114 0
M  V30 4 N 6.413215 3.543528 4.968398 0
M  V30 5 C 5.433185 2.823322 4.193481 0
M  V30 6 C 5.790569 1.956620 3.185420 0
M  V30 7 C 4.752295 1.332798 2.521856 0
M  V30 8 C 3.447529 1.597079 2.886487 0
M  V30 9 C 2.362180 0.923362 2.166488 0
M  V30 10 C 2.580265 -0.359497 1.667278 0
M  V30 11 C 1.533387 -0.955332 0.997116 0
M  V30 12 C 0.298926 -0.387886 0.783575 0
M  V30 13 C -0.827144 -0.846407 0.145622 0
M  V30 14 C -1.119583 -2.092295 -0.530877 0
M  V30 15 N -2.329017 -2.315068 -1.090381 0
M  V30 16 C -2.422536 -3.511907 -1.667470 0
M  V30 17 C -3.450566 -4.144642 -2.343291 0
M  V30 18 N -4.689978 -3.451540 -2.501095 0
M  V30 19 C -5.571281 -2.944265 -1.480709 0
M  V30 20 C -5.752782 -1.452000 -1.630577 0
M  V30 21 N -5.929115 -1.048008 -2.999380 0
M  V30 22 C -4.907506 -0.159194 -3.497254 0
M  V30 23 C -6.201802 -2.146018 -3.889661 0
M  V30 24 C -5.147301 -3.212669 -3.852316 0
M  V30 25 C -3.187068 -5.430199 -2.824988 0
M  V30 26 C -1.976437 -6.030938 -2.638022 0
M  V30 27 C -0.947540 -5.393678 -1.959826 0
M  V30 28 C -1.208795 -4.127307 -1.485843 0
M  V30 29 N -0.483218 -3.230642 -0.804902 0
M  V30 30 N -1.674358 0.197086 0.296147 0
M  V30 31 N -1.124760 1.184942 0.954304 0
M  V30 32 C 0.139530 0.881958 1.299160 0
M  V30 33 C 1.140696 1.544438 1.982142 0
M  V30 34 C 3.094960 2.467558 3.898669 0
M  V30 35 C 4.131780 3.092509 4.563563 0
M  V30 36 H 8.405881 2.052144 7.271967 0
M  V30 37 H 8.185022 3.866352 7.155255 0
M  V30 38 H 7.140395 2.888428 8.211275 0
M  V30 39 H 6.972700 4.427753 5.024520 0
M  V30 40 H 6.843756 1.831206 2.991428 0
M  V30 41 H 5.024601 0.648128 1.725506 0
M  V30 42 H 3.524062 -0.835928 1.811269 0
M  V30 43 H 1.745639 -1.940807 0.630994 0
M  V30 44 H -6.529367 -3.498382 -1.460729 0
M  V30 45 H -5.063036 -3.094775 -0.488060 0
M  V30 46 H -4.902693 -0.905868 -1.169134 0
M  V30 47 H -6.665803 -1.172747 -1.070356 0
M  V30 48 H -5.322950 0.487229 -4.297926 0
M  V30 49 H -4.045190 -0.772958 -3.876955 0
M  V30 50 H -4.488879 0.448953 -2.673494 0
M  V30 51 H -7.187251 -2.594332 -3.671331 0
M  V30 52 H -6.206427 -1.739201 -4.924416 0
M  V30 53 H -5.632568 -4.180903 -4.172922 0
M  V30 54 H -4.312205 -3.063530 -4.562329 0
M  V30 55 H -4.003939 -5.889661 -3.342709 0
M  V30 56 H -1.795825 -7.039801 -3.025730 0
M  V30 57 H 0.026594 -5.818694 -1.783011 0
M  V30 58 H 0.493543 -3.425933 -0.523164 0
M  V30 59 H -1.641700 2.066462 1.157264 0
M  V30 60 H 0.956657 2.526460 2.357776 0
M  V30 61 H 2.074263 2.644655 4.150470 0
M  V30 62 H 3.860254 3.772768 5.354691 0
M  V30 END ATOM
M  V30 BEGIN BOND
M  V30 1 1 1 2
M  V30 2 2 2 3
M  V30 3 1 2 4
M  V30 4 1 4 5
M  V30 5 2 5 6
M  V30 6 1 6 7
M  V30 7 2 7 8
M  V30 8 1 8 9
M  V30 9 2 9 10
M  V30 10 1 10 11
M  V30 11 2 11 12
M  V30 12 1 12 13
M  V30 13 1 13 14
M  V30 14 2 14 15
M  V30 15 1 15 16
M  V30 16 2 16 17
M  V30 17 1 17 18
M  V30 18 1 18 19
M  V30 19 1 19 20
M  V30 20 1 20 21
M  V30 21 1 21 22
M  V30 22 1 21 23
M  V30 23 1 23 24
M  V30 24 1 17 25
M  V30 25 2 25 26
M  V30 26 1 26 27
M  V30 27 2 27 28
M  V30 28 1 28 29
M  V30 29 2 13 30
M  V30 30 1 30 31
M  V30 31 1 31 32
M  V30 32 2 32 33
M  V30 33 1 8 34
M  V30 34 2 34 35
M  V30 35 1 35 5
M  V30 36 1 33 9
M  V30 37 1 32 12
M  V30 38 1 29 14
M  V30 39 1 28 16
M  V30 40 1 24 18
M  V30 41 1 1 36
M  V30 42 1 1 37
M  V30 43 1 1 38
M  V30 44 1 4 39
M  V30 45 1 6 40
M  V30 46 1 7 41
M  V30 47 1 10 42
M  V30 48 1 11 43
M  V30 49 1 19 44
M  V30 50 1 19 45
M  V30 51 1 20 46
M  V30 52 1 20 47
M  V30 53 1 22 48
M  V30 54 1 22 49
M  V30 55 1 22 50
M  V30 56 1 23 51
M  V30 57 1 23 52
M  V30 58 1 24 53
M  V30 59 1 24 54
M  V30 60 1 25 55
M  V30 61 1 26 56
M  V30 62 1 27 57
M  V30 63 1 29 58
M  V30 64 1 31 59
M  V30 65 1 33 60
M  V30 66 1 34 61
M  V30 67 1 35 62
M  V30 END BOND
M  V30 END CTAB
M  END
>  <Dataset>  (543) 
ChEMBL_Kinases

>  <Ligand_Instance>  (543) 
nan

>  <PDB_ID>  (543) 
nan

>  <Standardized_SMILES>  (543) 
CC(=O)Nc1ccc(-c2ccc3c(-c4nc5c(N6CCN(C)CC6)cccc5[nH]4)n[nH]c3c2)cc1

>  <Name>  (543) 
nan

>  <Pocket>  (543) 
nan

>  <ATP_Site>  (543) 
nan

>  <Peripheral>  (543) 
nan

>  <Num_H_Atoms_ProtBoundConf>  (543) 
nan

>  <Num_Resolved_Atoms>  (543) 
nan

>  <Num_Not_Resolved_Atoms>  (543) 
nan

$$$$
CHEMBL474619
     RDKit          3D

  0  0  0  0  0  0  0  0  0  0999 V3000
M  V30 BEGIN CTAB
M  V30 COUNTS 60 65 0 0 0
M  V30 BEGIN ATOM
M  V30 1 C 6.349737 -1.649165 3.321351 0
M  V30 2 O 5.622927 -0.779125 2.474110 0
M  V30 3 C 6.203279 0.319204 1.854015 0
M  V30 4 C 7.501506 0.774053 1.914684 0
M  V30 5 C 7.859232 1.902687 1.205858 0
M  V30 6 O 9.182515 2.311502 1.307337 0
M  V30 7 C 6.931880 2.578300 0.438993 0
M  V30 8 C 5.621710 2.135574 0.365975 0
M  V30 9 C 5.262005 1.000826 1.078626 0
M  V30 10 C 3.855265 0.637767 0.918894 0
M  V30 11 C 3.084028 0.281168 2.008431 0
M  V30 12 C 1.761839 -0.054123 1.813894 0
M  V30 13 C 1.135301 -0.061415 0.589199 0
M  V30 14 C -0.150032 -0.362288 0.212900 0
M  V30 15 C -1.311245 -0.780679 0.968116 0
M  V30 16 N -2.484752 -1.019709 0.359279 0
M  V30 17 C -3.449386 -1.396596 1.205999 0
M  V30 18 C -4.778233 -1.736641 1.034789 0
M  V30 19 N -5.354942 -1.722408 -0.247192 0
M  V30 20 C -5.546734 -0.691435 -1.251501 0
M  V30 21 C -4.636999 -1.040498 -2.381033 0
M  V30 22 N -4.556949 -2.387274 -2.720414 0
M  V30 23 C -4.602984 -2.506541 -4.179606 0
M  V30 24 C -5.309760 -3.375626 -2.056776 0
M  V30 25 C -5.902982 -3.002877 -0.735812 0
M  V30 26 C -5.476922 -2.080897 2.180454 0
M  V30 27 C -4.906002 -2.095586 3.454730 0
M  V30 28 C -3.570628 -1.750002 3.597910 0
M  V30 29 C -2.877614 -1.408138 2.458594 0
M  V30 30 N -1.608485 -1.032620 2.243212 0
M  V30 31 N -0.094332 -0.167519 -1.128353 0
M  V30 32 N 1.092942 0.209669 -1.522383 0
M  V30 33 C 1.934296 0.299643 -0.476959 0
M  V30 34 C 3.263623 0.643038 -0.328366 0
M  V30 35 H 7.405009 -1.677074 3.025558 0
M  V30 36 H 5.942937 -2.691356 3.268677 0
M  V30 37 H 6.253527 -1.371488 4.399604 0
M  V30 38 H 8.137390 0.166848 2.544632 0
M  V30 39 H 9.914056 1.656656 1.494035 0
M  V30 40 H 7.327397 3.444632 -0.068792 0
M  V30 41 H 4.999859 2.738192 -0.256418 0
M  V30 42 H 3.538927 0.273477 2.994800 0
M  V30 43 H 1.218676 -0.321030 2.699190 0
M  V30 44 H -5.426902 0.319826 -0.871391 0
M  V30 45 H -6.609756 -0.718739 -1.632317 0
M  V30 46 H -3.595147 -0.653399 -2.184132 0
M  V30 47 H -4.969158 -0.403065 -3.252856 0
M  V30 48 H -3.721938 -1.912763 -4.548310 0
M  V30 49 H -5.497737 -1.957817 -4.532852 0
M  V30 50 H -4.546254 -3.557050 -4.514518 0
M  V30 51 H -4.662156 -4.267686 -1.886383 0
M  V30 52 H -6.106967 -3.725552 -2.750271 0
M  V30 53 H -6.984326 -2.790204 -0.894086 0
M  V30 54 H -5.852861 -3.798630 0.018073 0
M  V30 55 H -6.532180 -2.355474 2.078390 0
M  V30 56 H -5.471384 -2.366723 4.326170 0
M  V30 57 H -3.059488 -1.737535 4.547500 0
M  V30 58 H -0.927660 -0.950496 3.018427 0
M  V30 59 H 1.307843 0.402292 -2.522367 0
M  V30 60 H 3.831865 0.916920 -1.214449 0
M  V30 END ATOM
M  V30 BEGIN BOND
M  V30 1 1 1 2
M  V30 2 1 2 3
M  V30 3 2 3 4
M  V30 4 1 4 5
M  V30 5 1 5 6
M  V30 6 2 5 7
M  V30 7 1 7 8
M  V30 8 2 8 9
M  V30 9 1 9 10
M  V30 10 2 10 11
M  V30 11 1 11 12
M  V30 12 2 12 13
M  V30 13 1 13 14
M  V30 14 1 14 15
M  V30 15 2 15 16
M  V30 16 1 16 17
M  V30 17 2 17 18
M  V30 18 1 18 19
M  V30 19 1 19 20
M  V30 20 1 20 21
M  V30 21 1 21 22
M  V30 22 1 22 23
M  V30 23 1 22 24
M  V30 24 1 24 25
M  V30 25 1 18 26
M  V30 26 2 26 27
M  V30 27 1 27 28
M  V30 28 2 28 29
M  V30 29 1 29 30
M  V30 30 2 14 31
M  V30 31 1 31 32
M  V30 32 1 32 33
M  V30 33 2 33 34
M  V30 34 1 9 3
M  V30 35 1 34 10
M  V30 36 1 33 13
M  V30 37 1 30 15
M  V30 38 1 29 17
M  V30 39 1 25 19
M  V30 40 1 1 35
M  V30 41 1 1 36
M  V30 42 1 1 37
M  V30 43 1 4 38
M  V30 44 1 6 39
M  V30 45 1 7 40
M  V30 46 1 8 41
M  V30 47 1 11 42
M  V30 48 1 12 43
M  V30 49 1 20 44
M  V30 50 1 20 45
M  V30 51 1 21 46
M  V30 52 1 21 47
M  V30 53 1 23 48
M  V30 54 1 23 49
M  V30 55 1 23 50
M  V30 56 1 24 51
M  V30 57 1 24 52
M  V30 58 1 25 53
M  V30 59 1 25 54
M  V30 60 1 26 55
M  V30 61 1 27 56
M  V30 62 1 28 57
M  V30 63 1 30 58
M  V30 64 1 32 59
M  V30 65 1 34 60
M  V30 END BOND
M  V30 END CTAB
M  END
>  <Dataset>  (544) 
ChEMBL_Kinases

>  <Ligand_Instance>  (544) 
nan

>  <PDB_ID>  (544) 
nan

>  <Standardized_SMILES>  (544) 
COc1cc(O)ccc1-c1ccc2c(-c3nc4c(N5CCN(C)CC5)cccc4[nH]3)n[nH]c2c1

>  <Name>  (544) 
nan

>  <Pocket>  (544) 
nan

>  <ATP_Site>  (544) 
nan

>  <Peripheral>  (544) 
nan

>  <Num_H_Atoms_ProtBoundConf>  (544) 
nan

>  <Num_Resolved_Atoms>  (544) 
nan

>  <Num_Not_Resolved_Atoms>  (544) 
nan

$$$$
CHEMBL198756
     RDKit          3D

  0  0  0  0  0  0  0  0  0  0999 V3000
M  V30 BEGIN CTAB
M  V30 COUNTS 49 52 0 0 0
M  V30 BEGIN ATOM
M  V30 1 C 0.596320 -1.297047 5.353579 0
M  V30 2 C 1.011401 -2.077509 4.122685 0
M  V30 3 C 2.427932 -1.704971 3.745561 0
M  V30 4 N 2.857734 -2.428300 2.579850 0
M  V30 5 C 2.243660 -2.334243 1.299792 0
M  V30 6 N 2.637466 -3.040823 0.207885 0
M  V30 7 C 2.021716 -2.907167 -0.964431 0
M  V30 8 C 0.948947 -2.033471 -1.108668 0
M  V30 9 C 0.544305 -1.307968 0.011951 0
M  V30 10 C -0.580768 -0.431831 -0.250483 0
M  V30 11 C -0.423708 0.938217 -0.245883 0
M  V30 12 C 0.733622 1.799092 -0.009837 0
M  V30 13 C 1.236431 2.586874 -1.038020 0
M  V30 14 C 2.344685 3.388178 -0.740065 0
M  V30 15 C 2.854744 3.347503 0.523480 0
M  V30 16 F 3.933544 4.131320 0.804421 0
M  V30 17 C 2.362937 2.566960 1.556012 0
M  V30 18 C 1.274806 1.773435 1.279692 0
M  V30 19 N -1.648925 1.444847 -0.521694 0
M  V30 20 C -2.515384 0.411002 -0.686683 0
M  V30 21 N -1.854246 -0.771323 -0.518559 0
M  V30 22 C -2.798406 -1.845160 -0.696539 0 CFG=2
M  V30 23 C -2.667695 -2.373686 -2.082432 0
M  V30 24 O -3.604295 -3.414660 -2.214779 0
M  V30 25 C -4.158443 -1.210982 -0.475894 0
M  V30 26 C -3.954316 0.187393 -0.993397 0
M  V30 27 N 1.207977 -1.490390 1.162807 0
M  V30 28 H 1.183019 -1.675620 6.212928 0
M  V30 29 H 0.725556 -0.221668 5.180261 0
M  V30 30 H -0.483316 -1.469025 5.572845 0
M  V30 31 H 0.296293 -1.794205 3.324799 0
M  V30 32 H 0.939966 -3.163362 4.283932 0
M  V30 33 H 2.467533 -0.614241 3.468927 0
M  V30 34 H 3.118553 -1.942617 4.575643 0
M  V30 35 H 3.685267 -3.094213 2.614599 0
M  V30 36 H 2.425115 -3.524578 -1.767726 0
M  V30 37 H 0.568901 -2.047508 -2.129475 0
M  V30 38 H 0.810205 2.595064 -2.017248 0
M  V30 39 H 2.770165 4.023628 -1.526466 0
M  V30 40 H 2.797801 2.558847 2.554336 0
M  V30 41 H 0.823502 1.124254 2.045017 0
M  V30 42 H -2.626842 -2.681963 0.012631 0
M  V30 43 H -1.668975 -2.895596 -2.143566 0
M  V30 44 H -2.710448 -1.644090 -2.888715 0
M  V30 45 H -3.653478 -3.863170 -1.330176 0
M  V30 46 H -4.303083 -1.146070 0.604075 0
M  V30 47 H -4.958973 -1.760172 -1.009098 0
M  V30 48 H -4.571235 0.927919 -0.413707 0
M  V30 49 H -4.074668 0.295643 -2.078568 0
M  V30 END ATOM
M  V30 BEGIN BOND
M  V30 1 1 1 2
M  V30 2 1 2 3
M  V30 3 1 3 4
M  V30 4 1 4 5
M  V30 5 2 5 6
M  V30 6 1 6 7
M  V30 7 2 7 8
M  V30 8 1 8 9
M  V30 9 1 9 10
M  V30 10 2 10 11
M  V30 11 1 11 12
M  V30 12 2 12 13
M  V30 13 1 13 14
M  V30 14 2 14 15
M  V30 15 1 15 16
M  V30 16 1 15 17
M  V30 17 2 17 18
M  V30 18 1 11 19
M  V30 19 2 19 20
M  V30 20 1 20 21
M  V30 21 1 21 22
M  V30 22 1 22 23
M  V30 23 1 23 24
M  V30 24 1 22 25
M  V30 25 1 25 26
M  V30 26 2 9 27
M  V30 27 1 27 5
M  V30 28 1 21 10
M  V30 29 1 18 12
M  V30 30 1 26 20
M  V30 31 1 1 28
M  V30 32 1 1 29
M  V30 33 1 1 30
M  V30 34 1 2 31
M  V30 35 1 2 32
M  V30 36 1 3 33
M  V30 37 1 3 34
M  V30 38 1 4 35
M  V30 39 1 7 36
M  V30 40 1 8 37
M  V30 41 1 13 38
M  V30 42 1 14 39
M  V30 43 1 17 40
M  V30 44 1 18 41
M  V30 45 1 22 42 CFG=1
M  V30 46 1 23 43
M  V30 47 1 23 44
M  V30 48 1 24 45
M  V30 49 1 25 46
M  V30 50 1 25 47
M  V30 51 1 26 48
M  V30 52 1 26 49
M  V30 END BOND
M  V30 END CTAB
M  END
>  <Dataset>  (545) 
ChEMBL_Kinases

>  <Ligand_Instance>  (545) 
nan

>  <PDB_ID>  (545) 
nan

>  <Standardized_SMILES>  (545) 
CCCNc1nccc(-c2c(-c3ccc(F)cc3)nc3n2[C@H](CO)CC3)n1

>  <Name>  (545) 
nan

>  <Pocket>  (545) 
nan

>  <ATP_Site>  (545) 
nan

>  <Peripheral>  (545) 
nan

>  <Num_H_Atoms_ProtBoundConf>  (545) 
nan

>  <Num_Resolved_Atoms>  (545) 
nan

>  <Num_Not_Resolved_Atoms>  (545) 
nan

$$$$
CHEMBL4746396
     RDKit          3D

  0  0  0  0  0  0  0  0  0  0999 V3000
M  V30 BEGIN CTAB
M  V30 COUNTS 41 44 0 0 0
M  V30 BEGIN ATOM
M  V30 1 O 1.623604 -2.611793 3.634374 0
M  V30 2 C 1.703289 -1.759550 2.715557 0
M  V30 3 C 2.809280 -1.821068 1.892593 0
M  V30 4 C 2.867736 -0.865241 0.886674 0
M  V30 5 C 1.885693 0.109901 0.693618 0
M  V30 6 C 2.105789 1.038901 -0.414758 0
M  V30 7 C 2.777274 0.541124 -1.513100 0
M  V30 8 C 3.040180 1.342960 -2.625160 0
M  V30 9 C 2.625336 2.645710 -2.627947 0
M  V30 10 C 2.723502 3.664752 -3.535183 0
M  V30 11 N 2.122865 4.750515 -2.991111 0
M  V30 12 N 1.673874 4.408370 -1.795401 0
M  V30 13 C 1.954130 3.117054 -1.512426 0
M  V30 14 C 1.674347 2.349366 -0.387546 0
M  V30 15 C 0.795301 0.104189 1.571423 0
M  V30 16 N 0.735642 -0.814967 2.541550 0
M  V30 17 C -0.433855 -0.771462 3.430910 0
M  V30 18 C -1.479618 -1.635950 2.816091 0
M  V30 19 C -2.366774 -1.064931 1.914369 0
M  V30 20 C -3.361819 -1.768491 1.294921 0
M  V30 21 C -3.522174 -3.116464 1.554881 0
M  V30 22 C -2.646264 -3.717210 2.455794 0
M  V30 23 C -2.801833 -5.166093 2.749729 0
M  V30 24 F -1.615903 -5.607295 3.292803 0
M  V30 25 F -3.838987 -5.419694 3.611221 0
M  V30 26 F -2.992951 -5.833753 1.544589 0
M  V30 27 C -1.654038 -2.975773 3.062121 0
M  V30 28 H 3.590937 -2.558979 2.008043 0
M  V30 29 H 3.752157 -0.934212 0.248745 0
M  V30 30 H 3.163002 -0.468662 -1.648467 0
M  V30 31 H 3.568260 0.991133 -3.516402 0
M  V30 32 H 3.197906 3.574516 -4.490292 0
M  V30 33 H 1.168470 5.103719 -1.188661 0
M  V30 34 H 1.155739 2.724435 0.467477 0
M  V30 35 H 0.072789 0.864691 1.385209 0
M  V30 36 H -0.120481 -1.282333 4.354171 0
M  V30 37 H -0.773005 0.253891 3.574900 0
M  V30 38 H -2.295210 -0.010982 1.666046 0
M  V30 39 H -4.042643 -1.306189 0.595839 0
M  V30 40 H -4.299873 -3.723193 1.086393 0
M  V30 41 H -0.988843 -3.446993 3.751497 0
M  V30 END ATOM
M  V30 BEGIN BOND
M  V30 1 2 1 2
M  V30 2 1 2 3
M  V30 3 2 3 4
M  V30 4 1 4 5
M  V30 5 1 5 6
M  V30 6 2 6 7
M  V30 7 1 7 8
M  V30 8 2 8 9
M  V30 9 1 9 10
M  V30 10 2 10 11
M  V30 11 1 11 12
M  V30 12 1 12 13
M  V30 13 2 13 14
M  V30 14 2 5 15
M  V30 15 1 15 16
M  V30 16 1 16 17
M  V30 17 1 17 18
M  V30 18 2 18 19
M  V30 19 1 19 20
M  V30 20 2 20 21
M  V30 21 1 21 22
M  V30 22 1 22 23
M  V30 23 1 23 24
M  V30 24 1 23 25
M  V30 25 1 23 26
M  V30 26 2 22 27
M  V30 27 1 16 2
M  V30 28 1 27 18
M  V30 29 1 14 6
M  V30 30 1 13 9
M  V30 31 1 3 28
M  V30 32 1 4 29
M  V30 33 1 7 30
M  V30 34 1 8 31
M  V30 35 1 10 32
M  V30 36 1 12 33
M  V30 37 1 14 34
M  V30 38 1 15 35
M  V30 39 1 17 36
M  V30 40 1 17 37
M  V30 41 1 19 38
M  V30 42 1 20 39
M  V30 43 1 21 40
M  V30 44 1 27 41
M  V30 END BOND
M  V30 END CTAB
M  END
>  <Dataset>  (546) 
ChEMBL_Kinases

>  <Ligand_Instance>  (546) 
nan

>  <PDB_ID>  (546) 
nan

>  <Standardized_SMILES>  (546) 
O=c1ccc(-c2ccc3cn[nH]c3c2)cn1Cc1cccc(C(F)(F)F)c1

>  <Name>  (546) 
nan

>  <Pocket>  (546) 
nan

>  <ATP_Site>  (546) 
nan

>  <Peripheral>  (546) 
nan

>  <Num_H_Atoms_ProtBoundConf>  (546) 
nan

>  <Num_Resolved_Atoms>  (546) 
nan

>  <Num_Not_Resolved_Atoms>  (546) 
nan

$$$$
CHEMBL4746428
     RDKit          3D

  0  0  0  0  0  0  0  0  0  0999 V3000
M  V30 BEGIN CTAB
M  V30 COUNTS 43 45 0 0 0
M  V30 BEGIN ATOM
M  V30 1 C -1.006998 -1.569418 4.949068 0
M  V30 2 C -0.634067 -1.491939 3.508125 0
M  V30 3 C 0.614446 -1.701976 2.954206 0
M  V30 4 N 0.567002 -1.543339 1.604808 0
M  V30 5 C 1.686338 -1.687369 0.705314 0 CFG=1
M  V30 6 C 1.354405 -2.491896 -0.514509 0
M  V30 7 C 2.311482 -0.392835 0.314868 0 CFG=2
M  V30 8 C 2.850006 0.400504 1.465260 0
M  V30 9 C 3.771595 1.468229 0.864481 0
M  V30 10 N 3.752982 1.478538 -0.567512 0
M  V30 11 C 2.471514 1.483313 -1.180915 0
M  V30 12 C 1.477414 0.514831 -0.524135 0 CFG=2
M  V30 13 F 0.736845 1.326168 0.319425 0
M  V30 14 C -0.701154 -1.233246 1.287353 0
M  V30 15 N -1.339894 -0.968007 0.135464 0
M  V30 16 C -2.645472 -0.677060 0.066018 0
M  V30 17 C -3.289174 -0.396484 -1.215349 0
M  V30 18 N -2.502861 -0.436043 -2.407599 0
M  V30 19 O -4.511892 -0.117169 -1.342379 0
M  V30 20 C -3.419632 -0.635893 1.219732 0
M  V30 21 C -2.817305 -0.900168 2.434758 0
M  V30 22 Cl -3.736187 -0.864839 3.927632 0
M  V30 23 C -1.470390 -1.194538 2.453714 0
M  V30 24 H -0.204470 -2.140333 5.497406 0
M  V30 25 H -1.157321 -0.593521 5.413668 0
M  V30 26 H -1.908925 -2.241355 5.054338 0
M  V30 27 H 1.494033 -1.956109 3.529618 0
M  V30 28 H 2.507840 -2.267760 1.212099 0
M  V30 29 H 0.553638 -2.114782 -1.142175 0
M  V30 30 H 2.282683 -2.718813 -1.053104 0
M  V30 31 H 0.995402 -3.492374 -0.131842 0
M  V30 32 H 3.211368 -0.663870 -0.309892 0
M  V30 33 H 3.339422 -0.176142 2.255532 0
M  V30 34 H 1.980106 0.977941 1.885347 0
M  V30 35 H 3.584490 2.457144 1.318285 0
M  V30 36 H 4.800830 1.166578 1.167276 0
M  V30 37 H 4.469474 0.914947 -1.034371 0
M  V30 38 H 2.070243 2.497645 -1.240708 0
M  V30 39 H 2.609282 1.135145 -2.233084 0
M  V30 40 H 0.869095 0.000225 -1.286670 0
M  V30 41 H -2.662353 -1.407337 -2.723499 0
M  V30 42 H -1.897722 0.272671 -2.904219 0
M  V30 43 H -4.481154 -0.398645 1.156955 0
M  V30 END ATOM
M  V30 BEGIN BOND
M  V30 1 1 1 2
M  V30 2 2 2 3
M  V30 3 1 3 4
M  V30 4 1 4 5
M  V30 5 1 5 6
M  V30 6 1 5 7
M  V30 7 1 7 8
M  V30 8 1 8 9
M  V30 9 1 9 10
M  V30 10 1 10 11
M  V30 11 1 11 12
M  V30 12 1 12 13
M  V30 13 1 4 14
M  V30 14 2 14 15
M  V30 15 1 15 16
M  V30 16 1 16 17
M  V30 17 1 17 18
M  V30 18 2 17 19
M  V30 19 2 16 20
M  V30 20 1 20 21
M  V30 21 1 21 22
M  V30 22 2 21 23
M  V30 23 1 23 2
M  V30 24 1 12 7
M  V30 25 1 23 14
M  V30 26 1 1 24
M  V30 27 1 1 25
M  V30 28 1 1 26
M  V30 29 1 3 27
M  V30 30 1 5 28 CFG=1
M  V30 31 1 6 29
M  V30 32 1 6 30
M  V30 33 1 6 31
M  V30 34 1 7 32 CFG=3
M  V30 35 1 8 33
M  V30 36 1 8 34
M  V30 37 1 9 35
M  V30 38 1 9 36
M  V30 39 1 10 37
M  V30 40 1 11 38
M  V30 41 1 11 39
M  V30 42 1 12 40 CFG=3
M  V30 43 1 18 41
M  V30 44 1 18 42
M  V30 45 1 20 43
M  V30 END BOND
M  V30 END CTAB
M  END
>  <Dataset>  (547) 
ChEMBL_Kinases

>  <Ligand_Instance>  (547) 
nan

>  <PDB_ID>  (547) 
nan

>  <Standardized_SMILES>  (547) 
Cc1cn([C@@H](C)[C@@H]2CCNC[C@@H]2F)c2nc(C(N)=O)cc(Cl)c12

>  <Name>  (547) 
nan

>  <Pocket>  (547) 
nan

>  <ATP_Site>  (547) 
nan

>  <Peripheral>  (547) 
nan

>  <Num_H_Atoms_ProtBoundConf>  (547) 
nan

>  <Num_Resolved_Atoms>  (547) 
nan

>  <Num_Not_Resolved_Atoms>  (547) 
nan

$$$$
CHEMBL4746440
     RDKit          3D

  0  0  0  0  0  0  0  0  0  0999 V3000
M  V30 BEGIN CTAB
M  V30 COUNTS 39 42 0 0 0
M  V30 BEGIN ATOM
M  V30 1 F -1.745886 -5.670235 1.498874 0
M  V30 2 C -1.041622 -4.707949 2.197718 0
M  V30 3 F -0.136667 -5.315891 3.056346 0
M  V30 4 F -1.934266 -3.949546 2.939576 0
M  V30 5 C -0.350484 -3.823360 1.236909 0
M  V30 6 C -0.494073 -4.054326 -0.115708 0
M  V30 7 N 0.100289 -3.288083 -1.069481 0
M  V30 8 C 0.860896 -2.258943 -0.648628 0
M  V30 9 N 1.633082 -1.224490 -1.301585 0
M  V30 10 C 1.127143 0.131285 -1.229646 0
M  V30 11 C 1.893664 1.151860 -1.785134 0
M  V30 12 C 1.414571 2.439004 -1.685047 0
M  V30 13 C 0.211614 2.726203 -1.056057 0
M  V30 14 N -0.202645 3.996482 -0.981347 0
M  V30 15 C -1.368693 4.313047 -0.368545 0
M  V30 16 C -2.147664 3.327377 0.189331 0
M  V30 17 C -1.754230 1.987709 0.134383 0
M  V30 18 C -0.561082 1.699007 -0.497342 0
M  V30 19 C -0.066611 0.394447 -0.604153 0
M  V30 20 N 0.990055 -2.048436 0.668608 0
M  V30 21 C 0.444605 -2.748668 1.658007 0
M  V30 22 N 0.605269 -2.491388 3.054757 0
M  V30 23 C 1.347955 -1.421100 3.675926 0
M  V30 24 C 0.858450 -0.043225 3.320547 0
M  V30 25 C 2.211918 -0.487104 2.914431 0
M  V30 26 H -1.081472 -4.848852 -0.527570 0
M  V30 27 H 2.516121 -1.421813 -1.804162 0
M  V30 28 H 2.834963 0.869612 -2.270177 0
M  V30 29 H 2.050518 3.219224 -2.136688 0
M  V30 30 H -1.685614 5.364277 -0.321513 0
M  V30 31 H -3.073698 3.507865 0.684867 0
M  V30 32 H -2.352223 1.196205 0.564727 0
M  V30 33 H -0.680009 -0.397672 -0.164382 0
M  V30 34 H 0.132580 -3.145883 3.713306 0
M  V30 35 H 1.639994 -1.565524 4.755384 0
M  V30 36 H 0.048444 0.045869 2.541419 0
M  V30 37 H 0.782840 0.687998 4.145899 0
M  V30 38 H 3.067168 -0.009720 3.463486 0
M  V30 39 H 2.491765 -0.776067 1.898776 0
M  V30 END ATOM
M  V30 BEGIN BOND
M  V30 1 1 1 2
M  V30 2 1 2 3
M  V30 3 1 2 4
M  V30 4 1 2 5
M  V30 5 2 5 6
M  V30 6 1 6 7
M  V30 7 2 7 8
M  V30 8 1 8 9
M  V30 9 1 9 10
M  V30 10 2 10 11
M  V30 11 1 11 12
M  V30 12 2 12 13
M  V30 13 1 13 14
M  V30 14 2 14 15
M  V30 15 1 15 16
M  V30 16 2 16 17
M  V30 17 1 17 18
M  V30 18 2 18 19
M  V30 19 1 8 20
M  V30 20 2 20 21
M  V30 21 1 21 22
M  V30 22 1 22 23
M  V30 23 1 23 24
M  V30 24 1 24 25
M  V30 25 1 21 5
M  V30 26 1 25 23
M  V30 27 1 19 10
M  V30 28 1 18 13
M  V30 29 1 6 26
M  V30 30 1 9 27
M  V30 31 1 11 28
M  V30 32 1 12 29
M  V30 33 1 15 30
M  V30 34 1 16 31
M  V30 35 1 17 32
M  V30 36 1 19 33
M  V30 37 1 22 34
M  V30 38 1 23 35
M  V30 39 1 24 36
M  V30 40 1 24 37
M  V30 41 1 25 38
M  V30 42 1 25 39
M  V30 END BOND
M  V30 END CTAB
M  END
>  <Dataset>  (548) 
ChEMBL_Kinases

>  <Ligand_Instance>  (548) 
nan

>  <PDB_ID>  (548) 
nan

>  <Standardized_SMILES>  (548) 
FC(F)(F)c1cnc(Nc2ccc3ncccc3c2)nc1NC1CC1

>  <Name>  (548) 
nan

>  <Pocket>  (548) 
nan

>  <ATP_Site>  (548) 
nan

>  <Peripheral>  (548) 
nan

>  <Num_H_Atoms_ProtBoundConf>  (548) 
nan

>  <Num_Resolved_Atoms>  (548) 
nan

>  <Num_Not_Resolved_Atoms>  (548) 
nan

$$$$
CHEMBL4746508
     RDKit          3D

  0  0  0  0  0  0  0  0  0  0999 V3000
M  V30 BEGIN CTAB
M  V30 COUNTS 43 45 0 0 0
M  V30 BEGIN ATOM
M  V30 1 C 3.724502 -3.933715 2.092593 0
M  V30 2 O 2.755063 -3.629641 3.097635 0
M  V30 3 C 1.808610 -2.645243 2.783556 0
M  V30 4 C 1.813367 -1.985001 1.554791 0
M  V30 5 C 0.920398 -1.010463 1.179230 0
M  V30 6 C 1.059359 -0.449518 -0.188896 0
M  V30 7 O 1.877691 -1.023416 -0.938451 0
M  V30 8 N 0.313641 0.674824 -0.634741 0
M  V30 9 C 0.354699 1.288957 -1.936794 0 CFG=2
M  V30 10 C 1.449330 2.332297 -2.036235 0
M  V30 11 C -0.919920 1.762761 -2.457926 0
M  V30 12 C -1.486310 1.467635 -3.662702 0
M  V30 13 F -0.808778 0.632982 -4.493002 0
M  V30 14 C -2.706895 1.996122 -4.033852 0
M  V30 15 C -3.408641 2.862461 -3.181147 0
M  V30 16 C -2.833853 3.166359 -1.948479 0
M  V30 17 C -1.605132 2.624332 -1.586351 0
M  V30 18 F -1.182425 3.035685 -0.354229 0
M  V30 19 C -0.065389 -0.656153 2.097428 0
M  V30 20 C -0.086848 -1.297788 3.314008 0
M  V30 21 C 0.814390 -2.274400 3.681348 0
M  V30 22 C 0.816886 -3.004932 4.954320 0
M  V30 23 C 0.895774 -4.357467 5.129887 0
M  V30 24 N 0.886644 -4.665775 6.431241 0
M  V30 25 N 0.800423 -3.552007 7.140642 0
M  V30 26 C 0.757660 -2.521998 6.243340 0
M  V30 27 H 3.205705 -4.203661 1.134768 0
M  V30 28 H 4.342927 -4.807568 2.350437 0
M  V30 29 H 4.380686 -3.095595 1.862692 0
M  V30 30 H 2.595188 -2.297079 0.885671 0
M  V30 31 H -0.309354 1.038465 0.118223 0
M  V30 32 H 0.731753 0.463552 -2.622309 0
M  V30 33 H 2.360259 1.827454 -2.404684 0
M  V30 34 H 1.135793 3.067204 -2.786433 0
M  V30 35 H 1.742261 2.762978 -1.058360 0
M  V30 36 H -3.189768 1.777200 -4.993529 0
M  V30 37 H -4.375025 3.308322 -3.435775 0
M  V30 38 H -3.387859 3.848275 -1.275955 0
M  V30 39 H -0.769679 0.097186 1.823369 0
M  V30 40 H -0.840838 -1.050092 4.056026 0
M  V30 41 H 0.960124 -5.100447 4.333543 0
M  V30 42 H 0.766401 -3.391930 8.182750 0
M  V30 43 H 0.682144 -1.460543 6.471142 0
M  V30 END ATOM
M  V30 BEGIN BOND
M  V30 1 1 1 2
M  V30 2 1 2 3
M  V30 3 2 3 4
M  V30 4 1 4 5
M  V30 5 1 5 6
M  V30 6 2 6 7
M  V30 7 1 6 8
M  V30 8 1 8 9
M  V30 9 1 9 10
M  V30 10 1 9 11
M  V30 11 2 11 12
M  V30 12 1 12 13
M  V30 13 1 12 14
M  V30 14 2 14 15
M  V30 15 1 15 16
M  V30 16 2 16 17
M  V30 17 1 17 18
M  V30 18 2 5 19
M  V30 19 1 19 20
M  V30 20 2 20 21
M  V30 21 1 21 22
M  V30 22 1 22 23
M  V30 23 2 23 24
M  V30 24 1 24 25
M  V30 25 1 25 26
M  V30 26 1 21 3
M  V30 27 2 26 22
M  V30 28 1 17 11
M  V30 29 1 1 27
M  V30 30 1 1 28
M  V30 31 1 1 29
M  V30 32 1 4 30
M  V30 33 1 8 31
M  V30 34 1 9 32 CFG=3
M  V30 35 1 10 33
M  V30 36 1 10 34
M  V30 37 1 10 35
M  V30 38 1 14 36
M  V30 39 1 15 37
M  V30 40 1 16 38
M  V30 41 1 19 39
M  V30 42 1 20 40
M  V30 43 1 23 41
M  V30 44 1 25 42
M  V30 45 1 26 43
M  V30 END BOND
M  V30 END CTAB
M  END
>  <Dataset>  (549) 
ChEMBL_Kinases

>  <Ligand_Instance>  (549) 
nan

>  <PDB_ID>  (549) 
nan

>  <Standardized_SMILES>  (549) 
COc1cc(C(=O)N[C@H](C)c2c(F)cccc2F)ccc1-c1cn[nH]c1

>  <Name>  (549) 
nan

>  <Pocket>  (549) 
nan

>  <ATP_Site>  (549) 
nan

>  <Peripheral>  (549) 
nan

>  <Num_H_Atoms_ProtBoundConf>  (549) 
nan

>  <Num_Resolved_Atoms>  (549) 
nan

>  <Num_Not_Resolved_Atoms>  (549) 
nan

$$$$
CHEMBL198427
     RDKit          3D

  0  0  0  0  0  0  0  0  0  0999 V3000
M  V30 BEGIN CTAB
M  V30 COUNTS 57 61 0 0 0
M  V30 BEGIN ATOM
M  V30 1 C 3.742620 -5.372070 2.886780 0
M  V30 2 O 4.554024 -4.482435 2.114446 0
M  V30 3 C 4.063524 -3.219409 1.813623 0
M  V30 4 C 2.821082 -2.793628 2.233780 0
M  V30 5 C 2.424070 -1.520684 1.883523 0
M  V30 6 C 3.158217 -0.622985 1.145299 0
M  V30 7 C 2.587545 0.692072 0.854821 0
M  V30 8 O 1.929132 0.622005 -0.369736 0
M  V30 9 C 1.349711 1.831766 -0.725526 0
M  V30 10 C 0.306406 2.345578 0.187388 0 CFG=1
M  V30 11 C -0.173704 3.704342 -0.369353 0
M  V30 12 C -1.553385 3.850953 0.273492 0
M  V30 13 C -1.990085 2.404874 0.184046 0
M  V30 14 N -3.179668 1.777723 0.137801 0
M  V30 15 C -2.873898 0.450703 0.039594 0
M  V30 16 C -4.012701 -0.456716 -0.025324 0
M  V30 17 C -4.398127 -1.405857 0.889468 0
M  V30 18 C -5.503190 -2.203072 0.699495 0
M  V30 19 C -6.262830 -2.059169 -0.442596 0
M  V30 20 F -7.351682 -2.887606 -0.566239 0
M  V30 21 C -5.927819 -1.124407 -1.398278 0
M  V30 22 C -4.811819 -0.345540 -1.168281 0
M  V30 23 C -1.499136 0.377479 0.033810 0
M  V30 24 C -0.949816 -0.964137 -0.076156 0
M  V30 25 C -0.956013 -1.970313 0.863503 0
M  V30 26 C -0.405737 -3.205652 0.600169 0
M  V30 27 N 0.152421 -3.419756 -0.620099 0
M  V30 28 C 0.165408 -2.437532 -1.554586 0
M  V30 29 N 0.748132 -2.624674 -2.860763 0
M  V30 30 N -0.376497 -1.249200 -1.269993 0
M  V30 31 N -0.922962 1.570616 0.123095 0
M  V30 32 C 4.401255 -1.087584 0.741650 0
M  V30 33 C 4.861705 -2.360985 1.061434 0
M  V30 34 H 2.723658 -5.370552 2.447521 0
M  V30 35 H 4.186529 -6.376293 2.932496 0
M  V30 36 H 3.641763 -4.891470 3.895333 0
M  V30 37 H 2.176941 -3.443630 2.822211 0
M  V30 38 H 1.458378 -1.230166 2.233707 0
M  V30 39 H 3.471798 1.379097 0.701846 0
M  V30 40 H 2.018099 1.141402 1.665136 0
M  V30 41 H 2.107990 2.607786 -0.960973 0
M  V30 42 H 0.838541 1.618804 -1.708082 0
M  V30 43 H 0.571267 2.510214 1.226350 0
M  V30 44 H -0.214012 3.715952 -1.460112 0
M  V30 45 H 0.455084 4.511021 -0.000622 0
M  V30 46 H -2.182427 4.505715 -0.360968 0
M  V30 47 H -1.459185 4.194348 1.301636 0
M  V30 48 H -3.784167 -1.481888 1.756282 0
M  V30 49 H -5.691683 -2.904939 1.495250 0
M  V30 50 H -6.527921 -1.017386 -2.290777 0
M  V30 51 H -4.590128 0.372449 -1.945939 0
M  V30 52 H -1.413254 -1.713838 1.797477 0
M  V30 53 H -0.417092 -3.978596 1.338437 0
M  V30 54 H 0.069562 -3.279383 -3.317161 0
M  V30 55 H 1.655772 -2.113301 -3.076037 0
M  V30 56 H 5.007754 -0.391722 0.151323 0
M  V30 57 H 5.842563 -2.692077 0.726471 0
M  V30 END ATOM
M  V30 BEGIN BOND
M  V30 1 1 1 2
M  V30 2 1 2 3
M  V30 3 2 3 4
M  V30 4 1 4 5
M  V30 5 2 5 6
M  V30 6 1 6 7
M  V30 7 1 7 8
M  V30 8 1 8 9
M  V30 9 1 9 10
M  V30 10 1 10 11
M  V30 11 1 11 12
M  V30 12 1 12 13
M  V30 13 2 13 14
M  V30 14 1 14 15
M  V30 15 1 15 16
M  V30 16 2 16 17
M  V30 17 1 17 18
M  V30 18 2 18 19
M  V30 19 1 19 20
M  V30 20 1 19 21
M  V30 21 2 21 22
M  V30 22 2 15 23
M  V30 23 1 23 24
M  V30 24 2 24 25
M  V30 25 1 25 26
M  V30 26 2 26 27
M  V30 27 1 27 28
M  V30 28 1 28 29
M  V30 29 2 28 30
M  V30 30 1 23 31
M  V30 31 1 6 32
M  V30 32 2 32 33
M  V30 33 1 33 3
M  V30 34 1 31 10
M  V30 35 1 31 13
M  V30 36 1 22 16
M  V30 37 1 30 24
M  V30 38 1 1 34
M  V30 39 1 1 35
M  V30 40 1 1 36
M  V30 41 1 4 37
M  V30 42 1 5 38
M  V30 43 1 7 39
M  V30 44 1 7 40
M  V30 45 1 9 41
M  V30 46 1 9 42
M  V30 47 1 10 43 CFG=1
M  V30 48 1 11 44
M  V30 49 1 11 45
M  V30 50 1 12 46
M  V30 51 1 12 47
M  V30 52 1 17 48
M  V30 53 1 18 49
M  V30 54 1 21 50
M  V30 55 1 22 51
M  V30 56 1 25 52
M  V30 57 1 26 53
M  V30 58 1 29 54
M  V30 59 1 29 55
M  V30 60 1 32 56
M  V30 61 1 33 57
M  V30 END BOND
M  V30 END CTAB
M  END
>  <Dataset>  (550) 
ChEMBL_Kinases

>  <Ligand_Instance>  (550) 
nan

>  <PDB_ID>  (550) 
nan

>  <Standardized_SMILES>  (550) 
COc1ccc(COC[C@H]2CCc3nc(-c4ccc(F)cc4)c(-c4ccnc(N)n4)n32)cc1

>  <Name>  (550) 
nan

>  <Pocket>  (550) 
nan

>  <ATP_Site>  (550) 
nan

>  <Peripheral>  (550) 
nan

>  <Num_H_Atoms_ProtBoundConf>  (550) 
nan

>  <Num_Resolved_Atoms>  (550) 
nan

>  <Num_Not_Resolved_Atoms>  (550) 
nan

$$$$
CHEMBL535429
     RDKit          3D

  0  0  0  0  0  0  0  0  0  0999 V3000
M  V30 BEGIN CTAB
M  V30 COUNTS 44 46 0 0 0
M  V30 BEGIN ATOM
M  V30 1 C 0.952072 -3.702157 -0.408411 0
M  V30 2 O 0.357562 -3.688119 0.885258 0
M  V30 3 C -0.190434 -2.515896 1.385051 0
M  V30 4 C -0.184811 -1.338959 0.669650 0
M  V30 5 C -0.718442 -0.162277 1.135316 0
M  V30 6 N -0.725598 1.047389 0.429871 0
M  V30 7 C -0.185552 1.495793 -0.786451 0
M  V30 8 C -0.973471 1.957622 -1.848717 0
M  V30 9 C -0.502235 2.411345 -3.061629 0
M  V30 10 N 0.824373 2.405475 -3.226823 0
M  V30 11 C 1.681403 1.990242 -2.290969 0
M  V30 12 C 3.049170 2.012767 -2.521763 0
M  V30 13 C 3.938820 1.583658 -1.541922 0
M  V30 14 C 3.431797 1.139833 -0.347159 0
M  V30 15 C 4.401068 0.679465 0.702934 0
M  V30 16 F 4.818046 -0.593535 0.344316 0
M  V30 17 F 5.444834 1.567410 0.817608 0
M  V30 18 F 3.774699 0.628033 1.948346 0
M  V30 19 C 2.067515 1.129699 -0.148689 0
M  V30 20 C 1.157072 1.546849 -1.096734 0
M  V30 21 C -1.288187 -0.170370 2.387853 0
M  V30 22 C -1.292418 -1.350434 3.102080 0
M  V30 23 O -1.862260 -1.399982 4.379594 0
M  V30 24 C -2.418592 -0.170620 4.863500 0
M  V30 25 C -0.758385 -2.535818 2.640724 0
M  V30 26 O -0.790178 -3.692222 3.401175 0
M  V30 27 C -1.885113 -4.602049 3.313839 0
M  V30 28 H 1.952247 -3.263137 -0.444111 0
M  V30 29 H 1.031585 -4.732646 -0.807456 0
M  V30 30 H 0.297760 -3.157686 -1.132121 0
M  V30 31 H 0.252712 -1.287731 -0.318992 0
M  V30 32 H -1.211060 1.899791 0.779461 0
M  V30 33 H -2.066866 1.963518 -1.714999 0
M  V30 34 H -1.202483 2.745805 -3.813541 0
M  V30 35 H 3.444711 2.359026 -3.453607 0
M  V30 36 H 5.015897 1.592571 -1.701456 0
M  V30 37 H 1.743093 0.776438 0.807040 0
M  V30 38 H -1.717371 0.708155 2.802883 0
M  V30 39 H -3.225705 0.187504 4.176079 0
M  V30 40 H -1.672622 0.653067 4.870950 0
M  V30 41 H -2.831501 -0.273444 5.869055 0
M  V30 42 H -2.318960 -4.825749 4.303024 0
M  V30 43 H -1.499072 -5.524507 2.832003 0
M  V30 44 H -2.717237 -4.164937 2.695526 0
M  V30 END ATOM
M  V30 BEGIN BOND
M  V30 1 1 1 2
M  V30 2 1 2 3
M  V30 3 2 3 4
M  V30 4 1 4 5
M  V30 5 1 5 6
M  V30 6 1 6 7
M  V30 7 2 7 8
M  V30 8 1 8 9
M  V30 9 2 9 10
M  V30 10 1 10 11
M  V30 11 2 11 12
M  V30 12 1 12 13
M  V30 13 2 13 14
M  V30 14 1 14 15
M  V30 15 1 15 16
M  V30 16 1 15 17
M  V30 17 1 15 18
M  V30 18 1 14 19
M  V30 19 2 19 20
M  V30 20 2 5 21
M  V30 21 1 21 22
M  V30 22 1 22 23
M  V30 23 1 23 24
M  V30 24 2 22 25
M  V30 25 1 25 26
M  V30 26 1 26 27
M  V30 27 1 25 3
M  V30 28 1 20 7
M  V30 29 1 20 11
M  V30 30 1 1 28
M  V30 31 1 1 29
M  V30 32 1 1 30
M  V30 33 1 4 31
M  V30 34 1 6 32
M  V30 35 1 8 33
M  V30 36 1 9 34
M  V30 37 1 12 35
M  V30 38 1 13 36
M  V30 39 1 19 37
M  V30 40 1 21 38
M  V30 41 1 24 39
M  V30 42 1 24 40
M  V30 43 1 24 41
M  V30 44 1 27 42
M  V30 45 1 27 43
M  V30 46 1 27 44
M  V30 END BOND
M  V30 END CTAB
M  END
>  <Dataset>  (551) 
ChEMBL_Kinases

>  <Ligand_Instance>  (551) 
nan

>  <PDB_ID>  (551) 
nan

>  <Standardized_SMILES>  (551) 
COc1cc(Nc2ccnc3ccc(C(F)(F)F)cc23)cc(OC)c1OC

>  <Name>  (551) 
nan

>  <Pocket>  (551) 
nan

>  <ATP_Site>  (551) 
nan

>  <Peripheral>  (551) 
nan

>  <Num_H_Atoms_ProtBoundConf>  (551) 
nan

>  <Num_Resolved_Atoms>  (551) 
nan

>  <Num_Not_Resolved_Atoms>  (551) 
nan

$$$$
CHEMBL4746566
     RDKit          3D

  0  0  0  0  0  0  0  0  0  0999 V3000
M  V30 BEGIN CTAB
M  V30 COUNTS 46 48 0 0 0
M  V30 BEGIN ATOM
M  V30 1 C -0.643083 -5.223442 0.458231 0
M  V30 2 C 0.150820 -5.355709 -0.838497 0
M  V30 3 C -0.774577 -4.999601 -1.958296 0
M  V30 4 O 1.313277 -4.558516 -0.776608 0
M  V30 5 C 1.262119 -3.174331 -0.598341 0
M  V30 6 C 1.279762 -2.690573 0.691826 0
M  V30 7 C 1.232721 -1.329282 0.981619 0
M  V30 8 C 1.166100 -0.446318 -0.079033 0
M  V30 9 C 1.111492 1.014175 0.091554 0
M  V30 10 C 1.632610 1.925761 -0.793529 0
M  V30 11 N 1.532272 3.251284 -0.548324 0
M  V30 12 C 0.928526 3.750336 0.554581 0
M  V30 13 N 0.826467 5.145501 0.806430 0
M  V30 14 C 0.382971 2.886608 1.485641 0
M  V30 15 C -0.296411 3.319652 2.720499 0
M  V30 16 C -1.212115 4.352452 2.671199 0
M  V30 17 C -1.897903 4.828096 3.769851 0
M  V30 18 C -1.646631 4.228315 4.989504 0
M  V30 19 Cl -2.470647 4.765355 6.441176 0
M  V30 20 C -0.733383 3.196160 5.046612 0
M  V30 21 C -0.038541 2.713233 3.937297 0
M  V30 22 C 0.490322 1.545350 1.227168 0
M  V30 23 C 1.148759 -0.936756 -1.368922 0
M  V30 24 C 1.195047 -2.291761 -1.675041 0
M  V30 25 C 0.580004 -6.768240 -1.007009 0
M  V30 26 O -0.408596 -7.543142 -1.070783 0
M  V30 27 O 1.788462 -7.463765 -1.113361 0
M  V30 28 H 0.036102 -5.554104 1.282809 0
M  V30 29 H -1.541513 -5.862063 0.401039 0
M  V30 30 H -0.955194 -4.187274 0.638373 0
M  V30 31 H -0.943635 -3.906752 -2.056125 0
M  V30 32 H -1.780070 -5.420379 -1.729792 0
M  V30 33 H -0.439668 -5.477157 -2.895087 0
M  V30 34 H 1.332000 -3.354165 1.561970 0
M  V30 35 H 1.245961 -0.937346 1.991834 0
M  V30 36 H 2.117051 1.545720 -1.677260 0
M  V30 37 H 1.283257 5.477039 1.683156 0
M  V30 38 H 0.284114 5.596548 0.022840 0
M  V30 39 H -1.452358 4.864781 1.737362 0
M  V30 40 H -2.614440 5.637914 3.724990 0
M  V30 41 H -0.548487 2.737114 6.011404 0
M  V30 42 H 0.672921 1.904427 3.999465 0
M  V30 43 H 0.071780 0.842225 1.939593 0
M  V30 44 H 1.097936 -0.298553 -2.227648 0
M  V30 45 H 1.181369 -2.668458 -2.679669 0
M  V30 46 H 1.941331 -8.126830 -1.886794 0
M  V30 END ATOM
M  V30 BEGIN BOND
M  V30 1 1 1 2
M  V30 2 1 2 3
M  V30 3 1 2 4
M  V30 4 1 4 5
M  V30 5 2 5 6
M  V30 6 1 6 7
M  V30 7 2 7 8
M  V30 8 1 8 9
M  V30 9 2 9 10
M  V30 10 1 10 11
M  V30 11 2 11 12
M  V30 12 1 12 13
M  V30 13 1 12 14
M  V30 14 1 14 15
M  V30 15 2 15 16
M  V30 16 1 16 17
M  V30 17 2 17 18
M  V30 18 1 18 19
M  V30 19 1 18 20
M  V30 20 2 20 21
M  V30 21 2 14 22
M  V30 22 1 8 23
M  V30 23 2 23 24
M  V30 24 1 2 25
M  V30 25 2 25 26
M  V30 26 1 25 27
M  V30 27 1 24 5
M  V30 28 1 22 9
M  V30 29 1 21 15
M  V30 30 1 1 28
M  V30 31 1 1 29
M  V30 32 1 1 30
M  V30 33 1 3 31
M  V30 34 1 3 32
M  V30 35 1 3 33
M  V30 36 1 6 34
M  V30 37 1 7 35
M  V30 38 1 10 36
M  V30 39 1 13 37
M  V30 40 1 13 38
M  V30 41 1 16 39
M  V30 42 1 17 40
M  V30 43 1 20 41
M  V30 44 1 21 42
M  V30 45 1 22 43
M  V30 46 1 23 44
M  V30 47 1 24 45
M  V30 48 1 27 46
M  V30 END BOND
M  V30 END CTAB
M  END
>  <Dataset>  (552) 
ChEMBL_Kinases

>  <Ligand_Instance>  (552) 
nan

>  <PDB_ID>  (552) 
nan

>  <Standardized_SMILES>  (552) 
CC(C)(Oc1ccc(-c2cnc(N)c(-c3ccc(Cl)cc3)c2)cc1)C(=O)O

>  <Name>  (552) 
nan

>  <Pocket>  (552) 
nan

>  <ATP_Site>  (552) 
nan

>  <Peripheral>  (552) 
nan

>  <Num_H_Atoms_ProtBoundConf>  (552) 
nan

>  <Num_Resolved_Atoms>  (552) 
nan

>  <Num_Not_Resolved_Atoms>  (552) 
nan

$$$$
CHEMBL4746567
     RDKit          3D

  0  0  0  0  0  0  0  0  0  0999 V3000
M  V30 BEGIN CTAB
M  V30 COUNTS 47 50 0 0 0
M  V30 BEGIN ATOM
M  V30 1 C 1.417107 -4.077407 2.626014 0
M  V30 2 N 1.882446 -2.920884 1.872913 0
M  V30 3 C 2.105947 -3.096336 0.486829 0
M  V30 4 O 1.913519 -4.212185 -0.063747 0
M  V30 5 C 2.558559 -2.037441 -0.379829 0
M  V30 6 C 2.526364 -2.150541 -1.765926 0
M  V30 7 C 2.909673 -1.133417 -2.613034 0
M  V30 8 C 3.352792 0.066535 -2.102342 0
M  V30 9 C 3.422580 0.272824 -0.756082 0
M  V30 10 C 3.717454 1.394727 0.165418 0
M  V30 11 N 2.452898 1.740542 0.847463 0
M  V30 12 C 1.515873 2.540244 1.630934 0
M  V30 13 O 2.206119 3.568591 1.866979 0
M  V30 14 C 0.236802 1.792218 1.787345 0
M  V30 15 C -0.116473 1.190540 2.966571 0
M  V30 16 C -1.305762 0.492852 2.959796 0
M  V30 17 C -2.034922 0.447803 1.816530 0
M  V30 18 C -1.686561 1.055807 0.628767 0
M  V30 19 C -0.487123 1.766520 0.608861 0
M  V30 20 C -2.458510 1.062763 -0.635925 0
M  V30 21 O -3.617304 0.261093 -0.576378 0
M  V30 22 C -3.973898 -0.372568 0.630358 0
M  V30 23 C -5.151177 -1.072683 0.497886 0
M  V30 24 N -5.617744 -1.737197 1.585317 0
M  V30 25 C -4.949590 -1.717087 2.769792 0
M  V30 26 C -3.759904 -0.998204 2.874019 0
M  V30 27 C -3.265014 -0.323179 1.809018 0
M  V30 28 C 3.020705 -0.797057 0.076587 0
M  V30 29 H 1.233845 -3.822734 3.696322 0
M  V30 30 H 2.046137 -4.959522 2.482247 0
M  V30 31 H 0.386218 -4.313035 2.229080 0
M  V30 32 H 2.023965 -2.023780 2.360862 0
M  V30 33 H 2.167556 -3.097938 -2.200093 0
M  V30 34 H 2.898396 -1.176606 -3.688574 0
M  V30 35 H 3.691898 0.959105 -2.587368 0
M  V30 36 H 4.547319 1.198231 0.853968 0
M  V30 37 H 4.057285 2.267091 -0.459990 0
M  V30 38 H 1.948598 0.813484 0.625952 0
M  V30 39 H 0.582934 1.326150 3.778036 0
M  V30 40 H -1.579916 0.010899 3.889583 0
M  V30 41 H -0.190198 2.266367 -0.312725 0
M  V30 42 H -2.799742 2.108286 -0.839125 0
M  V30 43 H -1.848383 0.724551 -1.501881 0
M  V30 44 H -5.749397 -1.144865 -0.387719 0
M  V30 45 H -5.404763 -2.284396 3.578855 0
M  V30 46 H -3.260019 -1.006363 3.817041 0
M  V30 47 H 3.023498 -0.796070 1.172990 0
M  V30 END ATOM
M  V30 BEGIN BOND
M  V30 1 1 1 2
M  V30 2 1 2 3
M  V30 3 2 3 4
M  V30 4 1 3 5
M  V30 5 2 5 6
M  V30 6 1 6 7
M  V30 7 2 7 8
M  V30 8 1 8 9
M  V30 9 1 9 10
M  V30 10 1 10 11
M  V30 11 1 11 12
M  V30 12 2 12 13
M  V30 13 1 12 14
M  V30 14 2 14 15
M  V30 15 1 15 16
M  V30 16 2 16 17
M  V30 17 1 17 18
M  V30 18 2 18 19
M  V30 19 1 18 20
M  V30 20 1 20 21
M  V30 21 1 21 22
M  V30 22 2 22 23
M  V30 23 1 23 24
M  V30 24 2 24 25
M  V30 25 1 25 26
M  V30 26 2 26 27
M  V30 27 2 9 28
M  V30 28 1 28 5
M  V30 29 1 19 14
M  V30 30 1 27 22
M  V30 31 1 27 17
M  V30 32 1 1 29
M  V30 33 1 1 30
M  V30 34 1 1 31
M  V30 35 1 2 32
M  V30 36 1 6 33
M  V30 37 1 7 34
M  V30 38 1 8 35
M  V30 39 1 10 36
M  V30 40 1 10 37
M  V30 41 1 11 38
M  V30 42 1 15 39
M  V30 43 1 16 40
M  V30 44 1 19 41
M  V30 45 1 20 42
M  V30 46 1 20 43
M  V30 47 1 23 44
M  V30 48 1 25 45
M  V30 49 1 26 46
M  V30 50 1 28 47
M  V30 END BOND
M  V30 END CTAB
M  END
>  <Dataset>  (553) 
ChEMBL_Kinases

>  <Ligand_Instance>  (553) 
nan

>  <PDB_ID>  (553) 
nan

>  <Standardized_SMILES>  (553) 
CNC(=O)c1cccc(CNC(=O)c2ccc3c(c2)COc2cnccc2-3)c1

>  <Name>  (553) 
nan

>  <Pocket>  (553) 
nan

>  <ATP_Site>  (553) 
nan

>  <Peripheral>  (553) 
nan

>  <Num_H_Atoms_ProtBoundConf>  (553) 
nan

>  <Num_Resolved_Atoms>  (553) 
nan

>  <Num_Not_Resolved_Atoms>  (553) 
nan

$$$$
CHEMBL1983268
     RDKit          3D

  0  0  0  0  0  0  0  0  0  0999 V3000
M  V30 BEGIN CTAB
M  V30 COUNTS 75 80 0 0 0
M  V30 BEGIN ATOM
M  V30 1 C 3.284477 -0.848428 6.909951 0
M  V30 2 N 4.259841 -1.417299 6.008601 0
M  V30 3 C 3.719442 -2.485567 5.190807 0
M  V30 4 C 3.861321 -2.179743 3.712021 0
M  V30 5 N 3.363792 -0.880845 3.345273 0
M  V30 6 C 2.417503 -0.564041 2.340657 0
M  V30 7 C 1.853661 -1.461690 1.473613 0
M  V30 8 C 0.932626 -1.162533 0.500260 0
M  V30 9 C 0.555534 0.156138 0.402614 0
M  V30 10 C -0.423064 0.436398 -0.630667 0
M  V30 11 O -1.048696 1.417498 -1.086785 0
M  V30 12 N -0.958783 -0.557957 -1.486625 0
M  V30 13 C -1.930319 -0.286806 -2.513604 0
M  V30 14 N -2.540368 0.823717 -2.927263 0
M  V30 15 N -3.379163 0.620770 -3.917976 0
M  V30 16 C -3.369464 -0.682820 -4.225095 0
M  V30 17 C -4.043630 -1.455863 -5.170383 0
M  V30 18 C -3.807564 -2.823478 -5.238446 0
M  V30 19 C -2.915287 -3.439137 -4.386938 0
M  V30 20 C -2.608432 -4.879415 -4.394119 0
M  V30 21 C -3.504594 -5.659701 -3.502146 0
M  V30 22 C -4.686970 -6.184000 -3.989486 0
M  V30 23 C -5.487799 -6.899139 -3.133593 0
M  V30 24 F -6.668807 -7.448786 -3.537080 0
M  V30 25 C -5.148177 -7.108435 -1.808969 0
M  V30 26 C -3.974127 -6.595013 -1.302274 0
M  V30 27 F -3.620101 -6.789170 -0.003662 0
M  V30 28 C -3.164771 -5.868228 -2.179659 0
M  V30 29 C -2.286693 -2.614559 -3.480825 0
M  V30 30 C -2.473040 -1.235319 -3.353959 0
M  V30 31 C 1.073422 1.119806 1.233635 0
M  V30 32 N 0.729149 2.461831 1.171930 0
M  V30 33 C 0.097074 3.657879 0.737226 0
M  V30 34 C 0.482994 4.117351 -0.650483 0
M  V30 35 C 1.158129 5.461594 -0.678799 0
M  V30 36 O 1.964487 5.609403 0.442346 0
M  V30 37 C 1.213770 5.754039 1.604987 0
M  V30 38 C 0.061113 4.817023 1.707873 0
M  V30 39 C 2.009062 0.734262 2.202217 0
M  V30 40 C 3.965607 0.155924 4.153504 0
M  V30 41 C 4.896663 -0.397957 5.191064 0
M  V30 42 H 3.081183 0.224041 6.715020 0
M  V30 43 H 3.678089 -0.950806 7.937460 0
M  V30 44 H 2.311960 -1.365288 6.840330 0
M  V30 45 H 4.346570 -3.373993 5.404198 0
M  V30 46 H 2.689429 -2.728498 5.493076 0
M  V30 47 H 3.299811 -2.975647 3.190517 0
M  V30 48 H 4.942193 -2.284912 3.471315 0
M  V30 49 H 2.194979 -2.476766 1.605238 0
M  V30 50 H 0.639731 -2.031648 -0.052727 0
M  V30 51 H -0.660761 -1.586357 -1.412256 0
M  V30 52 H -3.950948 1.372289 -4.377065 0
M  V30 53 H -4.737400 -0.968732 -5.830293 0
M  V30 54 H -4.321662 -3.451222 -5.966893 0
M  V30 55 H -1.554003 -5.084022 -4.055581 0
M  V30 56 H -2.632412 -5.272730 -5.431428 0
M  V30 57 H -4.979597 -6.039078 -5.016796 0
M  V30 58 H -5.751036 -7.668477 -1.092164 0
M  V30 59 H -2.249649 -5.463116 -1.798701 0
M  V30 60 H -1.576600 -3.071652 -2.795884 0
M  V30 61 H 1.244412 3.046115 1.857402 0
M  V30 62 H -1.011199 3.386273 0.638185 0
M  V30 63 H 1.176078 3.379434 -1.117763 0
M  V30 64 H -0.378605 4.190846 -1.341599 0
M  V30 65 H 0.461225 6.318641 -0.672129 0
M  V30 66 H 1.835209 5.538736 -1.559725 0
M  V30 67 H 0.835788 6.818254 1.584142 0
M  V30 68 H 1.908265 5.701692 2.467921 0
M  V30 69 H 0.121694 4.342389 2.729084 0
M  V30 70 H -0.904860 5.349027 1.695250 0
M  V30 71 H 2.456228 1.454172 2.893151 0
M  V30 72 H 3.198064 0.776734 4.669309 0
M  V30 73 H 4.582203 0.820983 3.495761 0
M  V30 74 H 5.196481 0.423442 5.865165 0
M  V30 75 H 5.805438 -0.848946 4.739581 0
M  V30 END ATOM
M  V30 BEGIN BOND
M  V30 1 1 1 2
M  V30 2 1 2 3
M  V30 3 1 3 4
M  V30 4 1 4 5
M  V30 5 1 5 6
M  V30 6 2 6 7
M  V30 7 1 7 8
M  V30 8 2 8 9
M  V30 9 1 9 10
M  V30 10 2 10 11
M  V30 11 1 10 12
M  V30 12 1 12 13
M  V30 13 2 13 14
M  V30 14 1 14 15
M  V30 15 1 15 16
M  V30 16 2 16 17
M  V30 17 1 17 18
M  V30 18 2 18 19
M  V30 19 1 19 20
M  V30 20 1 20 21
M  V30 21 2 21 22
M  V30 22 1 22 23
M  V30 23 1 23 24
M  V30 24 2 23 25
M  V30 25 1 25 26
M  V30 26 1 26 27
M  V30 27 2 26 28
M  V30 28 1 19 29
M  V30 29 2 29 30
M  V30 30 1 9 31
M  V30 31 1 31 32
M  V30 32 1 32 33
M  V30 33 1 33 34
M  V30 34 1 34 35
M  V30 35 1 35 36
M  V30 36 1 36 37
M  V30 37 1 37 38
M  V30 38 2 31 39
M  V30 39 1 5 40
M  V30 40 1 40 41
M  V30 41 1 41 2
M  V30 42 1 39 6
M  V30 43 1 30 13
M  V30 44 1 38 33
M  V30 45 1 30 16
M  V30 46 1 28 21
M  V30 47 1 1 42
M  V30 48 1 1 43
M  V30 49 1 1 44
M  V30 50 1 3 45
M  V30 51 1 3 46
M  V30 52 1 4 47
M  V30 53 1 4 48
M  V30 54 1 7 49
M  V30 55 1 8 50
M  V30 56 1 12 51
M  V30 57 1 15 52
M  V30 58 1 17 53
M  V30 59 1 18 54
M  V30 60 1 20 55
M  V30 61 1 20 56
M  V30 62 1 22 57
M  V30 63 1 25 58
M  V30 64 1 28 59
M  V30 65 1 29 60
M  V30 66 1 32 61
M  V30 67 1 33 62
M  V30 68 1 34 63
M  V30 69 1 34 64
M  V30 70 1 35 65
M  V30 71 1 35 66
M  V30 72 1 37 67
M  V30 73 1 37 68
M  V30 74 1 38 69
M  V30 75 1 38 70
M  V30 76 1 39 71
M  V30 77 1 40 72
M  V30 78 1 40 73
M  V30 79 1 41 74
M  V30 80 1 41 75
M  V30 END BOND
M  V30 END CTAB
M  END
>  <Dataset>  (554) 
ChEMBL_Kinases

>  <Ligand_Instance>  (554) 
nan

>  <PDB_ID>  (554) 
nan

>  <Standardized_SMILES>  (554) 
CN1CCN(c2ccc(C(=O)Nc3n[nH]c4ccc(Cc5cc(F)cc(F)c5)cc34)c(NC3CCOCC3)c2)CC1

>  <Name>  (554) 
ENTRECTINIB

>  <Pocket>  (554) 
nan

>  <ATP_Site>  (554) 
nan

>  <Peripheral>  (554) 
nan

>  <Num_H_Atoms_ProtBoundConf>  (554) 
nan

>  <Num_Resolved_Atoms>  (554) 
nan

>  <Num_Not_Resolved_Atoms>  (554) 
nan

$$$$
CHEMBL198261
     RDKit          3D

  0  0  0  0  0  0  0  0  0  0999 V3000
M  V30 BEGIN CTAB
M  V30 COUNTS 66 70 0 0 0
M  V30 BEGIN ATOM
M  V30 1 C 1.322023 -1.221792 4.069914 0
M  V30 2 C 2.247601 -0.842102 2.927807 0
M  V30 3 C 2.550808 -2.070319 2.086466 0
M  V30 4 N 3.428140 -1.752417 0.993379 0
M  V30 5 C 3.128559 -0.842264 -0.050611 0
M  V30 6 N 3.999996 -0.565937 -1.035062 0
M  V30 7 C 3.692365 0.300056 -2.016524 0
M  V30 8 C 2.458480 0.914997 -2.010394 0
M  V30 9 C 1.559207 0.630223 -0.995828 0
M  V30 10 C 0.272820 1.300572 -1.008226 0
M  V30 11 C 0.276139 2.603206 -0.539138 0
M  V30 12 C 1.247316 3.551004 -0.004962 0
M  V30 13 C 1.550075 4.769537 -0.592870 0
M  V30 14 C 2.487950 5.600177 -0.008526 0
M  V30 15 C 3.155860 5.280489 1.152707 0
M  V30 16 F 4.078170 6.065455 1.754230 0
M  V30 17 C 2.884257 4.079161 1.768800 0
M  V30 18 C 1.947221 3.262739 1.173750 0
M  V30 19 N -1.017039 3.030078 -0.642133 0
M  V30 20 C -1.762372 2.034760 -1.148155 0
M  V30 21 N -0.976770 0.968824 -1.376065 0
M  V30 22 C -1.719590 -0.183003 -1.948182 0 CFG=1
M  V30 23 C -1.035347 -1.453005 -1.612596 0
M  V30 24 O -1.538026 -2.570475 -2.079340 0
M  V30 25 C -2.688764 -3.148389 -1.789814 0
M  V30 26 C -2.892357 -3.562772 -0.352207 0
M  V30 27 C -2.338951 -4.803004 0.013658 0
M  V30 28 C -2.405626 -5.400594 1.253354 0
M  V30 29 C -3.085686 -4.707714 2.231308 0
M  V30 30 O -3.211848 -5.219663 3.512243 0
M  V30 31 C -2.610021 -6.495884 3.777408 0
M  V30 32 C -3.653180 -3.484352 1.938184 0
M  V30 33 C -3.551527 -2.941767 0.680582 0
M  V30 34 C -3.049880 0.090927 -1.310497 0
M  V30 35 C -3.125653 1.628182 -1.562350 0
M  V30 36 N 1.924843 -0.245370 -0.041100 0
M  V30 37 H 1.595632 -2.206725 4.466326 0
M  V30 38 H 0.268075 -1.213792 3.717358 0
M  V30 39 H 1.483946 -0.441351 4.867982 0
M  V30 40 H 1.772204 -0.071456 2.312464 0
M  V30 41 H 3.183427 -0.446123 3.380051 0
M  V30 42 H 2.962221 -2.893907 2.694341 0
M  V30 43 H 1.561637 -2.445970 1.714470 0
M  V30 44 H 4.376977 -2.231701 0.956323 0
M  V30 45 H 4.408505 0.516031 -2.809800 0
M  V30 46 H 2.187461 1.623668 -2.799606 0
M  V30 47 H 1.038873 5.032675 -1.496505 0
M  V30 48 H 2.726689 6.560351 -0.471156 0
M  V30 49 H 3.366093 3.750124 2.686897 0
M  V30 50 H 1.704769 2.306352 1.628184 0
M  V30 51 H -1.822624 0.011158 -3.029841 0
M  V30 52 H -1.036913 -1.489116 -0.462144 0
M  V30 53 H 0.092550 -1.355159 -1.789336 0
M  V30 54 H -2.803803 -4.138542 -2.357338 0
M  V30 55 H -3.604884 -2.559296 -2.052361 0
M  V30 56 H -1.795215 -5.372529 -0.741983 0
M  V30 57 H -1.942907 -6.360567 1.429151 0
M  V30 58 H -2.829639 -6.801936 4.799510 0
M  V30 59 H -1.535414 -6.460271 3.504655 0
M  V30 60 H -3.069868 -7.173181 2.999771 0
M  V30 61 H -4.205458 -2.874914 2.648939 0
M  V30 62 H -3.987049 -2.006795 0.415603 0
M  V30 63 H -3.008041 0.015214 -0.197142 0
M  V30 64 H -3.919849 -0.377733 -1.778065 0
M  V30 65 H -3.248368 1.852623 -2.619989 0
M  V30 66 H -3.911437 2.079001 -0.908732 0
M  V30 END ATOM
M  V30 BEGIN BOND
M  V30 1 1 1 2
M  V30 2 1 2 3
M  V30 3 1 3 4
M  V30 4 1 4 5
M  V30 5 2 5 6
M  V30 6 1 6 7
M  V30 7 2 7 8
M  V30 8 1 8 9
M  V30 9 1 9 10
M  V30 10 2 10 11
M  V30 11 1 11 12
M  V30 12 2 12 13
M  V30 13 1 13 14
M  V30 14 2 14 15
M  V30 15 1 15 16
M  V30 16 1 15 17
M  V30 17 2 17 18
M  V30 18 1 11 19
M  V30 19 2 19 20
M  V30 20 1 20 21
M  V30 21 1 21 22
M  V30 22 1 22 23
M  V30 23 1 23 24
M  V30 24 1 24 25
M  V30 25 1 25 26
M  V30 26 2 26 27
M  V30 27 1 27 28
M  V30 28 2 28 29
M  V30 29 1 29 30
M  V30 30 1 30 31
M  V30 31 1 29 32
M  V30 32 2 32 33
M  V30 33 1 22 34
M  V30 34 1 34 35
M  V30 35 2 9 36
M  V30 36 1 36 5
M  V30 37 1 21 10
M  V30 38 1 33 26
M  V30 39 1 18 12
M  V30 40 1 35 20
M  V30 41 1 1 37
M  V30 42 1 1 38
M  V30 43 1 1 39
M  V30 44 1 2 40
M  V30 45 1 2 41
M  V30 46 1 3 42
M  V30 47 1 3 43
M  V30 48 1 4 44
M  V30 49 1 7 45
M  V30 50 1 8 46
M  V30 51 1 13 47
M  V30 52 1 14 48
M  V30 53 1 17 49
M  V30 54 1 18 50
M  V30 55 1 22 51 CFG=3
M  V30 56 1 23 52
M  V30 57 1 23 53
M  V30 58 1 25 54
M  V30 59 1 25 55
M  V30 60 1 27 56
M  V30 61 1 28 57
M  V30 62 1 31 58
M  V30 63 1 31 59
M  V30 64 1 31 60
M  V30 65 1 32 61
M  V30 66 1 33 62
M  V30 67 1 34 63
M  V30 68 1 34 64
M  V30 69 1 35 65
M  V30 70 1 35 66
M  V30 END BOND
M  V30 END CTAB
M  END
>  <Dataset>  (555) 
ChEMBL_Kinases

>  <Ligand_Instance>  (555) 
nan

>  <PDB_ID>  (555) 
nan

>  <Standardized_SMILES>  (555) 
CCCNc1nccc(-c2c(-c3ccc(F)cc3)nc3n2[C@@H](COCc2ccc(OC)cc2)CC3)n1

>  <Name>  (555) 
nan

>  <Pocket>  (555) 
nan

>  <ATP_Site>  (555) 
nan

>  <Peripheral>  (555) 
nan

>  <Num_H_Atoms_ProtBoundConf>  (555) 
nan

>  <Num_Resolved_Atoms>  (555) 
nan

>  <Num_Not_Resolved_Atoms>  (555) 
nan

$$$$
CHEMBL4746881
     RDKit          3D

  0  0  0  0  0  0  0  0  0  0999 V3000
M  V30 BEGIN CTAB
M  V30 COUNTS 61 66 0 0 0
M  V30 BEGIN ATOM
M  V30 1 C 2.279749 -3.268973 3.689823 0
M  V30 2 N 3.394840 -3.853942 4.372019 0
M  V30 3 C 3.716194 -3.242877 5.623444 0
M  V30 4 C 4.505780 -4.159961 3.526964 0
M  V30 5 C 5.213352 -2.946478 2.961122 0
M  V30 6 O 4.372229 -2.149686 2.185485 0
M  V30 7 C 4.721033 -0.977081 1.531561 0
M  V30 8 C 5.948493 -0.335874 1.484474 0
M  V30 9 N 6.051048 0.800399 0.779920 0
M  V30 10 C 5.027508 1.369040 0.105252 0
M  V30 11 C 3.782934 0.777806 0.115238 0
M  V30 12 C 2.717263 1.432735 -0.629248 0
M  V30 13 C 1.415978 0.995401 -0.717049 0
M  V30 14 C 0.423441 1.616745 -1.406308 0
M  V30 15 C -0.903687 1.305071 -1.578559 0
M  V30 16 C -1.716719 0.216348 -1.090837 0
M  V30 17 C -3.077534 0.114038 -1.393499 0
M  V30 18 C -3.643319 -0.984828 -0.828224 0
M  V30 19 C -4.898879 -1.540839 -0.801715 0
M  V30 20 C -5.999988 -0.903284 -1.513281 0
M  V30 21 C -7.148529 -0.820329 -0.715000 0
M  V30 22 C -8.313285 -0.258333 -1.180638 0
M  V30 23 C -8.312932 0.225765 -2.471975 0
M  V30 24 F -9.458646 0.791966 -2.962176 0
M  V30 25 C -7.202329 0.160525 -3.284056 0
M  V30 26 C -6.041080 -0.408518 -2.797303 0
M  V30 27 N -5.138344 -2.687454 -0.112002 0
M  V30 28 C -4.138341 -3.308864 0.567137 0
M  V30 29 C -2.864143 -2.777205 0.561367 0
M  V30 30 C -2.628903 -1.614480 -0.140045 0
M  V30 31 N -1.533562 -0.864181 -0.333701 0
M  V30 32 N -1.339603 2.323633 -2.365348 0
M  V30 33 N -0.373879 3.170230 -2.643880 0
M  V30 34 C 0.767143 2.784460 -2.069350 0
M  V30 35 C 2.064070 3.239693 -1.994929 0
M  V30 36 N 3.028681 2.577765 -1.286606 0
M  V30 37 C 3.668630 -0.389420 0.836188 0
M  V30 38 H 2.220557 -3.666781 2.663929 0
M  V30 39 H 1.344542 -3.482469 4.243845 0
M  V30 40 H 2.387435 -2.147368 3.706257 0
M  V30 41 H 3.025484 -2.390134 5.777736 0
M  V30 42 H 4.765566 -2.873374 5.624682 0
M  V30 43 H 3.519621 -3.994049 6.429584 0
M  V30 44 H 4.128316 -4.784359 2.689373 0
M  V30 45 H 5.269148 -4.705566 4.118251 0
M  V30 46 H 6.099095 -3.335426 2.404304 0
M  V30 47 H 5.652665 -2.397667 3.828242 0
M  V30 48 H 6.714367 -0.833582 2.035366 0
M  V30 49 H 5.240083 2.280328 -0.421170 0
M  V30 50 H 1.225322 0.103095 -0.189976 0
M  V30 51 H -3.674746 0.787329 -1.993403 0
M  V30 52 H -7.224864 -1.182981 0.321926 0
M  V30 53 H -9.221881 -0.188747 -0.560583 0
M  V30 54 H -7.172080 0.528792 -4.296298 0
M  V30 55 H -5.133559 -0.513864 -3.336213 0
M  V30 56 H -4.346593 -4.233037 1.120535 0
M  V30 57 H -2.049637 -3.247434 1.092018 0
M  V30 58 H -0.633293 -1.133063 0.085965 0
M  V30 59 H -0.499361 4.020173 -3.233090 0
M  V30 60 H 2.289432 4.156310 -2.528806 0
M  V30 61 H 2.681899 -0.835753 0.828693 0
M  V30 END ATOM
M  V30 BEGIN BOND
M  V30 1 1 1 2
M  V30 2 1 2 3
M  V30 3 1 2 4
M  V30 4 1 4 5
M  V30 5 1 5 6
M  V30 6 1 6 7
M  V30 7 2 7 8
M  V30 8 1 8 9
M  V30 9 2 9 10
M  V30 10 1 10 11
M  V30 11 1 11 12
M  V30 12 2 12 13
M  V30 13 1 13 14
M  V30 14 1 14 15
M  V30 15 1 15 16
M  V30 16 2 16 17
M  V30 17 1 17 18
M  V30 18 2 18 19
M  V30 19 1 19 20
M  V30 20 2 20 21
M  V30 21 1 21 22
M  V30 22 2 22 23
M  V30 23 1 23 24
M  V30 24 1 23 25
M  V30 25 2 25 26
M  V30 26 1 19 27
M  V30 27 2 27 28
M  V30 28 1 28 29
M  V30 29 2 29 30
M  V30 30 1 30 31
M  V30 31 2 15 32
M  V30 32 1 32 33
M  V30 33 1 33 34
M  V30 34 1 34 35
M  V30 35 2 35 36
M  V30 36 2 11 37
M  V30 37 1 37 7
M  V30 38 1 36 12
M  V30 39 2 34 14
M  V30 40 1 31 16
M  V30 41 1 30 18
M  V30 42 1 26 20
M  V30 43 1 1 38
M  V30 44 1 1 39
M  V30 45 1 1 40
M  V30 46 1 3 41
M  V30 47 1 3 42
M  V30 48 1 3 43
M  V30 49 1 4 44
M  V30 50 1 4 45
M  V30 51 1 5 46
M  V30 52 1 5 47
M  V30 53 1 8 48
M  V30 54 1 10 49
M  V30 55 1 13 50
M  V30 56 1 17 51
M  V30 57 1 21 52
M  V30 58 1 22 53
M  V30 59 1 25 54
M  V30 60 1 26 55
M  V30 61 1 28 56
M  V30 62 1 29 57
M  V30 63 1 31 58
M  V30 64 1 33 59
M  V30 65 1 35 60
M  V30 66 1 37 61
M  V30 END BOND
M  V30 END CTAB
M  END
>  <Dataset>  (556) 
ChEMBL_Kinases

>  <Ligand_Instance>  (556) 
nan

>  <PDB_ID>  (556) 
nan

>  <Standardized_SMILES>  (556) 
CN(C)CCOc1cncc(-c2cc3c(-c4cc5c(-c6ccc(F)cc6)nccc5[nH]4)n[nH]c3cn2)c1

>  <Name>  (556) 
nan

>  <Pocket>  (556) 
nan

>  <ATP_Site>  (556) 
nan

>  <Peripheral>  (556) 
nan

>  <Num_H_Atoms_ProtBoundConf>  (556) 
nan

>  <Num_Resolved_Atoms>  (556) 
nan

>  <Num_Not_Resolved_Atoms>  (556) 
nan

$$$$
CHEMBL4746993
     RDKit          3D

  0  0  0  0  0  0  0  0  0  0999 V3000
M  V30 BEGIN CTAB
M  V30 COUNTS 71 74 0 0 0
M  V30 BEGIN ATOM
M  V30 1 C 3.975048 -2.344796 1.728351 0
M  V30 2 C 4.817809 -1.489662 1.156872 0
M  V30 3 C 4.125250 -0.221827 0.818164 0
M  V30 4 O 2.938884 -0.462461 1.225741 0
M  V30 5 N 4.516938 1.002763 0.213311 0
M  V30 6 C 3.297693 1.734595 0.227904 0
M  V30 7 C 2.982952 2.507716 1.326196 0
M  V30 8 C 1.760315 3.177714 1.251363 0
M  V30 9 C 0.936402 3.051475 0.124929 0
M  V30 10 C -0.256918 3.858993 0.352071 0
M  V30 11 O -0.505275 5.087728 0.096700 0
M  V30 12 N -1.365270 3.171903 0.971847 0
M  V30 13 C -2.644584 3.707813 1.331390 0
M  V30 14 C -2.882167 3.683809 2.825419 0
M  V30 15 C -2.471595 2.362454 3.432486 0
M  V30 16 C -2.242119 1.314265 2.351720 0
M  V30 17 N -3.499207 0.830037 1.867921 0
M  V30 18 C -3.896288 -0.097815 0.863048 0
M  V30 19 N -5.135059 -0.543839 0.440406 0
M  V30 20 C -5.024695 -1.415773 -0.543750 0
M  V30 21 C -3.937428 -1.946366 -1.206519 0
M  V30 22 S -4.281733 -3.035953 -2.397186 0
M  V30 23 C -2.864627 -3.690928 -3.248626 0
M  V30 24 C -2.041940 -4.494372 -2.291563 0
M  V30 25 N -2.293592 -5.787167 -2.081747 0
M  V30 26 C -1.436059 -6.296078 -1.189902 0
M  V30 27 C -0.638590 -5.235461 -0.864733 0
M  V30 28 C 0.537282 -4.925304 0.024067 0
M  V30 29 C 0.947423 -6.163709 0.785309 0
M  V30 30 C 0.141829 -3.828253 0.965483 0
M  V30 31 C 1.701449 -4.484952 -0.847873 0
M  V30 32 O -1.009394 -4.142014 -1.535888 0
M  V30 33 S -2.625441 -0.980163 -0.207021 0
M  V30 34 C -1.291881 1.768157 1.308143 0
M  V30 35 C 1.290044 2.267801 -0.952988 0
M  V30 36 O 0.289378 2.338608 -1.904636 0
M  V30 37 C 0.318399 1.657408 -3.136554 0
M  V30 38 C 2.491326 1.607336 -0.881199 0
M  V30 39 H 4.365804 -3.312865 2.024394 0
M  V30 40 H 2.927961 -2.231722 1.960267 0
M  V30 41 H 5.844171 -1.765324 0.996215 0
M  V30 42 H 5.519561 0.931031 -0.017672 0
M  V30 43 H 3.686524 2.530967 2.128186 0
M  V30 44 H 1.584725 3.768056 2.156846 0
M  V30 45 H -3.427316 3.053494 0.896911 0
M  V30 46 H -2.844335 4.712989 0.914466 0
M  V30 47 H -3.925973 3.925945 3.087201 0
M  V30 48 H -2.238041 4.467364 3.269663 0
M  V30 49 H -3.321119 1.998480 4.041372 0
M  V30 50 H -1.557934 2.455915 4.044984 0
M  V30 51 H -1.751678 0.451461 2.887715 0
M  V30 52 H -4.363712 1.210424 2.311673 0
M  V30 53 H -6.128877 -1.579176 -0.661268 0
M  V30 54 H -2.242681 -2.847233 -3.665353 0
M  V30 55 H -3.202784 -4.357609 -4.075169 0
M  V30 56 H -1.097598 -7.157380 -0.623171 0
M  V30 57 H 1.696603 -6.710975 0.187212 0
M  V30 58 H 1.405143 -5.794005 1.739088 0
M  V30 59 H 0.044165 -6.750592 1.005765 0
M  V30 60 H -0.805759 -3.318232 0.627668 0
M  V30 61 H -0.089836 -4.221962 1.990698 0
M  V30 62 H 0.898641 -3.026015 0.979083 0
M  V30 63 H 1.364715 -3.889118 -1.716845 0
M  V30 64 H 2.424915 -3.898104 -0.273834 0
M  V30 65 H 2.232375 -5.394041 -1.231179 0
M  V30 66 H -1.469346 1.201664 0.372947 0
M  V30 67 H -0.235267 1.532596 1.619907 0
M  V30 68 H 1.322938 1.221631 -3.265071 0
M  V30 69 H -0.379479 0.777232 -3.098427 0
M  V30 70 H 0.004434 2.318297 -3.972696 0
M  V30 71 H 2.671775 1.023695 -1.770636 0
M  V30 END ATOM
M  V30 BEGIN BOND
M  V30 1 2 1 2
M  V30 2 1 2 3
M  V30 3 2 3 4
M  V30 4 1 3 5
M  V30 5 1 5 6
M  V30 6 2 6 7
M  V30 7 1 7 8
M  V30 8 2 8 9
M  V30 9 1 9 10
M  V30 10 2 10 11
M  V30 11 1 10 12
M  V30 12 1 12 13
M  V30 13 1 13 14
M  V30 14 1 14 15
M  V30 15 1 15 16
M  V30 16 1 16 17
M  V30 17 1 17 18
M  V30 18 2 18 19
M  V30 19 1 19 20
M  V30 20 2 20 21
M  V30 21 1 21 22
M  V30 22 1 22 23
M  V30 23 1 23 24
M  V30 24 2 24 25
M  V30 25 1 25 26
M  V30 26 2 26 27
M  V30 27 1 27 28
M  V30 28 1 28 29
M  V30 29 1 28 30
M  V30 30 1 28 31
M  V30 31 1 27 32
M  V30 32 1 21 33
M  V30 33 1 16 34
M  V30 34 1 9 35
M  V30 35 1 35 36
M  V30 36 1 36 37
M  V30 37 2 35 38
M  V30 38 1 38 6
M  V30 39 1 34 12
M  V30 40 1 33 18
M  V30 41 1 32 24
M  V30 42 1 1 39
M  V30 43 1 1 40
M  V30 44 1 2 41
M  V30 45 1 5 42
M  V30 46 1 7 43
M  V30 47 1 8 44
M  V30 48 1 13 45
M  V30 49 1 13 46
M  V30 50 1 14 47
M  V30 51 1 14 48
M  V30 52 1 15 49
M  V30 53 1 15 50
M  V30 54 1 16 51
M  V30 55 1 17 52
M  V30 56 1 20 53
M  V30 57 1 23 54
M  V30 58 1 23 55
M  V30 59 1 26 56
M  V30 60 1 29 57
M  V30 61 1 29 58
M  V30 62 1 29 59
M  V30 63 1 30 60
M  V30 64 1 30 61
M  V30 65 1 30 62
M  V30 66 1 31 63
M  V30 67 1 31 64
M  V30 68 1 31 65
M  V30 69 1 34 66
M  V30 70 1 34 67
M  V30 71 1 37 68
M  V30 72 1 37 69
M  V30 73 1 37 70
M  V30 74 1 38 71
M  V30 END BOND
M  V30 END CTAB
M  END
>  <Dataset>  (557) 
ChEMBL_Kinases

>  <Ligand_Instance>  (557) 
nan

>  <PDB_ID>  (557) 
nan

>  <Standardized_SMILES>  (557) 
C=CC(=O)Nc1ccc(C(=O)N2CCCC(Nc3ncc(SCc4ncc(C(C)(C)C)o4)s3)C2)c(OC)c1

>  <Name>  (557) 
nan

>  <Pocket>  (557) 
nan

>  <ATP_Site>  (557) 
nan

>  <Peripheral>  (557) 
nan

>  <Num_H_Atoms_ProtBoundConf>  (557) 
nan

>  <Num_Resolved_Atoms>  (557) 
nan

>  <Num_Not_Resolved_Atoms>  (557) 
nan

$$$$
CHEMBL1977135
     RDKit          3D

  0  0  0  0  0  0  0  0  0  0999 V3000
M  V30 BEGIN CTAB
M  V30 COUNTS 38 40 0 0 0
M  V30 BEGIN ATOM
M  V30 1 O -0.577318 -1.309275 4.887196 0
M  V30 2 C -0.820486 -0.810392 3.767495 0
M  V30 3 N -0.744356 -2.101884 2.998010 0
M  V30 4 C -0.666766 -3.364548 2.265093 0
M  V30 5 C 0.707684 -3.535224 1.721662 0
M  V30 6 C 1.783805 -4.344996 1.919412 0
M  V30 7 C 2.982736 -4.098651 1.331002 0
M  V30 8 C 3.134926 -2.984352 0.485219 0
M  V30 9 C 2.104268 -2.131363 0.231580 0
M  V30 10 C 0.905512 -2.435025 0.872135 0
M  V30 11 C -1.124197 0.234823 2.673770 0
M  V30 12 C -2.149478 0.217185 1.760232 0
M  V30 13 C -1.879116 0.973389 0.643877 0
M  V30 14 C -0.697922 1.663713 0.520464 0
M  V30 15 C -0.545221 2.124715 -0.857084 0
M  V30 16 C -1.505305 2.474800 -1.791889 0
M  V30 17 C -1.024866 2.826331 -3.049892 0
M  V30 18 N 0.227190 2.849273 -3.354006 0
M  V30 19 C 1.219184 2.543254 -2.532793 0
M  V30 20 C 0.809320 2.176175 -1.261172 0
M  V30 21 C 0.344204 1.694773 1.458180 0
M  V30 22 C 0.097928 0.918810 2.597883 0
M  V30 23 H -0.959068 -1.797744 1.981754 0
M  V30 24 H -0.860985 -4.184298 3.055271 0
M  V30 25 H -1.397149 -3.439788 1.498789 0
M  V30 26 H 1.440659 -5.125416 2.590049 0
M  V30 27 H 3.753800 -4.860846 1.569591 0
M  V30 28 H 4.150066 -2.882615 0.036028 0
M  V30 29 H 2.365606 -1.284419 -0.446346 0
M  V30 30 H 0.246011 -1.594087 0.528603 0
M  V30 31 H -2.922440 -0.400611 2.151841 0
M  V30 32 H -2.735863 0.908150 -0.022138 0
M  V30 33 H -2.474817 2.406604 -1.404775 0
M  V30 34 H -1.823269 3.078692 -3.767346 0
M  V30 35 H 2.287031 2.577992 -2.855229 0
M  V30 36 H 1.655617 1.926432 -0.639153 0
M  V30 37 H 1.227028 2.278728 1.249776 0
M  V30 38 H 0.940765 0.990561 3.269092 0
M  V30 END ATOM
M  V30 BEGIN BOND
M  V30 1 2 1 2
M  V30 2 1 2 3
M  V30 3 1 3 4
M  V30 4 1 4 5
M  V30 5 2 5 6
M  V30 6 1 6 7
M  V30 7 2 7 8
M  V30 8 1 8 9
M  V30 9 2 9 10
M  V30 10 1 2 11
M  V30 11 2 11 12
M  V30 12 1 12 13
M  V30 13 2 13 14
M  V30 14 1 14 15
M  V30 15 2 15 16
M  V30 16 1 16 17
M  V30 17 2 17 18
M  V30 18 1 18 19
M  V30 19 2 19 20
M  V30 20 1 14 21
M  V30 21 2 21 22
M  V30 22 1 10 5
M  V30 23 1 22 11
M  V30 24 1 20 15
M  V30 25 1 3 23
M  V30 26 1 4 24
M  V30 27 1 4 25
M  V30 28 1 6 26
M  V30 29 1 7 27
M  V30 30 1 8 28
M  V30 31 1 9 29
M  V30 32 1 10 30
M  V30 33 1 12 31
M  V30 34 1 13 32
M  V30 35 1 16 33
M  V30 36 1 17 34
M  V30 37 1 19 35
M  V30 38 1 20 36
M  V30 39 1 21 37
M  V30 40 1 22 38
M  V30 END BOND
M  V30 END CTAB
M  END
>  <Dataset>  (558) 
ChEMBL_Kinases

>  <Ligand_Instance>  (558) 
nan

>  <PDB_ID>  (558) 
nan

>  <Standardized_SMILES>  (558) 
O=C(NCc1ccccc1)c1ccc(-c2ccncc2)cc1

>  <Name>  (558) 
nan

>  <Pocket>  (558) 
nan

>  <ATP_Site>  (558) 
nan

>  <Peripheral>  (558) 
nan

>  <Num_H_Atoms_ProtBoundConf>  (558) 
nan

>  <Num_Resolved_Atoms>  (558) 
nan

>  <Num_Not_Resolved_Atoms>  (558) 
nan

$$$$
CHEMBL4747276
     RDKit          3D

  0  0  0  0  0  0  0  0  0  0999 V3000
M  V30 BEGIN CTAB
M  V30 COUNTS 43 45 0 0 0
M  V30 BEGIN ATOM
M  V30 1 C -3.596768 -6.022654 1.256414 0
M  V30 2 C -2.624039 -4.890996 1.159881 0
M  V30 3 O -1.560967 -4.792616 1.860024 0
M  V30 4 N -2.793687 -3.817687 0.277078 0
M  V30 5 C -1.713078 -2.886525 0.400217 0
M  V30 6 C -1.915646 -1.880133 1.340872 0
M  V30 7 C -0.952598 -0.923107 1.554643 0
M  V30 8 C 0.225116 -0.954098 0.835430 0
M  V30 9 C 1.381972 -0.068698 0.875033 0
M  V30 10 C 1.381745 1.253791 0.497671 0
M  V30 11 C 0.319412 2.107477 -0.015578 0
M  V30 12 C -0.847843 2.545624 0.562498 0
M  V30 13 C -1.711534 3.357018 -0.129063 0
M  V30 14 C -1.447570 3.769629 -1.434425 0
M  V30 15 F -2.379974 4.558483 -1.981539 0
M  V30 16 C -0.264680 3.331707 -2.034134 0
M  V30 17 C 0.610902 2.505933 -1.325570 0
M  V30 18 N 2.660236 1.690791 0.698899 0
M  V30 19 C 3.411901 0.703171 1.172165 0
M  V30 20 S 5.101721 0.893082 1.549093 0 CHG=1 VAL=3
M  V30 21 C 5.387877 1.388680 3.227151 0
M  V30 22 O 5.988243 -0.476538 1.250276 0 CHG=-1 VAL=1
M  V30 23 N 2.621063 -0.400275 1.285283 0
M  V30 24 C 3.058234 -1.679075 1.763542 0
M  V30 25 C 0.396195 -1.980453 -0.103198 0
M  V30 26 N -0.551383 -2.920238 -0.311743 0
M  V30 27 H -3.761443 -6.501057 0.270804 0
M  V30 28 H -4.539643 -5.611478 1.709769 0
M  V30 29 H -3.240314 -6.794633 1.967772 0
M  V30 30 H -3.659562 -3.833478 -0.338765 0
M  V30 31 H -2.780107 -1.754918 1.951263 0
M  V30 32 H -0.986916 -0.110475 2.241424 0
M  V30 33 H -0.962669 2.178594 1.566590 0
M  V30 34 H -2.589779 3.612561 0.475561 0
M  V30 35 H -0.151362 3.696158 -3.025824 0
M  V30 36 H 1.461272 2.278307 -1.955610 0
M  V30 37 H 6.285526 2.028818 3.344633 0
M  V30 38 H 4.476502 1.835208 3.643298 0
M  V30 39 H 5.596299 0.483980 3.871779 0
M  V30 40 H 4.140113 -1.829661 1.713162 0
M  V30 41 H 2.667486 -1.783912 2.817382 0
M  V30 42 H 2.601336 -2.497105 1.172140 0
M  V30 43 H 1.233379 -2.188583 -0.767508 0
M  V30 END ATOM
M  V30 BEGIN BOND
M  V30 1 1 1 2
M  V30 2 2 2 3
M  V30 3 1 2 4
M  V30 4 1 4 5
M  V30 5 2 5 6
M  V30 6 1 6 7
M  V30 7 2 7 8
M  V30 8 1 8 9
M  V30 9 2 9 10
M  V30 10 1 10 11
M  V30 11 2 11 12
M  V30 12 1 12 13
M  V30 13 2 13 14
M  V30 14 1 14 15
M  V30 15 1 14 16
M  V30 16 2 16 17
M  V30 17 1 10 18
M  V30 18 2 18 19
M  V30 19 1 19 20
M  V30 20 1 20 21
M  V30 21 1 20 22
M  V30 22 1 19 23
M  V30 23 1 23 24
M  V30 24 1 8 25
M  V30 25 2 25 26
M  V30 26 1 26 5
M  V30 27 1 23 9
M  V30 28 1 17 11
M  V30 29 1 1 27
M  V30 30 1 1 28
M  V30 31 1 1 29
M  V30 32 1 4 30
M  V30 33 1 6 31
M  V30 34 1 7 32
M  V30 35 1 12 33
M  V30 36 1 13 34
M  V30 37 1 16 35
M  V30 38 1 17 36
M  V30 39 1 21 37
M  V30 40 1 21 38
M  V30 41 1 21 39
M  V30 42 1 24 40
M  V30 43 1 24 41
M  V30 44 1 24 42
M  V30 45 1 25 43
M  V30 END BOND
M  V30 END CTAB
M  END
>  <Dataset>  (559) 
ChEMBL_Kinases

>  <Ligand_Instance>  (559) 
nan

>  <PDB_ID>  (559) 
nan

>  <Standardized_SMILES>  (559) 
CC(=O)Nc1ccc(-c2c(-c3ccc(F)cc3)nc([S+](C)[O-])n2C)cn1

>  <Name>  (559) 
nan

>  <Pocket>  (559) 
nan

>  <ATP_Site>  (559) 
nan

>  <Peripheral>  (559) 
nan

>  <Num_H_Atoms_ProtBoundConf>  (559) 
nan

>  <Num_Resolved_Atoms>  (559) 
nan

>  <Num_Not_Resolved_Atoms>  (559) 
nan

$$$$
CHEMBL4747378
     RDKit          3D

  0  0  0  0  0  0  0  0  0  0999 V3000
M  V30 BEGIN CTAB
M  V30 COUNTS 56 59 0 0 0
M  V30 BEGIN ATOM
M  V30 1 C 3.546138 -3.173994 2.373459 0
M  V30 2 O 4.588275 -3.240451 1.427633 0
M  V30 3 C 4.984307 -2.064773 0.797046 0
M  V30 4 C 6.015156 -2.129530 -0.138605 0
M  V30 5 N 6.479675 -1.061578 -0.808231 0
M  V30 6 C 5.957867 0.173493 -0.606472 0
M  V30 7 C 4.934432 0.289265 0.310744 0
M  V30 8 C 4.302192 1.555680 0.604801 0
M  V30 9 C 3.768528 2.604299 0.863222 0
M  V30 10 C 3.116669 3.853659 1.191015 0
M  V30 11 C 3.768285 5.053055 1.495253 0
M  V30 12 N 2.823103 6.004960 1.748123 0
M  V30 13 N 1.618954 5.436723 1.611055 0
M  V30 14 C 1.772277 4.145278 1.276763 0
M  V30 15 C 0.752151 3.133001 1.024751 0
M  V30 16 O 1.109415 1.965110 0.725847 0
M  V30 17 N -0.654704 3.329949 1.082279 0
M  V30 18 C -1.297322 2.091362 0.770589 0
M  V30 19 C -1.593551 1.204433 1.785029 0
M  V30 20 C -2.212937 0.006943 1.497189 0
M  V30 21 C -2.540703 -0.313581 0.197793 0
M  V30 22 O -3.151746 -1.420750 -0.360459 0
M  V30 23 C -3.609202 -2.552891 0.322500 0
M  V30 24 C -5.085083 -2.639618 0.130910 0
M  V30 25 C -5.533115 -3.518848 -0.997104 0
M  V30 26 N -4.850458 -4.771925 -1.101930 0
M  V30 27 C -4.442179 -5.037090 -2.457955 0
M  V30 28 C -3.808808 -4.955452 -0.125733 0
M  V30 29 C -2.867739 -3.794996 -0.113804 0
M  V30 30 N -2.233094 0.586308 -0.777364 0
M  V30 31 C -1.628977 1.762395 -0.528100 0
M  V30 32 C 4.454728 -0.806951 1.000858 0
M  V30 33 H 2.537341 -3.107742 1.916661 0
M  V30 34 H 3.574421 -4.066294 3.051687 0
M  V30 35 H 3.635315 -2.298776 3.049039 0
M  V30 36 H 6.493034 -3.092763 -0.361941 0
M  V30 37 H 6.263901 1.086062 -1.094730 0
M  V30 38 H 4.852711 5.170972 1.517063 0
M  V30 39 H 3.115676 6.975413 1.996284 0
M  V30 40 H -0.980182 4.301224 1.331113 0
M  V30 41 H -1.367365 1.385767 2.828928 0
M  V30 42 H -2.500851 -0.773508 2.186392 0
M  V30 43 H -3.405940 -2.407982 1.408365 0
M  V30 44 H -5.535333 -3.062248 1.057544 0
M  V30 45 H -5.554186 -1.640351 -0.023823 0
M  V30 46 H -6.633144 -3.727552 -0.896385 0
M  V30 47 H -5.377185 -2.963548 -1.955749 0
M  V30 48 H -5.063650 -4.372603 -3.125616 0
M  V30 49 H -3.372268 -4.930471 -2.651566 0
M  V30 50 H -4.735682 -6.078580 -2.771193 0
M  V30 51 H -3.305217 -5.914808 -0.332780 0
M  V30 52 H -4.308741 -5.059386 0.857987 0
M  V30 53 H -2.054357 -3.994007 0.603902 0
M  V30 54 H -2.413478 -3.683581 -1.115504 0
M  V30 55 H -1.381296 2.481695 -1.296285 0
M  V30 56 H 3.657445 -0.746280 1.722348 0
M  V30 END ATOM
M  V30 BEGIN BOND
M  V30 1 1 1 2
M  V30 2 1 2 3
M  V30 3 2 3 4
M  V30 4 1 4 5
M  V30 5 2 5 6
M  V30 6 1 6 7
M  V30 7 1 7 8
M  V30 8 3 8 9
M  V30 9 1 9 10
M  V30 10 2 10 11
M  V30 11 1 11 12
M  V30 12 1 12 13
M  V30 13 2 13 14
M  V30 14 1 14 15
M  V30 15 2 15 16
M  V30 16 1 15 17
M  V30 17 1 17 18
M  V30 18 2 18 19
M  V30 19 1 19 20
M  V30 20 2 20 21
M  V30 21 1 21 22
M  V30 22 1 22 23
M  V30 23 1 23 24
M  V30 24 1 24 25
M  V30 25 1 25 26
M  V30 26 1 26 27
M  V30 27 1 26 28
M  V30 28 1 28 29
M  V30 29 1 21 30
M  V30 30 2 30 31
M  V30 31 2 7 32
M  V30 32 1 32 3
M  V30 33 1 14 10
M  V30 34 1 31 18
M  V30 35 1 29 23
M  V30 36 1 1 33
M  V30 37 1 1 34
M  V30 38 1 1 35
M  V30 39 1 4 36
M  V30 40 1 6 37
M  V30 41 1 11 38
M  V30 42 1 12 39
M  V30 43 1 17 40
M  V30 44 1 19 41
M  V30 45 1 20 42
M  V30 46 1 23 43
M  V30 47 1 24 44
M  V30 48 1 24 45
M  V30 49 1 25 46
M  V30 50 1 25 47
M  V30 51 1 27 48
M  V30 52 1 27 49
M  V30 53 1 27 50
M  V30 54 1 28 51
M  V30 55 1 28 52
M  V30 56 1 29 53
M  V30 57 1 29 54
M  V30 58 1 31 55
M  V30 59 1 32 56
M  V30 END BOND
M  V30 END CTAB
M  END
>  <Dataset>  (560) 
ChEMBL_Kinases

>  <Ligand_Instance>  (560) 
nan

>  <PDB_ID>  (560) 
nan

>  <Standardized_SMILES>  (560) 
COc1cncc(C#Cc2c[nH]nc2C(=O)Nc2ccc(OC3CCN(C)CC3)nc2)c1

>  <Name>  (560) 
nan

>  <Pocket>  (560) 
nan

>  <ATP_Site>  (560) 
nan

>  <Peripheral>  (560) 
nan

>  <Num_H_Atoms_ProtBoundConf>  (560) 
nan

>  <Num_Resolved_Atoms>  (560) 
nan

>  <Num_Not_Resolved_Atoms>  (560) 
nan

$$$$
CHEMBL4746531
     RDKit          3D

  0  0  0  0  0  0  0  0  0  0999 V3000
M  V30 BEGIN CTAB
M  V30 COUNTS 45 48 0 0 0
M  V30 BEGIN ATOM
M  V30 1 N 4.290957 -0.184645 2.668385 0
M  V30 2 C 3.515942 -1.377201 2.302450 0 CFG=2
M  V30 3 C 4.053543 -2.024684 1.068907 0
M  V30 4 C 4.031436 -1.128267 -0.113797 0
M  V30 5 C 3.009148 -0.985470 -1.026706 0
M  V30 6 C 3.197245 -0.086927 -2.062706 0
M  V30 7 C 4.344731 0.662724 -2.222593 0
M  V30 8 C 5.375612 0.525527 -1.310867 0
M  V30 9 C 5.192915 -0.370683 -0.274062 0
M  V30 10 C 2.100497 -0.996181 2.082566 0
M  V30 11 O 1.485869 -2.072221 1.769792 0
M  V30 12 N 1.396555 0.257675 2.159505 0
M  V30 13 C 0.000180 0.083381 1.846324 0
M  V30 14 C -0.800919 -0.200675 2.951036 0
M  V30 15 C -2.178004 -0.391472 2.774121 0
M  V30 16 C -2.659834 -0.282855 1.488450 0
M  V30 17 C -1.868372 -0.001881 0.394659 0
M  V30 18 C -0.498818 0.189456 0.559560 0
M  V30 19 O -2.377244 0.099727 -0.871727 0
M  V30 20 C -3.737823 -0.065696 -1.207222 0
M  V30 21 C -4.578746 -0.364997 -0.039723 0
M  V30 22 C -5.930760 -0.540467 -0.295976 0
M  V30 23 N -6.757212 -0.820157 0.750459 0
M  V30 24 C -6.262083 -0.923757 2.015518 0
M  V30 25 C -4.933038 -0.749701 2.256492 0
M  V30 26 C -4.080609 -0.469335 1.233769 0
M  V30 27 H 5.205394 -0.462900 3.088470 0
M  V30 28 H 3.767388 0.358191 3.387654 0
M  V30 29 H 3.574835 -2.137312 3.115287 0
M  V30 30 H 5.071097 -2.430967 1.244843 0
M  V30 31 H 3.402709 -2.884326 0.836357 0
M  V30 32 H 2.149383 -1.585151 -0.857456 0
M  V30 33 H 2.399272 0.025959 -2.777144 0
M  V30 34 H 4.453144 1.343134 -3.031285 0
M  V30 35 H 6.294150 1.100599 -1.406327 0
M  V30 36 H 6.043530 -0.438369 0.418995 0
M  V30 37 H 2.084147 0.995798 2.427871 0
M  V30 38 H -0.390659 -0.279669 3.951606 0
M  V30 39 H -2.748884 -0.605703 3.643764 0
M  V30 40 H 0.171089 0.408605 -0.235924 0
M  V30 41 H -3.783961 -0.908399 -1.935584 0
M  V30 42 H -4.116909 0.819004 -1.786678 0
M  V30 43 H -6.371597 -0.467779 -1.285855 0
M  V30 44 H -7.030149 -1.148568 2.743010 0
M  V30 45 H -4.676314 -0.856366 3.281928 0
M  V30 END ATOM
M  V30 BEGIN BOND
M  V30 1 1 1 2
M  V30 2 1 2 3
M  V30 3 1 3 4
M  V30 4 2 4 5
M  V30 5 1 5 6
M  V30 6 2 6 7
M  V30 7 1 7 8
M  V30 8 2 8 9
M  V30 9 1 2 10
M  V30 10 2 10 11
M  V30 11 1 10 12
M  V30 12 1 12 13
M  V30 13 2 13 14
M  V30 14 1 14 15
M  V30 15 2 15 16
M  V30 16 1 16 17
M  V30 17 2 17 18
M  V30 18 1 17 19
M  V30 19 1 19 20
M  V30 20 1 20 21
M  V30 21 2 21 22
M  V30 22 1 22 23
M  V30 23 2 23 24
M  V30 24 1 24 25
M  V30 25 2 25 26
M  V30 26 1 9 4
M  V30 27 1 18 13
M  V30 28 1 26 21
M  V30 29 1 26 16
M  V30 30 1 1 27
M  V30 31 1 1 28
M  V30 32 1 2 29 CFG=1
M  V30 33 1 3 30
M  V30 34 1 3 31
M  V30 35 1 5 32
M  V30 36 1 6 33
M  V30 37 1 7 34
M  V30 38 1 8 35
M  V30 39 1 9 36
M  V30 40 1 12 37
M  V30 41 1 14 38
M  V30 42 1 15 39
M  V30 43 1 18 40
M  V30 44 1 20 41
M  V30 45 1 20 42
M  V30 46 1 22 43
M  V30 47 1 24 44
M  V30 48 1 25 45
M  V30 END BOND
M  V30 END CTAB
M  END
>  <Dataset>  (561) 
ChEMBL_Kinases

>  <Ligand_Instance>  (561) 
nan

>  <PDB_ID>  (561) 
nan

>  <Standardized_SMILES>  (561) 
N[C@H](Cc1ccccc1)C(=O)Nc1ccc2c(c1)OCc1cnccc1-2

>  <Name>  (561) 
nan

>  <Pocket>  (561) 
nan

>  <ATP_Site>  (561) 
nan

>  <Peripheral>  (561) 
nan

>  <Num_H_Atoms_ProtBoundConf>  (561) 
nan

>  <Num_Resolved_Atoms>  (561) 
nan

>  <Num_Not_Resolved_Atoms>  (561) 
nan

$$$$
CHEMBL2004290
     RDKit          3D

  0  0  0  0  0  0  0  0  0  0999 V3000
M  V30 BEGIN CTAB
M  V30 COUNTS 66 70 0 0 0
M  V30 BEGIN ATOM
M  V30 1 C 10.050704 3.391680 3.459878 0
M  V30 2 O 9.467559 3.235026 2.202267 0
M  V30 3 C 8.202667 3.705488 1.880269 0
M  V30 4 C 7.782558 3.465549 0.594656 0
M  V30 5 C 6.527024 3.902321 0.185425 0
M  V30 6 C 5.699656 4.581857 1.081059 0
M  V30 7 N 4.455403 4.955503 0.497347 0
M  V30 8 C 3.350872 4.054821 0.567373 0
M  V30 9 O 3.647610 2.981693 1.176017 0
M  V30 10 N 2.059270 4.308005 0.025880 0
M  V30 11 C 1.123916 3.226630 0.235185 0
M  V30 12 C 0.318154 3.157996 1.352912 0
M  V30 13 C -0.534914 2.071885 1.434286 0
M  V30 14 C -0.600209 1.077161 0.449029 0
M  V30 15 C -1.512413 -0.043005 0.617715 0
M  V30 16 C -1.309622 -0.739902 1.849363 0
M  V30 17 S -2.569107 -2.135137 1.776183 0
M  V30 18 C -3.177580 -1.684667 0.254112 0
M  V30 19 C -4.193560 -2.211622 -0.579335 0
M  V30 20 C -4.856589 -3.391561 -0.034675 0
M  V30 21 C -5.308975 -3.592862 1.249668 0
M  V30 22 N -5.852671 -4.829723 1.288883 0
M  V30 23 N -5.774719 -5.425153 0.114967 0
M  V30 24 C -6.271469 -6.772026 -0.178031 0
M  V30 25 C -5.178121 -7.780300 0.080556 0
M  V30 26 C -4.014933 -7.429280 -0.835435 0
M  V30 27 C -5.682949 -9.153222 -0.305155 0
M  V30 28 O -4.775338 -7.839032 1.408113 0
M  V30 29 C -5.163890 -4.557670 -0.718303 0
M  V30 30 C -4.546559 -1.680957 -1.799267 0
M  V30 31 N -3.816879 -0.602887 -2.112001 0
M  V30 32 C -2.853346 -0.075756 -1.357792 0
M  V30 33 N -2.343141 1.073854 -2.058496 0
M  V30 34 C -2.493500 -0.600022 -0.138170 0
M  V30 35 C 0.241205 1.222702 -0.636679 0
M  V30 36 C 1.115466 2.284344 -0.776472 0
M  V30 37 C 6.144924 4.810391 2.366903 0
M  V30 38 C 7.394263 4.366701 2.747147 0
M  V30 39 H 9.345730 3.455643 4.298561 0
M  V30 40 H 10.683232 4.309691 3.431761 0
M  V30 41 H 10.770511 2.556087 3.638550 0
M  V30 42 H 8.421784 2.932306 -0.122682 0
M  V30 43 H 6.255531 3.676984 -0.853854 0
M  V30 44 H 4.295907 5.881904 0.003400 0
M  V30 45 H 1.920923 5.216889 -0.451738 0
M  V30 46 H 0.369317 3.920488 2.106299 0
M  V30 47 H -1.183063 1.974988 2.288549 0
M  V30 48 H -0.607223 -0.574092 2.701142 0
M  V30 49 H -5.203193 -2.839737 2.016793 0
M  V30 50 H -7.121752 -7.022793 0.486362 0
M  V30 51 H -6.521572 -6.861362 -1.254100 0
M  V30 52 H -3.219890 -8.209412 -0.677235 0
M  V30 53 H -4.323603 -7.526121 -1.894955 0
M  V30 54 H -3.582184 -6.448995 -0.634689 0
M  V30 55 H -4.818816 -9.867060 -0.433742 0
M  V30 56 H -6.132526 -9.056335 -1.332059 0
M  V30 57 H -6.381054 -9.528382 0.445036 0
M  V30 58 H -4.721006 -6.926445 1.803530 0
M  V30 59 H -4.951486 -4.748824 -1.752497 0
M  V30 60 H -5.325246 -2.168983 -2.329329 0
M  V30 61 H -2.627795 2.027394 -1.739326 0
M  V30 62 H -1.713345 1.173492 -2.864164 0
M  V30 63 H 0.253494 0.486884 -1.428705 0
M  V30 64 H 1.763870 2.360438 -1.653350 0
M  V30 65 H 5.442495 5.342692 2.993955 0
M  V30 66 H 7.716978 4.559532 3.760342 0
M  V30 END ATOM
M  V30 BEGIN BOND
M  V30 1 1 1 2
M  V30 2 1 2 3
M  V30 3 2 3 4
M  V30 4 1 4 5
M  V30 5 2 5 6
M  V30 6 1 6 7
M  V30 7 1 7 8
M  V30 8 2 8 9
M  V30 9 1 8 10
M  V30 10 1 10 11
M  V30 11 2 11 12
M  V30 12 1 12 13
M  V30 13 2 13 14
M  V30 14 1 14 15
M  V30 15 2 15 16
M  V30 16 1 16 17
M  V30 17 1 17 18
M  V30 18 2 18 19
M  V30 19 1 19 20
M  V30 20 1 20 21
M  V30 21 2 21 22
M  V30 22 1 22 23
M  V30 23 1 23 24
M  V30 24 1 24 25
M  V30 25 1 25 26
M  V30 26 1 25 27
M  V30 27 1 25 28
M  V30 28 1 23 29
M  V30 29 1 19 30
M  V30 30 2 30 31
M  V30 31 1 31 32
M  V30 32 1 32 33
M  V30 33 2 32 34
M  V30 34 1 14 35
M  V30 35 2 35 36
M  V30 36 1 6 37
M  V30 37 2 37 38
M  V30 38 1 38 3
M  V30 39 1 36 11
M  V30 40 1 34 15
M  V30 41 1 34 18
M  V30 42 2 29 20
M  V30 43 1 1 39
M  V30 44 1 1 40
M  V30 45 1 1 41
M  V30 46 1 4 42
M  V30 47 1 5 43
M  V30 48 1 7 44
M  V30 49 1 10 45
M  V30 50 1 12 46
M  V30 51 1 13 47
M  V30 52 1 16 48
M  V30 53 1 21 49
M  V30 54 1 24 50
M  V30 55 1 24 51
M  V30 56 1 26 52
M  V30 57 1 26 53
M  V30 58 1 26 54
M  V30 59 1 27 55
M  V30 60 1 27 56
M  V30 61 1 27 57
M  V30 62 1 28 58
M  V30 63 1 29 59
M  V30 64 1 30 60
M  V30 65 1 33 61
M  V30 66 1 33 62
M  V30 67 1 35 63
M  V30 68 1 36 64
M  V30 69 1 37 65
M  V30 70 1 38 66
M  V30 END BOND
M  V30 END CTAB
M  END
>  <Dataset>  (562) 
ChEMBL_Kinases

>  <Ligand_Instance>  (562) 
nan

>  <PDB_ID>  (562) 
nan

>  <Standardized_SMILES>  (562) 
COc1ccc(NC(=O)Nc2ccc(-c3csc4c(-c5cnn(CC(C)(C)O)c5)cnc(N)c34)cc2)cc1

>  <Name>  (562) 
nan

>  <Pocket>  (562) 
nan

>  <ATP_Site>  (562) 
nan

>  <Peripheral>  (562) 
nan

>  <Num_H_Atoms_ProtBoundConf>  (562) 
nan

>  <Num_Resolved_Atoms>  (562) 
nan

>  <Num_Not_Resolved_Atoms>  (562) 
nan

$$$$
CHEMBL200381
     RDKit          3D

  0  0  0  0  0  0  0  0  0  0999 V3000
M  V30 BEGIN CTAB
M  V30 COUNTS 43 46 0 0 0
M  V30 BEGIN ATOM
M  V30 1 N 3.312127 -3.276740 3.997167 0
M  V30 2 C 3.180601 -2.725027 2.989603 0
M  V30 3 C 3.032294 -2.025727 1.743515 0
M  V30 4 C 4.113073 -1.896593 0.868134 0
M  V30 5 N 3.924592 -1.227309 -0.298441 0
M  V30 6 C 2.726543 -0.700246 -0.605593 0
M  V30 7 C 2.513792 -0.020316 -1.782946 0
M  V30 8 N 1.356509 0.535746 -2.173462 0
M  V30 9 C 0.279272 0.442358 -1.367695 0
M  V30 10 N -1.075492 0.909388 -1.499781 0
M  V30 11 C -1.423353 2.292741 -1.250037 0
M  V30 12 C -1.020383 2.762357 0.101125 0
M  V30 13 C 0.290186 3.257238 0.059669 0
M  V30 14 C 0.903743 3.761924 1.187633 0
M  V30 15 C 0.175770 3.765345 2.381250 0
M  V30 16 N -1.057853 3.288972 2.378092 0
M  V30 17 C -1.695825 2.787404 1.301842 0
M  V30 18 C 0.410496 -0.229996 -0.157225 0
M  V30 19 C 1.619936 -0.800607 0.230587 0
M  V30 20 C 1.811156 -1.484704 1.422653 0
M  V30 21 N 0.671918 -1.603809 2.303094 0
M  V30 22 C -0.130785 -2.777316 2.118858 0
M  V30 23 C 0.208351 -3.734964 1.182810 0
M  V30 24 C -0.516117 -4.897691 0.943484 0
M  V30 25 C -1.647219 -5.111663 1.688022 0
M  V30 26 F -2.421166 -6.226336 1.522142 0
M  V30 27 C -2.032307 -4.173420 2.646747 0
M  V30 28 Cl -3.480693 -4.490339 3.571323 0
M  V30 29 C -1.268215 -3.028286 2.841964 0
M  V30 30 H 5.044369 -2.347842 1.188340 0
M  V30 31 H 3.323993 0.104226 -2.496561 0
M  V30 32 H -1.656161 0.113957 -1.779055 0
M  V30 33 H -1.078499 2.977808 -2.056985 0
M  V30 34 H -2.557943 2.287977 -1.212762 0
M  V30 35 H 0.949957 3.303893 -0.808120 0
M  V30 36 H 1.929178 4.160657 1.198730 0
M  V30 37 H 0.617545 4.156858 3.309682 0
M  V30 38 H -2.677456 2.387139 1.210213 0
M  V30 39 H -0.347737 -0.392699 0.596884 0
M  V30 40 H 0.376455 -0.937078 3.048922 0
M  V30 41 H 1.095077 -3.628016 0.556330 0
M  V30 42 H -0.201389 -5.615158 0.191518 0
M  V30 43 H -1.603377 -2.323485 3.597124 0
M  V30 END ATOM
M  V30 BEGIN BOND
M  V30 1 3 1 2
M  V30 2 1 2 3
M  V30 3 2 3 4
M  V30 4 1 4 5
M  V30 5 2 5 6
M  V30 6 1 6 7
M  V30 7 2 7 8
M  V30 8 1 8 9
M  V30 9 1 9 10
M  V30 10 1 10 11
M  V30 11 1 11 12
M  V30 12 2 12 13
M  V30 13 1 13 14
M  V30 14 2 14 15
M  V30 15 1 15 16
M  V30 16 2 16 17
M  V30 17 2 9 18
M  V30 18 1 18 19
M  V30 19 2 19 20
M  V30 20 1 20 21
M  V30 21 1 21 22
M  V30 22 2 22 23
M  V30 23 1 23 24
M  V30 24 2 24 25
M  V30 25 1 25 26
M  V30 26 1 25 27
M  V30 27 1 27 28
M  V30 28 2 27 29
M  V30 29 1 20 3
M  V30 30 1 29 22
M  V30 31 1 19 6
M  V30 32 1 17 12
M  V30 33 1 4 30
M  V30 34 1 7 31
M  V30 35 1 10 32
M  V30 36 1 11 33
M  V30 37 1 11 34
M  V30 38 1 13 35
M  V30 39 1 14 36
M  V30 40 1 15 37
M  V30 41 1 17 38
M  V30 42 1 18 39
M  V30 43 1 21 40
M  V30 44 1 23 41
M  V30 45 1 24 42
M  V30 46 1 29 43
M  V30 END BOND
M  V30 END CTAB
M  END
>  <Dataset>  (563) 
ChEMBL_Kinases

>  <Ligand_Instance>  (563) 
nan

>  <PDB_ID>  (563) 
nan

>  <Standardized_SMILES>  (563) 
N#Cc1cnc2cnc(NCc3cccnc3)cc2c1Nc1ccc(F)c(Cl)c1

>  <Name>  (563) 
nan

>  <Pocket>  (563) 
nan

>  <ATP_Site>  (563) 
nan

>  <Peripheral>  (563) 
nan

>  <Num_H_Atoms_ProtBoundConf>  (563) 
nan

>  <Num_Resolved_Atoms>  (563) 
nan

>  <Num_Not_Resolved_Atoms>  (563) 
nan

$$$$
CHEMBL200229
     RDKit          3D

  0  0  0  0  0  0  0  0  0  0999 V3000
M  V30 BEGIN CTAB
M  V30 COUNTS 60 64 0 0 0
M  V30 BEGIN ATOM
M  V30 1 C 4.407036 -1.836218 1.133858 0
M  V30 2 N 4.693655 -1.652873 -0.282820 0
M  V30 3 C 4.227319 -2.882856 -0.939630 0
M  V30 4 C 3.907515 -0.567607 -0.838822 0
M  V30 5 C 4.163415 0.747636 -0.122084 0
M  V30 6 C 2.997521 1.649366 -0.502704 0
M  V30 7 N 2.705145 1.490455 -1.932313 0
M  V30 8 C 1.468686 1.684523 -2.654581 0
M  V30 9 O 1.298251 1.541511 -3.902063 0
M  V30 10 C 0.443049 2.072299 -1.693445 0
M  V30 11 C 0.028376 0.970213 -0.940468 0
M  V30 12 C -0.926164 1.100659 0.051619 0
M  V30 13 C -1.498877 2.324611 0.328808 0
M  V30 14 N -2.450691 2.496966 1.369310 0
M  V30 15 C -2.884508 1.423785 2.179528 0
M  V30 16 N -3.012689 1.825385 3.492593 0
M  V30 17 C -3.412153 1.001319 4.462873 0
M  V30 18 C -3.727111 -0.316459 4.212276 0
M  V30 19 C -3.598080 -0.708434 2.895377 0
M  V30 20 C -3.922148 -2.096075 2.547836 0
M  V30 21 C -4.004416 -2.770556 1.380034 0
M  V30 22 C -4.376688 -4.110014 1.435732 0
M  V30 23 C -4.523747 -4.962842 0.348207 0
M  V30 24 C -4.904433 -6.246982 0.580646 0
M  V30 25 C -5.167655 -6.800684 1.843170 0
M  V30 26 C -5.025223 -5.965838 2.932261 0
M  V30 27 C -4.634527 -4.654757 2.672709 0
M  V30 28 S -4.348501 -3.244865 3.816191 0
M  V30 29 N -3.197418 0.140829 1.964271 0
M  V30 30 C -1.074438 3.401253 -0.431107 0
M  V30 31 C -0.125641 3.297755 -1.424322 0
M  V30 32 C 3.889064 1.042819 -2.686608 0
M  V30 33 C 4.286180 -0.365960 -2.269799 0
M  V30 34 H 3.335219 -1.711120 1.382583 0
M  V30 35 H 4.651190 -2.906983 1.355225 0
M  V30 36 H 5.051298 -1.234321 1.793284 0
M  V30 37 H 4.369567 -2.723409 -2.025406 0
M  V30 38 H 3.142275 -2.952484 -0.720863 0
M  V30 39 H 4.798632 -3.756480 -0.568507 0
M  V30 40 H 2.811811 -0.747045 -0.795732 0
M  V30 41 H 5.128317 1.176443 -0.456141 0
M  V30 42 H 4.208068 0.595021 0.966985 0
M  V30 43 H 3.310307 2.683791 -0.324592 0
M  V30 44 H 2.160739 1.338175 0.147693 0
M  V30 45 H 0.402370 -0.048297 -1.060131 0
M  V30 46 H -1.250232 0.244973 0.640924 0
M  V30 47 H -2.821673 3.463892 1.507259 0
M  V30 48 H -3.499792 1.356906 5.501064 0
M  V30 49 H -4.043235 -0.935189 5.033367 0
M  V30 50 H -3.773768 -2.199372 0.500922 0
M  V30 51 H -4.359586 -4.675915 -0.675886 0
M  V30 52 H -5.041160 -6.970168 -0.222511 0
M  V30 53 H -5.472556 -7.788304 2.128530 0
M  V30 54 H -5.180608 -6.213832 3.967559 0
M  V30 55 H -1.491233 4.390139 -0.259833 0
M  V30 56 H 0.258464 4.079228 -2.058860 0
M  V30 57 H 3.715020 1.068259 -3.772459 0
M  V30 58 H 4.720869 1.706803 -2.382738 0
M  V30 59 H 3.758747 -1.046699 -2.979384 0
M  V30 60 H 5.367522 -0.567337 -2.384016 0
M  V30 END ATOM
M  V30 BEGIN BOND
M  V30 1 1 1 2
M  V30 2 1 2 3
M  V30 3 1 2 4
M  V30 4 1 4 5
M  V30 5 1 5 6
M  V30 6 1 6 7
M  V30 7 1 7 8
M  V30 8 2 8 9
M  V30 9 1 8 10
M  V30 10 2 10 11
M  V30 11 1 11 12
M  V30 12 2 12 13
M  V30 13 1 13 14
M  V30 14 1 14 15
M  V30 15 2 15 16
M  V30 16 1 16 17
M  V30 17 2 17 18
M  V30 18 1 18 19
M  V30 19 1 19 20
M  V30 20 2 20 21
M  V30 21 1 21 22
M  V30 22 2 22 23
M  V30 23 1 23 24
M  V30 24 2 24 25
M  V30 25 1 25 26
M  V30 26 2 26 27
M  V30 27 1 27 28
M  V30 28 2 19 29
M  V30 29 1 13 30
M  V30 30 2 30 31
M  V30 31 1 7 32
M  V30 32 1 32 33
M  V30 33 1 33 4
M  V30 34 1 31 10
M  V30 35 1 29 15
M  V30 36 1 28 20
M  V30 37 1 27 22
M  V30 38 1 1 34
M  V30 39 1 1 35
M  V30 40 1 1 36
M  V30 41 1 3 37
M  V30 42 1 3 38
M  V30 43 1 3 39
M  V30 44 1 4 40
M  V30 45 1 5 41
M  V30 46 1 5 42
M  V30 47 1 6 43
M  V30 48 1 6 44
M  V30 49 1 11 45
M  V30 50 1 12 46
M  V30 51 1 14 47
M  V30 52 1 17 48
M  V30 53 1 18 49
M  V30 54 1 21 50
M  V30 55 1 23 51
M  V30 56 1 24 52
M  V30 57 1 25 53
M  V30 58 1 26 54
M  V30 59 1 30 55
M  V30 60 1 31 56
M  V30 61 1 32 57
M  V30 62 1 32 58
M  V30 63 1 33 59
M  V30 64 1 33 60
M  V30 END BOND
M  V30 END CTAB
M  END
>  <Dataset>  (564) 
ChEMBL_Kinases

>  <Ligand_Instance>  (564) 
nan

>  <PDB_ID>  (564) 
nan

>  <Standardized_SMILES>  (564) 
CN(C)C1CCN(C(=O)c2ccc(Nc3nccc(-c4cc5ccccc5s4)n3)cc2)CC1

>  <Name>  (564) 
nan

>  <Pocket>  (564) 
nan

>  <ATP_Site>  (564) 
nan

>  <Peripheral>  (564) 
nan

>  <Num_H_Atoms_ProtBoundConf>  (564) 
nan

>  <Num_Resolved_Atoms>  (564) 
nan

>  <Num_Not_Resolved_Atoms>  (564) 
nan

$$$$
CHEMBL200106
     RDKit          3D

  0  0  0  0  0  0  0  0  0  0999 V3000
M  V30 BEGIN CTAB
M  V30 COUNTS 71 75 0 0 0
M  V30 BEGIN ATOM
M  V30 1 O 1.399884 -5.401995 0.675297 0
M  V30 2 C 2.185293 -4.582297 0.133705 0
M  V30 3 C 2.769943 -3.566010 1.013471 0
M  V30 4 C 1.744832 -2.702557 1.423817 0
M  V30 5 C 2.019729 -1.610570 2.258316 0
M  V30 6 C 3.291410 -1.338061 2.709621 0
M  V30 7 N 3.601906 -0.188984 3.530841 0
M  V30 8 C 2.735335 0.895867 3.228884 0
M  V30 9 N 3.465682 1.931324 2.736204 0
M  V30 10 C 2.909309 3.074831 2.322676 0
M  V30 11 C 1.551250 3.313949 2.355403 0
M  V30 12 C 0.847765 2.247785 2.857391 0
M  V30 13 C -0.602621 2.187569 2.906546 0
M  V30 14 C -1.452972 1.258651 3.394426 0
M  V30 15 C -2.793552 1.493389 3.248459 0
M  V30 16 C -3.200344 2.661938 2.613359 0
M  V30 17 C -4.618112 3.102563 2.329718 0
M  V30 18 C -5.015638 2.539955 1.007095 0
M  V30 19 C -6.385525 2.864949 0.539845 0
M  V30 20 C -6.689317 4.323534 0.366016 0
M  V30 21 O -6.562753 5.043037 1.546264 0
M  V30 22 S -1.611490 3.458847 2.209124 0
M  V30 23 N 1.430056 1.106061 3.269330 0
M  V30 24 C 4.274877 -2.206918 2.290133 0
M  V30 25 C 4.037767 -3.285589 1.471637 0
M  V30 26 N 2.513051 -4.606251 -1.265178 0
M  V30 27 C 3.417906 -3.726116 -2.019410 0
M  V30 28 C 2.548343 -2.885615 -2.924810 0
M  V30 29 C 1.114634 -3.366824 -2.966231 0
M  V30 30 N 0.416938 -3.047649 -1.748804 0
M  V30 31 C -0.939113 -3.536808 -1.702680 0
M  V30 32 C -1.781416 -2.529982 -2.462750 0
M  V30 33 C -0.994299 -1.253484 -2.445485 0
M  V30 34 C 0.206872 -1.627972 -1.587759 0
M  V30 35 C 1.169305 -4.846326 -3.207245 0
M  V30 36 C 1.885744 -5.602805 -2.109561 0
M  V30 37 H 0.685200 -2.807244 1.156015 0
M  V30 38 H 1.181646 -0.987833 2.540125 0
M  V30 39 H 4.372327 -0.218488 4.233216 0
M  V30 40 H 3.509913 3.907526 1.929087 0
M  V30 41 H 1.008376 4.180564 2.050658 0
M  V30 42 H -1.074010 0.367647 3.881612 0
M  V30 43 H -3.573946 0.808148 3.603927 0
M  V30 44 H -5.202452 2.673976 3.142251 0
M  V30 45 H -4.549649 4.215850 2.340348 0
M  V30 46 H -4.966934 1.418611 1.116983 0
M  V30 47 H -4.293594 2.760803 0.187505 0
M  V30 48 H -7.171120 2.448433 1.234078 0
M  V30 49 H -6.600432 2.373608 -0.453463 0
M  V30 50 H -7.753181 4.412061 0.039697 0
M  V30 51 H -6.099477 4.770947 -0.470417 0
M  V30 52 H -6.578589 6.014068 1.327869 0
M  V30 53 H 5.302817 -2.092352 2.582228 0
M  V30 54 H 4.723971 -4.021001 1.085064 0
M  V30 55 H 4.158097 -4.326889 -2.588794 0
M  V30 56 H 4.011116 -3.075924 -1.359083 0
M  V30 57 H 2.942087 -2.920486 -3.988247 0
M  V30 58 H 2.682464 -1.845270 -2.617239 0
M  V30 59 H 0.590658 -2.932899 -3.849506 0
M  V30 60 H -1.266534 -3.514860 -0.637347 0
M  V30 61 H -1.133656 -4.512914 -2.119832 0
M  V30 62 H -1.867138 -2.821968 -3.541480 0
M  V30 63 H -2.782569 -2.408819 -2.052741 0
M  V30 64 H -0.597413 -0.942897 -3.431694 0
M  V30 65 H -1.556092 -0.453588 -1.937085 0
M  V30 66 H 1.019817 -0.975072 -1.864033 0
M  V30 67 H -0.101517 -1.448207 -0.536959 0
M  V30 68 H 0.194739 -5.334843 -3.382334 0
M  V30 69 H 1.697784 -5.009856 -4.203704 0
M  V30 70 H 2.687661 -6.207039 -2.585870 0
M  V30 71 H 1.146229 -6.214661 -1.558901 0
M  V30 END ATOM
M  V30 BEGIN BOND
M  V30 1 2 1 2
M  V30 2 1 2 3
M  V30 3 2 3 4
M  V30 4 1 4 5
M  V30 5 2 5 6
M  V30 6 1 6 7
M  V30 7 1 7 8
M  V30 8 2 8 9
M  V30 9 1 9 10
M  V30 10 2 10 11
M  V30 11 1 11 12
M  V30 12 1 12 13
M  V30 13 2 13 14
M  V30 14 1 14 15
M  V30 15 2 15 16
M  V30 16 1 16 17
M  V30 17 1 17 18
M  V30 18 1 18 19
M  V30 19 1 19 20
M  V30 20 1 20 21
M  V30 21 1 16 22
M  V30 22 2 12 23
M  V30 23 1 6 24
M  V30 24 2 24 25
M  V30 25 1 2 26
M  V30 26 1 26 27
M  V30 27 1 27 28
M  V30 28 1 28 29
M  V30 29 1 29 30
M  V30 30 1 30 31
M  V30 31 1 31 32
M  V30 32 1 32 33
M  V30 33 1 33 34
M  V30 34 1 29 35
M  V30 35 1 35 36
M  V30 36 1 25 3
M  V30 37 1 36 26
M  V30 38 1 23 8
M  V30 39 1 34 30
M  V30 40 1 22 13
M  V30 41 1 4 37
M  V30 42 1 5 38
M  V30 43 1 7 39
M  V30 44 1 10 40
M  V30 45 1 11 41
M  V30 46 1 14 42
M  V30 47 1 15 43
M  V30 48 1 17 44
M  V30 49 1 17 45
M  V30 50 1 18 46
M  V30 51 1 18 47
M  V30 52 1 19 48
M  V30 53 1 19 49
M  V30 54 1 20 50
M  V30 55 1 20 51
M  V30 56 1 21 52
M  V30 57 1 24 53
M  V30 58 1 25 54
M  V30 59 1 27 55
M  V30 60 1 27 56
M  V30 61 1 28 57
M  V30 62 1 28 58
M  V30 63 1 29 59
M  V30 64 1 31 60
M  V30 65 1 31 61
M  V30 66 1 32 62
M  V30 67 1 32 63
M  V30 68 1 33 64
M  V30 69 1 33 65
M  V30 70 1 34 66
M  V30 71 1 34 67
M  V30 72 1 35 68
M  V30 73 1 35 69
M  V30 74 1 36 70
M  V30 75 1 36 71
M  V30 END BOND
M  V30 END CTAB
M  END
>  <Dataset>  (565) 
ChEMBL_Kinases

>  <Ligand_Instance>  (565) 
nan

>  <PDB_ID>  (565) 
nan

>  <Standardized_SMILES>  (565) 
O=C(c1ccc(Nc2nccc(-c3ccc(CCCCO)s3)n2)cc1)N1CCC(N2CCCC2)CC1

>  <Name>  (565) 
nan

>  <Pocket>  (565) 
nan

>  <ATP_Site>  (565) 
nan

>  <Peripheral>  (565) 
nan

>  <Num_H_Atoms_ProtBoundConf>  (565) 
nan

>  <Num_Resolved_Atoms>  (565) 
nan

>  <Num_Not_Resolved_Atoms>  (565) 
nan

$$$$
CHEMBL2000619
     RDKit          3D

  0  0  0  0  0  0  0  0  0  0999 V3000
M  V30 BEGIN CTAB
M  V30 COUNTS 51 55 0 0 0
M  V30 BEGIN ATOM
M  V30 1 C 2.617846 -3.333771 6.077428 0
M  V30 2 N 2.788882 -3.753086 4.708082 0
M  V30 3 C 3.799031 -4.751974 4.347408 0
M  V30 4 C 1.963643 -3.180805 3.728155 0
M  V30 5 C 1.025062 -2.241789 4.120369 0
M  V30 6 C 0.167324 -1.626899 3.206779 0
M  V30 7 C 0.286476 -1.990388 1.879565 0
M  V30 8 N -0.560676 -1.395916 0.910251 0
M  V30 9 C -0.322748 -0.374112 0.226963 0
M  V30 10 C 0.980574 0.206887 0.516084 0
M  V30 11 O 1.805821 -0.229754 1.345805 0
M  V30 12 N 1.377227 1.391247 -0.205762 0
M  V30 13 C 2.655971 2.004683 0.042989 0
M  V30 14 C 0.495995 1.954095 -1.169408 0
M  V30 15 C 0.924417 3.086067 -1.830704 0
M  V30 16 C 0.122246 3.685640 -2.777991 0
M  V30 17 C -1.118896 3.172528 -3.085604 0
M  V30 18 C -1.492055 2.040848 -2.392483 0
M  V30 19 C -2.731567 1.513669 -2.687845 0
M  V30 20 O -3.545992 2.127111 -3.653392 0
M  V30 21 C -3.140902 0.363836 -2.001116 0
M  V30 22 C -4.409607 -0.090815 -2.371716 0
M  V30 23 C -4.832377 -1.221764 -1.707959 0
M  V30 24 C -4.105376 -1.911875 -0.731496 0
M  V30 25 C -2.867666 -1.379067 -0.441696 0
M  V30 26 C -2.376607 -0.260708 -1.055721 0
M  V30 27 C -1.150010 0.269091 -0.769960 0
M  V30 28 C -0.736156 1.396351 -1.435930 0
M  V30 29 C 1.214733 -2.932107 1.423518 0
M  V30 30 C 2.021165 -3.487993 2.398659 0
M  V30 31 H 1.570099 -3.611526 6.390147 0
M  V30 32 H 2.708465 -2.260116 6.230741 0
M  V30 33 H 3.281815 -3.942476 6.716199 0
M  V30 34 H 4.042783 -5.383586 5.223515 0
M  V30 35 H 4.724433 -4.286188 3.999082 0
M  V30 36 H 3.350580 -5.422317 3.588568 0
M  V30 37 H 0.882492 -1.914095 5.147659 0
M  V30 38 H -0.563245 -0.894060 3.522153 0
M  V30 39 H 3.150871 2.140151 -0.963412 0
M  V30 40 H 3.338998 1.370268 0.615547 0
M  V30 41 H 2.505581 3.023104 0.416511 0
M  V30 42 H 1.882860 3.574751 -1.667455 0
M  V30 43 H 0.443004 4.576381 -3.307860 0
M  V30 44 H -1.767272 3.625969 -3.826213 0
M  V30 45 H -4.387870 2.601119 -3.321894 0
M  V30 46 H -5.040500 0.374570 -3.111794 0
M  V30 47 H -5.818587 -1.594140 -1.980786 0
M  V30 48 H -4.552062 -2.790336 -0.284566 0
M  V30 49 H -2.377356 -1.956044 0.306502 0
M  V30 50 H 1.269396 -3.183089 0.374153 0
M  V30 51 H 2.747441 -4.224277 2.044593 0
M  V30 END ATOM
M  V30 BEGIN BOND
M  V30 1 1 1 2
M  V30 2 1 2 3
M  V30 3 1 2 4
M  V30 4 2 4 5
M  V30 5 1 5 6
M  V30 6 2 6 7
M  V30 7 1 7 8
M  V30 8 2 8 9
M  V30 9 1 9 10
M  V30 10 2 10 11
M  V30 11 1 10 12
M  V30 12 1 12 13
M  V30 13 1 12 14
M  V30 14 2 14 15
M  V30 15 1 15 16
M  V30 16 2 16 17
M  V30 17 1 17 18
M  V30 18 2 18 19
M  V30 19 1 19 20
M  V30 20 1 19 21
M  V30 21 2 21 22
M  V30 22 1 22 23
M  V30 23 2 23 24
M  V30 24 1 24 25
M  V30 25 2 25 26
M  V30 26 1 26 27
M  V30 27 2 27 28
M  V30 28 1 7 29
M  V30 29 2 29 30
M  V30 30 1 30 4
M  V30 31 1 27 9
M  V30 32 1 28 14
M  V30 33 1 28 18
M  V30 34 1 26 21
M  V30 35 1 1 31
M  V30 36 1 1 32
M  V30 37 1 1 33
M  V30 38 1 3 34
M  V30 39 1 3 35
M  V30 40 1 3 36
M  V30 41 1 5 37
M  V30 42 1 6 38
M  V30 43 1 13 39
M  V30 44 1 13 40
M  V30 45 1 13 41
M  V30 46 1 15 42
M  V30 47 1 16 43
M  V30 48 1 17 44
M  V30 49 1 20 45
M  V30 50 1 22 46
M  V30 51 1 23 47
M  V30 52 1 24 48
M  V30 53 1 25 49
M  V30 54 1 29 50
M  V30 55 1 30 51
M  V30 END BOND
M  V30 END CTAB
M  END
>  <Dataset>  (566) 
ChEMBL_Kinases

>  <Ligand_Instance>  (566) 
nan

>  <PDB_ID>  (566) 
nan

>  <Standardized_SMILES>  (566) 
CN(C)c1ccc(/N=C2\C(=O)N(C)c3cccc4c(O)c5ccccc5c2c34)cc1

>  <Name>  (566) 
nan

>  <Pocket>  (566) 
nan

>  <ATP_Site>  (566) 
nan

>  <Peripheral>  (566) 
nan

>  <Num_H_Atoms_ProtBoundConf>  (566) 
nan

>  <Num_Resolved_Atoms>  (566) 
nan

>  <Num_Not_Resolved_Atoms>  (566) 
nan

$$$$
CHEMBL199996
     RDKit          3D

  0  0  0  0  0  0  0  0  0  0999 V3000
M  V30 BEGIN CTAB
M  V30 COUNTS 35 37 0 0 0
M  V30 BEGIN ATOM
M  V30 1 C -0.798171 -2.530645 3.368955 0
M  V30 2 C 0.470513 -3.113086 2.857956 0
M  V30 3 N 0.767238 -4.372872 3.165682 0
M  V30 4 N 1.923812 -4.698035 2.621580 0
M  V30 5 C 2.365555 -3.577057 1.940280 0
M  V30 6 S 3.668781 -2.881648 0.923421 0
M  V30 7 C 2.930183 -1.274779 0.738831 0
M  V30 8 C 3.485015 -0.190520 0.006199 0
M  V30 9 N 4.733556 -0.363176 -0.649021 0
M  V30 10 O 2.855144 0.894171 -0.042583 0
M  V30 11 C 1.711942 -1.349086 1.470444 0
M  V30 12 N 0.886459 -0.186651 1.505030 0
M  V30 13 C -0.106677 0.005844 0.511464 0
M  V30 14 O -0.291770 -0.818100 -0.411734 0
M  V30 15 N -0.857063 1.204856 0.665087 0
M  V30 16 C -1.891196 1.532301 -0.260492 0
M  V30 17 C -3.228090 1.197110 -0.194193 0
M  V30 18 C -4.085573 1.605235 -1.189107 0
M  V30 19 C -3.599816 2.350495 -2.251224 0
M  V30 20 C -2.266428 2.696918 -2.337514 0
M  V30 21 C -1.404081 2.284193 -1.333151 0
M  V30 22 C 1.454165 -2.550250 2.076023 0
M  V30 23 H -0.879655 -1.445680 3.110811 0
M  V30 24 H -0.875033 -2.565101 4.477116 0
M  V30 25 H -1.696242 -3.015962 2.946875 0
M  V30 26 H 2.503032 -5.558654 2.614426 0
M  V30 27 H 5.219831 -0.332912 -1.569851 0
M  V30 28 H 5.717853 -0.610245 -0.408144 0
M  V30 29 H 1.114809 0.439482 2.308908 0
M  V30 30 H -0.717344 1.904157 1.428363 0
M  V30 31 H -3.435079 0.622848 0.685772 0
M  V30 32 H -5.118701 1.298430 -1.058326 0
M  V30 33 H -4.313766 2.648361 -3.009771 0
M  V30 34 H -1.968894 3.284587 -3.206485 0
M  V30 35 H -0.380146 2.594015 -1.472335 0
M  V30 END ATOM
M  V30 BEGIN BOND
M  V30 1 1 1 2
M  V30 2 2 2 3
M  V30 3 1 3 4
M  V30 4 1 4 5
M  V30 5 1 5 6
M  V30 6 1 6 7
M  V30 7 1 7 8
M  V30 8 1 8 9
M  V30 9 2 8 10
M  V30 10 2 7 11
M  V30 11 1 11 12
M  V30 12 1 12 13
M  V30 13 2 13 14
M  V30 14 1 13 15
M  V30 15 1 15 16
M  V30 16 2 16 17
M  V30 17 1 17 18
M  V30 18 2 18 19
M  V30 19 1 19 20
M  V30 20 2 20 21
M  V30 21 1 11 22
M  V30 22 1 22 2
M  V30 23 2 22 5
M  V30 24 1 21 16
M  V30 25 1 1 23
M  V30 26 1 1 24
M  V30 27 1 1 25
M  V30 28 1 4 26
M  V30 29 1 9 27
M  V30 30 1 9 28
M  V30 31 1 12 29
M  V30 32 1 15 30
M  V30 33 1 17 31
M  V30 34 1 18 32
M  V30 35 1 19 33
M  V30 36 1 20 34
M  V30 37 1 21 35
M  V30 END BOND
M  V30 END CTAB
M  END
>  <Dataset>  (567) 
ChEMBL_Kinases

>  <Ligand_Instance>  (567) 
nan

>  <PDB_ID>  (567) 
nan

>  <Standardized_SMILES>  (567) 
Cc1n[nH]c2sc(C(N)=O)c(NC(=O)Nc3ccccc3)c12

>  <Name>  (567) 
nan

>  <Pocket>  (567) 
nan

>  <ATP_Site>  (567) 
nan

>  <Peripheral>  (567) 
nan

>  <Num_H_Atoms_ProtBoundConf>  (567) 
nan

>  <Num_Resolved_Atoms>  (567) 
nan

>  <Num_Not_Resolved_Atoms>  (567) 
nan

$$$$
CHEMBL1999931
     RDKit          3D

  0  0  0  0  0  0  0  0  0  0999 V3000
M  V30 BEGIN CTAB
M  V30 COUNTS 48 52 0 0 0
M  V30 BEGIN ATOM
M  V30 1 O -0.478310 -4.313613 -0.777577 0
M  V30 2 C -1.341897 -3.810878 -1.540393 0
M  V30 3 N -0.853413 -3.016167 -2.599879 0
M  V30 4 C 0.585495 -2.969774 -2.550366 0
M  V30 5 N 1.521724 -3.753092 -3.107372 0
M  V30 6 N 2.725873 -3.316073 -2.777528 0
M  V30 7 C 2.627214 -2.231303 -1.992923 0
M  V30 8 C 3.510376 -1.356285 -1.349398 0
M  V30 9 C 3.072221 -0.294444 -0.585166 0
M  V30 10 C 1.719740 -0.065250 -0.434116 0
M  V30 11 C 1.161413 1.031282 0.353906 0
M  V30 12 C 1.870197 1.987274 1.054145 0
M  V30 13 N 1.000173 2.830160 1.654997 0
M  V30 14 C 1.185842 3.994627 2.500448 0
M  V30 15 C 1.238691 3.589420 3.922883 0
M  V30 16 C -0.010352 3.575911 4.546370 0
M  V30 17 C -0.127766 3.219260 5.873813 0
M  V30 18 C 1.021473 2.879602 6.557216 0
M  V30 19 C 2.260805 2.892034 5.942047 0
M  V30 20 C 2.393364 3.251441 4.597787 0
M  V30 21 N -0.223974 2.407458 1.335304 0
M  V30 22 N -0.135627 1.330780 0.556474 0
M  V30 23 C 0.855839 -0.932816 -1.072029 0
M  V30 24 C 1.274884 -2.002921 -1.842456 0
M  V30 25 C -2.748398 -4.080700 -1.278631 0
M  V30 26 C -3.044394 -4.881353 -0.195801 0
M  V30 27 C -4.363054 -5.177304 0.108992 0
M  V30 28 C -5.398631 -4.666918 -0.677917 0
M  V30 29 C -5.076276 -3.859195 -1.768433 0
M  V30 30 C -3.746644 -3.562246 -2.073739 0
M  V30 31 H -1.546301 -2.581473 -3.255203 0
M  V30 32 H 3.638999 -3.736838 -3.072195 0
M  V30 33 H 4.563680 -1.569959 -1.492515 0
M  V30 34 H 3.768745 0.365870 -0.099209 0
M  V30 35 H 2.930644 2.102126 1.149066 0
M  V30 36 H 2.155335 4.490089 2.209761 0
M  V30 37 H 0.381938 4.740183 2.309742 0
M  V30 38 H -0.935741 3.834931 4.047778 0
M  V30 39 H -1.096919 3.208211 6.359608 0
M  V30 40 H 0.917175 2.599371 7.605761 0
M  V30 41 H 3.156855 2.622069 6.493246 0
M  V30 42 H 3.324034 3.280159 4.066627 0
M  V30 43 H -0.223877 -0.753581 -0.954149 0
M  V30 44 H -2.297087 -5.323972 0.474735 0
M  V30 45 H -4.618458 -5.810061 0.963052 0
M  V30 46 H -6.405452 -4.913167 -0.417179 0
M  V30 47 H -5.918863 -3.483710 -2.353732 0
M  V30 48 H -3.527269 -2.936374 -2.921128 0
M  V30 END ATOM
M  V30 BEGIN BOND
M  V30 1 2 1 2
M  V30 2 1 2 3
M  V30 3 1 3 4
M  V30 4 2 4 5
M  V30 5 1 5 6
M  V30 6 1 6 7
M  V30 7 2 7 8
M  V30 8 1 8 9
M  V30 9 2 9 10
M  V30 10 1 10 11
M  V30 11 2 11 12
M  V30 12 1 12 13
M  V30 13 1 13 14
M  V30 14 1 14 15
M  V30 15 2 15 16
M  V30 16 1 16 17
M  V30 17 2 17 18
M  V30 18 1 18 19
M  V30 19 2 19 20
M  V30 20 1 13 21
M  V30 21 2 21 22
M  V30 22 1 10 23
M  V30 23 2 23 24
M  V30 24 1 2 25
M  V30 25 2 25 26
M  V30 26 1 26 27
M  V30 27 2 27 28
M  V30 28 1 28 29
M  V30 29 2 29 30
M  V30 30 1 24 4
M  V30 31 1 30 25
M  V30 32 1 24 7
M  V30 33 1 22 11
M  V30 34 1 20 15
M  V30 35 1 3 31
M  V30 36 1 6 32
M  V30 37 1 8 33
M  V30 38 1 9 34
M  V30 39 1 12 35
M  V30 40 1 14 36
M  V30 41 1 14 37
M  V30 42 1 16 38
M  V30 43 1 17 39
M  V30 44 1 18 40
M  V30 45 1 19 41
M  V30 46 1 20 42
M  V30 47 1 23 43
M  V30 48 1 26 44
M  V30 49 1 27 45
M  V30 50 1 28 46
M  V30 51 1 29 47
M  V30 52 1 30 48
M  V30 END BOND
M  V30 END CTAB
M  END
>  <Dataset>  (568) 
ChEMBL_Kinases

>  <Ligand_Instance>  (568) 
nan

>  <PDB_ID>  (568) 
nan

>  <Standardized_SMILES>  (568) 
O=C(Nc1n[nH]c2ccc(-c3cn(Cc4ccccc4)nn3)cc12)c1ccccc1

>  <Name>  (568) 
nan

>  <Pocket>  (568) 
nan

>  <ATP_Site>  (568) 
nan

>  <Peripheral>  (568) 
nan

>  <Num_H_Atoms_ProtBoundConf>  (568) 
nan

>  <Num_Resolved_Atoms>  (568) 
nan

>  <Num_Not_Resolved_Atoms>  (568) 
nan

$$$$
CHEMBL4744750
     RDKit          3D

  0  0  0  0  0  0  0  0  0  0999 V3000
M  V30 BEGIN CTAB
M  V30 COUNTS 110 114 0 0 0
M  V30 BEGIN ATOM
M  V30 1 O 3.065227 -3.906367 4.565767 0
M  V30 2 C 3.351748 -2.991278 3.746791 0
M  V30 3 C 2.481675 -1.824116 3.518614 0
M  V30 4 C 2.649259 -1.236284 2.131964 0
M  V30 5 C 4.106610 -1.081847 1.770484 0
M  V30 6 N 4.226178 -0.530973 0.455387 0
M  V30 7 C 4.836108 0.745113 0.256701 0
M  V30 8 O 5.330064 1.567503 1.103531 0
M  V30 9 C 4.866396 1.106081 -1.160773 0
M  V30 10 C 5.327914 2.169207 -1.893635 0
M  V30 11 C 5.193648 2.162039 -3.272600 0
M  V30 12 C 4.609256 1.127812 -3.975625 0
M  V30 13 N 4.510244 1.153750 -5.396017 0
M  V30 14 C 4.990211 2.279822 -6.151417 0
M  V30 15 C 3.991628 3.396681 -6.081837 0
M  V30 16 O 2.797401 2.928904 -6.648230 0
M  V30 17 C 1.835707 3.936227 -6.675882 0
M  V30 18 C 0.600462 3.424395 -7.352607 0
M  V30 19 O -0.000243 2.334078 -6.732469 0
M  V30 20 C -1.087911 1.985061 -7.530440 0
M  V30 21 C -1.926836 0.870408 -7.047410 0
M  V30 22 O -1.295844 -0.344235 -6.866465 0
M  V30 23 C -2.307027 -1.248241 -6.502910 0
M  V30 24 C -1.784132 -2.624345 -6.198975 0
M  V30 25 O -0.900659 -2.534709 -5.120529 0
M  V30 26 C -0.359494 -3.736238 -4.761932 0
M  V30 27 C 0.499931 -3.616143 -3.537503 0
M  V30 28 O -0.129695 -3.182710 -2.407493 0
M  V30 29 C -0.677739 -1.943492 -2.375533 0
M  V30 30 C -1.319304 -1.782798 -0.984860 0
M  V30 31 N -0.380881 -1.904071 0.085225 0
M  V30 32 C -1.043355 -1.868431 1.361832 0
M  V30 33 C -1.656963 -0.531103 1.682629 0
M  V30 34 C -2.353592 -0.563377 3.035359 0
M  V30 35 O -1.484814 -0.844429 4.086950 0
M  V30 36 N -2.232795 -1.372394 5.085180 0
M  V30 37 C -3.015959 -0.828818 6.128048 0
M  V30 38 O -2.913116 0.403536 5.981967 0
M  V30 39 C -3.684923 -1.746089 7.022629 0
M  V30 40 C -3.472113 -3.096855 6.964832 0
M  V30 41 C -4.125213 -3.898596 7.871479 0
M  V30 42 C -4.983722 -3.368994 8.830262 0
M  V30 43 F -5.559425 -4.259094 9.657020 0
M  V30 44 C -5.173244 -1.982321 8.854743 0
M  V30 45 F -6.022481 -1.639610 9.851621 0
M  V30 46 C -4.520312 -1.150275 7.942484 0
M  V30 47 N -4.847832 0.208098 8.127605 0
M  V30 48 C -5.754180 1.072487 7.451365 0
M  V30 49 C -5.380915 2.261661 6.836871 0
M  V30 50 C -6.177946 3.145361 6.150069 0
M  V30 51 C -7.504527 2.819508 6.056669 0
M  V30 52 I -8.783243 4.128210 5.017464 0
M  V30 53 C -7.978493 1.679000 6.622014 0
M  V30 54 C -7.110187 0.844393 7.295126 0
M  V30 55 F -7.668477 -0.270173 7.821737 0
M  V30 56 C 4.159579 0.084758 -3.210579 0
M  V30 57 C 4.271709 0.044917 -1.826020 0
M  V30 58 C 3.875845 -0.963149 -0.843600 0
M  V30 59 O 3.310319 -2.065468 -1.033365 0
M  V30 60 C 4.820494 -2.402042 1.881543 0
M  V30 61 O 5.567227 -2.735883 0.933676 0
M  V30 62 N 4.602558 -3.183333 3.051925 0
M  V30 63 H 1.439187 -2.143744 3.693076 0
M  V30 64 H 2.704132 -1.073463 4.307183 0
M  V30 65 H 2.147140 -1.840948 1.366592 0
M  V30 66 H 2.184929 -0.237166 2.147501 0
M  V30 67 H 4.545449 -0.376085 2.502047 0
M  V30 68 H 5.791202 2.994700 -1.354987 0
M  V30 69 H 5.601956 3.034687 -3.734002 0
M  V30 70 H 4.074869 0.319023 -5.842455 0
M  V30 71 H 5.112947 2.016016 -7.229739 0
M  V30 72 H 5.994854 2.608488 -5.749104 0
M  V30 73 H 3.765548 3.616751 -5.020448 0
M  V30 74 H 4.352859 4.329263 -6.562503 0
M  V30 75 H 1.573751 4.106622 -5.594232 0
M  V30 76 H 2.195067 4.858501 -7.130487 0
M  V30 77 H -0.146164 4.247190 -7.525607 0
M  V30 78 H 0.827012 3.066252 -8.397813 0
M  V30 79 H -1.715542 2.924767 -7.584329 0
M  V30 80 H -0.767594 1.804191 -8.584365 0
M  V30 81 H -2.484684 1.095157 -6.109497 0
M  V30 82 H -2.748308 0.697862 -7.805114 0
M  V30 83 H -2.886663 -0.885492 -5.636584 0
M  V30 84 H -3.022393 -1.288297 -7.367169 0
M  V30 85 H -1.221877 -2.993373 -7.075832 0
M  V30 86 H -2.588017 -3.339082 -6.012376 0
M  V30 87 H 0.278966 -4.096979 -5.607043 0
M  V30 88 H -1.127666 -4.545000 -4.642356 0
M  V30 89 H 1.394336 -2.983126 -3.805880 0
M  V30 90 H 0.967162 -4.627077 -3.322302 0
M  V30 91 H -1.459865 -1.798851 -3.132179 0
M  V30 92 H 0.106063 -1.140538 -2.505700 0
M  V30 93 H -1.744856 -0.755754 -0.950524 0
M  V30 94 H -2.128234 -2.512538 -0.845034 0
M  V30 95 H 0.310161 -2.662914 -0.000795 0
M  V30 96 H -0.388066 -2.261834 2.171486 0
M  V30 97 H -1.895341 -2.608133 1.295886 0
M  V30 98 H -0.889940 0.275912 1.631273 0
M  V30 99 H -2.413497 -0.304962 0.910205 0
M  V30 100 H -2.850265 0.415977 3.244535 0
M  V30 101 H -3.183881 -1.292189 2.945421 0
M  V30 102 H -2.049930 -2.391241 4.836862 0
M  V30 103 H -2.827889 -3.561435 6.258192 0
M  V30 104 H -3.951762 -4.979669 7.823031 0
M  V30 105 H -4.313568 0.638410 8.913465 0
M  V30 106 H -4.320152 2.558835 6.894245 0
M  V30 107 H -5.782736 4.043359 5.711456 0
M  V30 108 H -9.036722 1.443952 6.532960 0
M  V30 109 H 3.693395 -0.748331 -3.730116 0
M  V30 110 H 5.369044 -3.840482 3.320589 0
M  V30 END ATOM
M  V30 BEGIN BOND
M  V30 1 2 1 2
M  V30 2 1 2 3
M  V30 3 1 3 4
M  V30 4 1 4 5
M  V30 5 1 5 6
M  V30 6 1 6 7
M  V30 7 2 7 8
M  V30 8 1 7 9
M  V30 9 2 9 10
M  V30 10 1 10 11
M  V30 11 2 11 12
M  V30 12 1 12 13
M  V30 13 1 13 14
M  V30 14 1 14 15
M  V30 15 1 15 16
M  V30 16 1 16 17
M  V30 17 1 17 18
M  V30 18 1 18 19
M  V30 19 1 19 20
M  V30 20 1 20 21
M  V30 21 1 21 22
M  V30 22 1 22 23
M  V30 23 1 23 24
M  V30 24 1 24 25
M  V30 25 1 25 26
M  V30 26 1 26 27
M  V30 27 1 27 28
M  V30 28 1 28 29
M  V30 29 1 29 30
M  V30 30 1 30 31
M  V30 31 1 31 32
M  V30 32 1 32 33
M  V30 33 1 33 34
M  V30 34 1 34 35
M  V30 35 1 35 36
M  V30 36 1 36 37
M  V30 37 2 37 38
M  V30 38 1 37 39
M  V30 39 2 39 40
M  V30 40 1 40 41
M  V30 41 2 41 42
M  V30 42 1 42 43
M  V30 43 1 42 44
M  V30 44 1 44 45
M  V30 45 2 44 46
M  V30 46 1 46 47
M  V30 47 1 47 48
M  V30 48 2 48 49
M  V30 49 1 49 50
M  V30 50 2 50 51
M  V30 51 1 51 52
M  V30 52 1 51 53
M  V30 53 2 53 54
M  V30 54 1 54 55
M  V30 55 1 12 56
M  V30 56 2 56 57
M  V30 57 1 57 58
M  V30 58 2 58 59
M  V30 59 1 5 60
M  V30 60 2 60 61
M  V30 61 1 60 62
M  V30 62 1 62 2
M  V30 63 1 58 6
M  V30 64 1 57 9
M  V30 65 1 46 39
M  V30 66 1 54 48
M  V30 67 1 3 63
M  V30 68 1 3 64
M  V30 69 1 4 65
M  V30 70 1 4 66
M  V30 71 1 5 67
M  V30 72 1 10 68
M  V30 73 1 11 69
M  V30 74 1 13 70
M  V30 75 1 14 71
M  V30 76 1 14 72
M  V30 77 1 15 73
M  V30 78 1 15 74
M  V30 79 1 17 75
M  V30 80 1 17 76
M  V30 81 1 18 77
M  V30 82 1 18 78
M  V30 83 1 20 79
M  V30 84 1 20 80
M  V30 85 1 21 81
M  V30 86 1 21 82
M  V30 87 1 23 83
M  V30 88 1 23 84
M  V30 89 1 24 85
M  V30 90 1 24 86
M  V30 91 1 26 87
M  V30 92 1 26 88
M  V30 93 1 27 89
M  V30 94 1 27 90
M  V30 95 1 29 91
M  V30 96 1 29 92
M  V30 97 1 30 93
M  V30 98 1 30 94
M  V30 99 1 31 95
M  V30 100 1 32 96
M  V30 101 1 32 97
M  V30 102 1 33 98
M  V30 103 1 33 99
M  V30 104 1 34 100
M  V30 105 1 34 101
M  V30 106 1 36 102
M  V30 107 1 40 103
M  V30 108 1 41 104
M  V30 109 1 47 105
M  V30 110 1 49 106
M  V30 111 1 50 107
M  V30 112 1 53 108
M  V30 113 1 56 109
M  V30 114 1 62 110
M  V30 END BOND
M  V30 END CTAB
M  END
>  <Dataset>  (569) 
ChEMBL_Kinases

>  <Ligand_Instance>  (569) 
nan

>  <PDB_ID>  (569) 
nan

>  <Standardized_SMILES>  (569) 
O=C1CCC(N2C(=O)c3ccc(NCCOCCOCCOCCOCCOCCNCCCONC(=O)c4ccc(F)c(F)c4Nc4ccc(I)cc4F)cc3C2=O)C(=O)N1

>  <Name>  (569) 
nan

>  <Pocket>  (569) 
nan

>  <ATP_Site>  (569) 
nan

>  <Peripheral>  (569) 
nan

>  <Num_H_Atoms_ProtBoundConf>  (569) 
nan

>  <Num_Resolved_Atoms>  (569) 
nan

>  <Num_Not_Resolved_Atoms>  (569) 
nan

$$$$
CHEMBL199980
     RDKit          3D

  0  0  0  0  0  0  0  0  0  0999 V3000
M  V30 BEGIN CTAB
M  V30 COUNTS 64 69 0 0 0
M  V30 BEGIN ATOM
M  V30 1 O 2.303163 -5.489137 0.890977 0
M  V30 2 C 1.793494 -4.388799 1.238949 0
M  V30 3 C 2.092078 -3.037873 1.757963 0
M  V30 4 C 2.342402 -1.972608 0.931186 0
M  V30 5 C 2.600158 -0.747640 1.537948 0
M  V30 6 C 2.585671 -0.692368 2.916067 0
M  V30 7 N 2.836211 0.582014 3.533896 0
M  V30 8 C 3.081698 1.719891 2.718980 0
M  V30 9 N 4.253018 2.290827 2.337286 0
M  V30 10 C 4.258044 3.381319 1.537947 0
M  V30 11 C 3.114555 3.985580 1.058699 0
M  V30 12 C 1.942354 3.383060 1.462839 0
M  V30 13 C 0.665805 3.912887 1.021622 0
M  V30 14 C -0.589526 3.504999 1.264089 0
M  V30 15 C -1.644443 4.183790 0.713926 0
M  V30 16 C -2.993671 3.934622 0.832284 0
M  V30 17 C -3.909806 4.733616 0.197941 0
M  V30 18 C -3.587673 5.818346 -0.586759 0
M  V30 19 C -2.246014 6.099437 -0.729166 0
M  V30 20 C -1.329480 5.278412 -0.078856 0
M  V30 21 S 0.484380 5.321186 -0.025570 0
M  V30 22 N 1.964819 2.311244 2.249934 0
M  V30 23 C 2.333749 -1.768471 3.737429 0
M  V30 24 C 2.079442 -2.977768 3.125549 0
M  V30 25 Cl 1.758300 -4.342500 4.178477 0
M  V30 26 N 0.388482 -4.633844 1.010393 0
M  V30 27 C -0.099783 -5.901020 0.502331 0
M  V30 28 C -0.724722 -5.618913 -0.855068 0
M  V30 29 C -1.855408 -4.621414 -0.746027 0
M  V30 30 N -1.852462 -3.655511 -1.761013 0
M  V30 31 C -2.901371 -2.680376 -1.759646 0
M  V30 32 C -2.497526 -1.688854 -2.856132 0
M  V30 33 C -1.148493 -2.236447 -3.358088 0
M  V30 34 C -0.700014 -2.878498 -2.019020 0
M  V30 35 C -1.932010 -4.149805 0.672369 0
M  V30 36 C -0.646326 -3.654185 1.263150 0
M  V30 37 H 2.334775 -2.102041 -0.145874 0
M  V30 38 H 2.797486 0.091946 0.890238 0
M  V30 39 H 2.843662 0.696949 4.570887 0
M  V30 40 H 5.241852 3.767781 1.286760 0
M  V30 41 H 3.148376 4.847549 0.428133 0
M  V30 42 H -0.706327 2.628789 1.905420 0
M  V30 43 H -3.396945 3.099892 1.428316 0
M  V30 44 H -4.972315 4.514907 0.307533 0
M  V30 45 H -4.293051 6.458668 -1.093471 0
M  V30 46 H -1.829521 6.914030 -1.309867 0
M  V30 47 H 2.341000 -1.642793 4.816488 0
M  V30 48 H 0.783706 -6.550375 0.318307 0
M  V30 49 H -0.800328 -6.416906 1.165237 0
M  V30 50 H -1.124410 -6.568106 -1.227606 0
M  V30 51 H 0.085951 -5.295056 -1.541110 0
M  V30 52 H -2.809885 -5.233929 -0.915957 0
M  V30 53 H -2.949035 -2.191541 -0.774101 0
M  V30 54 H -3.848361 -3.173361 -2.044301 0
M  V30 55 H -2.273687 -0.720762 -2.330866 0
M  V30 56 H -3.238210 -1.598126 -3.647147 0
M  V30 57 H -1.377822 -2.999745 -4.111371 0
M  V30 58 H -0.461993 -1.447118 -3.665021 0
M  V30 59 H -0.596232 -1.953212 -1.373751 0
M  V30 60 H 0.252146 -3.385584 -2.141876 0
M  V30 61 H -2.267288 -5.015480 1.317409 0
M  V30 62 H -2.695818 -3.372936 0.859048 0
M  V30 63 H -0.360549 -2.657495 0.868860 0
M  V30 64 H -0.835805 -3.586523 2.376508 0
M  V30 END ATOM
M  V30 BEGIN BOND
M  V30 1 2 1 2
M  V30 2 1 2 3
M  V30 3 2 3 4
M  V30 4 1 4 5
M  V30 5 2 5 6
M  V30 6 1 6 7
M  V30 7 1 7 8
M  V30 8 2 8 9
M  V30 9 1 9 10
M  V30 10 2 10 11
M  V30 11 1 11 12
M  V30 12 1 12 13
M  V30 13 2 13 14
M  V30 14 1 14 15
M  V30 15 2 15 16
M  V30 16 1 16 17
M  V30 17 2 17 18
M  V30 18 1 18 19
M  V30 19 2 19 20
M  V30 20 1 20 21
M  V30 21 2 12 22
M  V30 22 1 6 23
M  V30 23 2 23 24
M  V30 24 1 24 25
M  V30 25 1 2 26
M  V30 26 1 26 27
M  V30 27 1 27 28
M  V30 28 1 28 29
M  V30 29 1 29 30
M  V30 30 1 30 31
M  V30 31 1 31 32
M  V30 32 1 32 33
M  V30 33 1 33 34
M  V30 34 1 29 35
M  V30 35 1 35 36
M  V30 36 1 24 3
M  V30 37 1 36 26
M  V30 38 1 22 8
M  V30 39 1 34 30
M  V30 40 1 21 13
M  V30 41 1 20 15
M  V30 42 1 4 37
M  V30 43 1 5 38
M  V30 44 1 7 39
M  V30 45 1 10 40
M  V30 46 1 11 41
M  V30 47 1 14 42
M  V30 48 1 16 43
M  V30 49 1 17 44
M  V30 50 1 18 45
M  V30 51 1 19 46
M  V30 52 1 23 47
M  V30 53 1 27 48
M  V30 54 1 27 49
M  V30 55 1 28 50
M  V30 56 1 28 51
M  V30 57 1 29 52
M  V30 58 1 31 53
M  V30 59 1 31 54
M  V30 60 1 32 55
M  V30 61 1 32 56
M  V30 62 1 33 57
M  V30 63 1 33 58
M  V30 64 1 34 59
M  V30 65 1 34 60
M  V30 66 1 35 61
M  V30 67 1 35 62
M  V30 68 1 36 63
M  V30 69 1 36 64
M  V30 END BOND
M  V30 END CTAB
M  END
>  <Dataset>  (570) 
ChEMBL_Kinases

>  <Ligand_Instance>  (570) 
nan

>  <PDB_ID>  (570) 
nan

>  <Standardized_SMILES>  (570) 
O=C(c1ccc(Nc2nccc(-c3cc4ccccc4s3)n2)cc1Cl)N1CCC(N2CCCC2)CC1

>  <Name>  (570) 
nan

>  <Pocket>  (570) 
nan

>  <ATP_Site>  (570) 
nan

>  <Peripheral>  (570) 
nan

>  <Num_H_Atoms_ProtBoundConf>  (570) 
nan

>  <Num_Resolved_Atoms>  (570) 
nan

>  <Num_Not_Resolved_Atoms>  (570) 
nan

$$$$
CHEMBL4745961
     RDKit          3D

  0  0  0  0  0  0  0  0  0  0999 V3000
M  V30 BEGIN CTAB
M  V30 COUNTS 51 54 0 0 0
M  V30 BEGIN ATOM
M  V30 1 C 5.890108 -6.216419 2.479641 0
M  V30 2 N 6.066261 -4.838040 2.818299 0
M  V30 3 C 5.454312 -4.460355 4.073028 0
M  V30 4 C 4.164865 -3.721453 3.743207 0
M  V30 5 C 3.971064 -4.140708 2.300777 0 CFG=1
M  V30 6 N 2.945022 -3.458059 1.617447 0
M  V30 7 C 1.804906 -4.256997 1.241725 0
M  V30 8 O 1.720597 -5.471183 1.499235 0
M  V30 9 C 0.726350 -3.554299 0.527524 0
M  V30 10 C 0.593847 -2.292178 0.142512 0
M  V30 11 C -0.538217 -1.905523 -0.519769 0
M  V30 12 N -0.752367 -0.566535 -0.973432 0
M  V30 13 C -1.803099 -0.108967 -1.676337 0
M  V30 14 C -1.613478 1.225786 -1.910017 0
M  V30 15 N -2.315620 2.260604 -2.567087 0
M  V30 16 C -3.261156 3.083750 -1.927304 0
M  V30 17 O -3.240540 2.585821 -0.715795 0
M  V30 18 N -4.173670 4.140258 -1.962672 0
M  V30 19 C -4.890363 4.549332 -0.808213 0
M  V30 20 C -4.204796 5.565291 -0.156767 0
M  V30 21 C -4.717546 6.132276 1.009832 0
M  V30 22 C -5.914229 5.604149 1.430768 0
M  V30 23 C -6.625151 4.612863 0.835198 0
M  V30 24 C -6.096419 4.055029 -0.337394 0
M  V30 25 Cl -6.838686 2.773603 -1.270037 0
M  V30 26 C -0.406603 1.591575 -1.330326 0
M  V30 27 N 0.052645 0.471404 -0.788291 0
M  V30 28 C -1.506650 -2.903410 -0.751000 0
M  V30 29 S -0.668735 -4.417024 0.049878 0
M  V30 30 C 5.352126 -4.054015 1.788334 0
M  V30 31 H 5.506704 -6.276578 1.441565 0
M  V30 32 H 5.176239 -6.728720 3.135252 0
M  V30 33 H 6.889375 -6.721544 2.499101 0
M  V30 34 H 6.102372 -3.874127 4.733362 0
M  V30 35 H 5.144248 -5.408978 4.577346 0
M  V30 36 H 4.316017 -2.661913 3.893980 0
M  V30 37 H 3.321446 -4.091442 4.357652 0
M  V30 38 H 3.721653 -5.235085 2.363931 0
M  V30 39 H 3.091418 -2.432946 1.432450 0
M  V30 40 H 1.407763 -1.635433 0.379100 0
M  V30 41 H -2.661040 -0.620277 -2.031104 0
M  V30 42 H -2.351273 2.671586 -3.561462 0
M  V30 43 H -4.077008 4.399802 -3.000097 0
M  V30 44 H -3.249454 6.011931 -0.462733 0
M  V30 45 H -4.211147 6.919264 1.542107 0
M  V30 46 H -6.389712 5.984678 2.334363 0
M  V30 47 H -7.554521 4.207321 1.177002 0
M  V30 48 H 0.133184 2.531870 -1.264698 0
M  V30 49 H -2.476617 -2.795492 -1.258139 0
M  V30 50 H 5.838062 -3.081824 1.766468 0
M  V30 51 H 5.395215 -4.575379 0.806250 0
M  V30 END ATOM
M  V30 BEGIN BOND
M  V30 1 1 1 2
M  V30 2 1 2 3
M  V30 3 1 3 4
M  V30 4 1 4 5
M  V30 5 1 5 6
M  V30 6 1 6 7
M  V30 7 2 7 8
M  V30 8 1 7 9
M  V30 9 2 9 10
M  V30 10 1 10 11
M  V30 11 1 11 12
M  V30 12 1 12 13
M  V30 13 2 13 14
M  V30 14 1 14 15
M  V30 15 1 15 16
M  V30 16 2 16 17
M  V30 17 1 16 18
M  V30 18 1 18 19
M  V30 19 2 19 20
M  V30 20 1 20 21
M  V30 21 2 21 22
M  V30 22 1 22 23
M  V30 23 2 23 24
M  V30 24 1 24 25
M  V30 25 1 14 26
M  V30 26 2 26 27
M  V30 27 2 11 28
M  V30 28 1 28 29
M  V30 29 1 5 30
M  V30 30 1 30 2
M  V30 31 1 29 9
M  V30 32 1 27 12
M  V30 33 1 24 19
M  V30 34 1 1 31
M  V30 35 1 1 32
M  V30 36 1 1 33
M  V30 37 1 3 34
M  V30 38 1 3 35
M  V30 39 1 4 36
M  V30 40 1 4 37
M  V30 41 1 5 38 CFG=1
M  V30 42 1 6 39
M  V30 43 1 10 40
M  V30 44 1 13 41
M  V30 45 1 15 42
M  V30 46 1 18 43
M  V30 47 1 20 44
M  V30 48 1 21 45
M  V30 49 1 22 46
M  V30 50 1 23 47
M  V30 51 1 26 48
M  V30 52 1 28 49
M  V30 53 1 30 50
M  V30 54 1 30 51
M  V30 END BOND
M  V30 END CTAB
M  END
>  <Dataset>  (571) 
ChEMBL_Kinases

>  <Ligand_Instance>  (571) 
nan

>  <PDB_ID>  (571) 
nan

>  <Standardized_SMILES>  (571) 
CN1CC[C@@H](NC(=O)c2cc(-n3cc(NC(=O)Nc4ccccc4Cl)cn3)cs2)C1

>  <Name>  (571) 
nan

>  <Pocket>  (571) 
nan

>  <ATP_Site>  (571) 
nan

>  <Peripheral>  (571) 
nan

>  <Num_H_Atoms_ProtBoundConf>  (571) 
nan

>  <Num_Resolved_Atoms>  (571) 
nan

>  <Num_Not_Resolved_Atoms>  (571) 
nan

$$$$
CHEMBL199837
     RDKit          3D

  0  0  0  0  0  0  0  0  0  0999 V3000
M  V30 BEGIN CTAB
M  V30 COUNTS 75 79 0 0 0
M  V30 BEGIN ATOM
M  V30 1 C 1.880782 -2.848760 3.831347 0
M  V30 2 C 2.745640 -3.948758 4.338370 0
M  V30 3 C 3.139126 -3.654174 5.782121 0
M  V30 4 N 1.900216 -5.163172 4.435621 0
M  V30 5 C 3.908583 -4.341280 3.513142 0
M  V30 6 C 4.956892 -3.332999 3.227418 0
M  V30 7 C 4.545400 -2.184072 2.502800 0
M  V30 8 C 4.068080 -0.889706 2.656886 0
M  V30 9 C 3.797193 -0.095248 1.599126 0
M  V30 10 C 3.996186 -0.572332 0.325653 0
M  V30 11 C 3.871719 -0.212508 -1.084298 0
M  V30 12 C 4.242067 -1.052668 -2.087232 0
M  V30 13 C 3.987880 -0.564987 -3.372550 0
M  V30 14 N 3.417767 0.649796 -3.595218 0
M  V30 15 C 3.071058 1.444253 -2.536141 0
M  V30 16 N 2.495539 2.587412 -3.140730 0
M  V30 17 C 1.063596 2.518930 -3.056642 0
M  V30 18 C 0.414282 1.690962 -2.163543 0
M  V30 19 C -0.982534 1.615837 -2.100346 0
M  V30 20 C -1.766529 2.372639 -2.936281 0
M  V30 21 C -3.208607 2.167342 -2.736523 0
M  V30 22 O -3.866454 3.238122 -2.518021 0
M  V30 23 N -3.658958 0.797520 -2.817406 0
M  V30 24 C -2.995997 -0.489902 -3.055759 0
M  V30 25 C -3.018973 -1.339382 -1.803894 0
M  V30 26 C -4.144241 -1.000465 -0.884798 0
M  V30 27 N -3.939531 -0.049093 0.121252 0
M  V30 28 C -5.101094 0.158657 0.950400 0
M  V30 29 C -4.565618 0.442122 2.340822 0
M  V30 30 C -3.291603 -0.367806 2.364664 0
M  V30 31 C -2.784992 -0.116996 0.941544 0
M  V30 32 C -5.368008 -0.581818 -1.714484 0
M  V30 33 C -5.087230 0.554852 -2.636860 0
M  V30 34 C -1.133901 3.206906 -3.836432 0
M  V30 35 C 0.240123 3.258833 -3.873467 0
M  V30 36 N 3.316475 0.974588 -1.284277 0
M  V30 37 S 4.633361 -2.322731 0.648041 0
M  V30 38 H 2.031090 -1.887727 4.373983 0
M  V30 39 H 0.803214 -3.142266 4.047285 0
M  V30 40 H 1.907952 -2.755378 2.736539 0
M  V30 41 H 4.102692 -3.098875 5.841399 0
M  V30 42 H 3.145393 -4.589601 6.375002 0
M  V30 43 H 2.356763 -2.996754 6.199897 0
M  V30 44 H 1.611558 -5.356206 3.433416 0
M  V30 45 H 1.025033 -4.895182 4.971219 0
M  V30 46 H 3.548390 -4.776665 2.546246 0
M  V30 47 H 4.425557 -5.180647 4.078438 0
M  V30 48 H 5.794561 -3.891155 2.702788 0
M  V30 49 H 5.471388 -2.983474 4.169116 0
M  V30 50 H 3.925816 -0.558974 3.672137 0
M  V30 51 H 3.427735 0.909019 1.613456 0
M  V30 52 H 4.693735 -2.019154 -1.927453 0
M  V30 53 H 4.296546 -1.265728 -4.163831 0
M  V30 54 H 2.989852 3.378926 -3.590201 0
M  V30 55 H 0.981684 1.069347 -1.477209 0
M  V30 56 H -1.384071 0.946728 -1.358703 0
M  V30 57 H -1.952928 -0.345155 -3.443532 0
M  V30 58 H -3.529032 -0.952780 -3.917497 0
M  V30 59 H -3.178104 -2.386880 -2.156452 0
M  V30 60 H -2.060319 -1.360737 -1.284931 0
M  V30 61 H -4.485073 -1.969698 -0.405267 0
M  V30 62 H -5.650109 1.029249 0.541397 0
M  V30 63 H -5.748064 -0.728057 1.011858 0
M  V30 64 H -4.301795 1.528119 2.384537 0
M  V30 65 H -5.285946 0.152338 3.135388 0
M  V30 66 H -3.562977 -1.416640 2.526441 0
M  V30 67 H -2.586114 0.047340 3.110435 0
M  V30 68 H -1.987322 -0.794639 0.663764 0
M  V30 69 H -2.327681 0.919624 0.977949 0
M  V30 70 H -6.119358 -0.225927 -0.975800 0
M  V30 71 H -5.822856 -1.475280 -2.199945 0
M  V30 72 H -5.585122 1.492082 -2.358347 0
M  V30 73 H -5.491084 0.261422 -3.646844 0
M  V30 74 H -1.809923 3.766264 -4.459015 0
M  V30 75 H 0.707343 3.922092 -4.591118 0
M  V30 END ATOM
M  V30 BEGIN BOND
M  V30 1 1 1 2
M  V30 2 1 2 3
M  V30 3 1 2 4
M  V30 4 1 2 5
M  V30 5 1 5 6
M  V30 6 1 6 7
M  V30 7 2 7 8
M  V30 8 1 8 9
M  V30 9 2 9 10
M  V30 10 1 10 11
M  V30 11 2 11 12
M  V30 12 1 12 13
M  V30 13 2 13 14
M  V30 14 1 14 15
M  V30 15 1 15 16
M  V30 16 1 16 17
M  V30 17 2 17 18
M  V30 18 1 18 19
M  V30 19 2 19 20
M  V30 20 1 20 21
M  V30 21 2 21 22
M  V30 22 1 21 23
M  V30 23 1 23 24
M  V30 24 1 24 25
M  V30 25 1 25 26
M  V30 26 1 26 27
M  V30 27 1 27 28
M  V30 28 1 28 29
M  V30 29 1 29 30
M  V30 30 1 30 31
M  V30 31 1 26 32
M  V30 32 1 32 33
M  V30 33 1 20 34
M  V30 34 2 34 35
M  V30 35 2 15 36
M  V30 36 1 10 37
M  V30 37 1 37 7
M  V30 38 1 36 11
M  V30 39 1 35 17
M  V30 40 1 33 23
M  V30 41 1 31 27
M  V30 42 1 1 38
M  V30 43 1 1 39
M  V30 44 1 1 40
M  V30 45 1 3 41
M  V30 46 1 3 42
M  V30 47 1 3 43
M  V30 48 1 4 44
M  V30 49 1 4 45
M  V30 50 1 5 46
M  V30 51 1 5 47
M  V30 52 1 6 48
M  V30 53 1 6 49
M  V30 54 1 8 50
M  V30 55 1 9 51
M  V30 56 1 12 52
M  V30 57 1 13 53
M  V30 58 1 16 54
M  V30 59 1 18 55
M  V30 60 1 19 56
M  V30 61 1 24 57
M  V30 62 1 24 58
M  V30 63 1 25 59
M  V30 64 1 25 60
M  V30 65 1 26 61
M  V30 66 1 28 62
M  V30 67 1 28 63
M  V30 68 1 29 64
M  V30 69 1 29 65
M  V30 70 1 30 66
M  V30 71 1 30 67
M  V30 72 1 31 68
M  V30 73 1 31 69
M  V30 74 1 32 70
M  V30 75 1 32 71
M  V30 76 1 33 72
M  V30 77 1 33 73
M  V30 78 1 34 74
M  V30 79 1 35 75
M  V30 END BOND
M  V30 END CTAB
M  END
>  <Dataset>  (572) 
ChEMBL_Kinases

>  <Ligand_Instance>  (572) 
nan

>  <PDB_ID>  (572) 
nan

>  <Standardized_SMILES>  (572) 
CC(C)(N)CCc1ccc(-c2ccnc(Nc3ccc(C(=O)N4CCC(N5CCCC5)CC4)cc3)n2)s1

>  <Name>  (572) 
nan

>  <Pocket>  (572) 
nan

>  <ATP_Site>  (572) 
nan

>  <Peripheral>  (572) 
nan

>  <Num_H_Atoms_ProtBoundConf>  (572) 
nan

>  <Num_Resolved_Atoms>  (572) 
nan

>  <Num_Not_Resolved_Atoms>  (572) 
nan

$$$$
CHEMBL1997822
     RDKit          3D

  0  0  0  0  0  0  0  0  0  0999 V3000
M  V30 BEGIN CTAB
M  V30 COUNTS 49 53 0 0 0
M  V30 BEGIN ATOM
M  V30 1 C -5.163086 -6.811953 1.415451 0
M  V30 2 C -3.916748 -5.995797 1.257028 0
M  V30 3 C -3.899233 -4.622197 1.269542 0
M  V30 4 C -2.575691 -4.274666 1.095688 0
M  V30 5 C -1.922423 -3.062799 1.021108 0
M  V30 6 C -0.562701 -2.927860 0.839540 0
M  V30 7 C 0.151369 -1.664918 0.738064 0
M  V30 8 C 1.182163 -1.569981 1.662097 0
M  V30 9 S 1.888864 0.161593 1.331564 0
M  V30 10 C 0.769918 0.506119 0.068344 0
M  V30 11 C 0.606835 1.629160 -0.746969 0
M  V30 12 C 1.538388 2.733588 -0.498098 0
M  V30 13 C 2.174471 3.403992 -1.519667 0
M  V30 14 C 3.054966 4.449433 -1.262367 0
M  V30 15 C 3.285353 4.810951 0.056998 0
M  V30 16 C 2.672830 4.169933 1.105575 0
M  V30 17 S 2.980658 4.646203 2.771868 0
M  V30 18 C 4.349333 3.740493 3.449043 0
M  V30 19 O 3.193883 6.121836 2.888916 0
M  V30 20 O 1.747905 4.253398 3.560117 0
M  V30 21 C 1.801418 3.132028 0.804674 0
M  V30 22 C -0.356791 1.720784 -1.727900 0
M  V30 23 N -1.098868 0.611199 -1.791839 0
M  V30 24 C -0.990095 -0.479411 -1.047520 0
M  V30 25 N -1.957482 -1.429865 -1.442643 0
M  V30 26 C -0.029266 -0.573603 -0.066321 0
M  V30 27 C 0.106890 -4.151418 0.736783 0
M  V30 28 C -0.456625 -5.394735 0.799225 0
M  V30 29 C -1.821149 -5.416001 0.982081 0
M  V30 30 N -2.657186 -6.483853 1.082718 0
M  V30 31 H -5.412067 -6.963123 2.493583 0
M  V30 32 H -6.015588 -6.237016 0.990366 0
M  V30 33 H -5.061627 -7.805436 0.951557 0
M  V30 34 H -4.745667 -3.970452 1.390188 0
M  V30 35 H -2.528711 -2.187847 1.124305 0
M  V30 36 H 1.613202 -2.200103 2.435867 0
M  V30 37 H 1.980639 3.105036 -2.555503 0
M  V30 38 H 3.554893 4.976346 -2.065055 0
M  V30 39 H 3.963817 5.619066 0.291544 0
M  V30 40 H 4.894646 4.322048 4.209582 0
M  V30 41 H 5.060802 3.421119 2.675589 0
M  V30 42 H 4.004919 2.792304 3.949291 0
M  V30 43 H 1.324824 2.635560 1.653312 0
M  V30 44 H -0.406622 2.612107 -2.298079 0
M  V30 45 H -1.756553 -2.243726 -2.081589 0
M  V30 46 H -2.936001 -1.332501 -1.087441 0
M  V30 47 H 1.191485 -4.096888 0.591876 0
M  V30 48 H 0.163661 -6.276531 0.706660 0
M  V30 49 H -2.395052 -7.509067 1.036448 0
M  V30 END ATOM
M  V30 BEGIN BOND
M  V30 1 1 1 2
M  V30 2 2 2 3
M  V30 3 1 3 4
M  V30 4 2 4 5
M  V30 5 1 5 6
M  V30 6 1 6 7
M  V30 7 2 7 8
M  V30 8 1 8 9
M  V30 9 1 9 10
M  V30 10 2 10 11
M  V30 11 1 11 12
M  V30 12 2 12 13
M  V30 13 1 13 14
M  V30 14 2 14 15
M  V30 15 1 15 16
M  V30 16 1 16 17
M  V30 17 1 17 18
M  V30 18 2 17 19
M  V30 19 2 17 20
M  V30 20 2 16 21
M  V30 21 1 11 22
M  V30 22 2 22 23
M  V30 23 1 23 24
M  V30 24 1 24 25
M  V30 25 2 24 26
M  V30 26 2 6 27
M  V30 27 1 27 28
M  V30 28 2 28 29
M  V30 29 1 29 30
M  V30 30 1 30 2
M  V30 31 1 29 4
M  V30 32 1 26 7
M  V30 33 1 26 10
M  V30 34 1 21 12
M  V30 35 1 1 31
M  V30 36 1 1 32
M  V30 37 1 1 33
M  V30 38 1 3 34
M  V30 39 1 5 35
M  V30 40 1 8 36
M  V30 41 1 13 37
M  V30 42 1 14 38
M  V30 43 1 15 39
M  V30 44 1 18 40
M  V30 45 1 18 41
M  V30 46 1 18 42
M  V30 47 1 21 43
M  V30 48 1 22 44
M  V30 49 1 25 45
M  V30 50 1 25 46
M  V30 51 1 27 47
M  V30 52 1 28 48
M  V30 53 1 30 49
M  V30 END BOND
M  V30 END CTAB
M  END
>  <Dataset>  (573) 
ChEMBL_Kinases

>  <Ligand_Instance>  (573) 
nan

>  <PDB_ID>  (573) 
nan

>  <Standardized_SMILES>  (573) 
Cc1cc2cc(-c3csc4c(-c5cccc(S(C)(=O)=O)c5)cnc(N)c34)ccc2[nH]1

>  <Name>  (573) 
nan

>  <Pocket>  (573) 
nan

>  <ATP_Site>  (573) 
nan

>  <Peripheral>  (573) 
nan

>  <Num_H_Atoms_ProtBoundConf>  (573) 
nan

>  <Num_Resolved_Atoms>  (573) 
nan

>  <Num_Not_Resolved_Atoms>  (573) 
nan

$$$$
CHEMBL4744988
     RDKit          3D

  0  0  0  0  0  0  0  0  0  0999 V3000
M  V30 BEGIN CTAB
M  V30 COUNTS 39 42 0 0 0
M  V30 BEGIN ATOM
M  V30 1 C -1.809066 -3.090134 0.894455 0
M  V30 2 N -1.633824 -2.141682 1.942592 0
M  V30 3 C -0.850160 -0.973502 2.150565 0
M  V30 4 N -0.029166 -0.580521 1.157581 0
M  V30 5 C 0.747958 0.515526 1.272944 0
M  V30 6 C 1.669643 1.157991 0.451570 0
M  V30 7 C 1.983341 0.644529 -0.894945 0
M  V30 8 C 3.301715 0.572567 -1.298455 0
M  V30 9 C 3.556037 0.080406 -2.581235 0
M  V30 10 N 2.552818 -0.305745 -3.384984 0
M  V30 11 C 1.253067 -0.252312 -3.031306 0
M  V30 12 O 0.203612 -0.648616 -3.852868 0
M  V30 13 C 0.553506 -1.140501 -5.151065 0
M  V30 14 C 0.984617 0.237822 -1.751246 0
M  V30 15 C 2.133871 2.257385 1.168546 0
M  V30 16 N 1.513580 2.266076 2.364152 0
M  V30 17 N 0.688612 1.223587 2.418073 0
M  V30 18 C -0.122438 0.838015 3.402884 0
M  V30 19 C -0.937988 -0.271078 3.341802 0
M  V30 20 C -1.853555 -0.735978 4.410353 0
M  V30 21 C -1.217165 -1.717459 5.402415 0
M  V30 22 C -1.519565 -0.340778 5.850066 0
M  V30 23 H -2.807791 -2.965014 0.397320 0
M  V30 24 H -1.671042 -4.133230 1.181972 0
M  V30 25 H -1.079383 -2.869349 0.061080 0
M  V30 26 H -2.284492 -2.464503 2.713078 0
M  V30 27 H 4.125440 0.877980 -0.667852 0
M  V30 28 H 4.578786 -0.004811 -2.968336 0
M  V30 29 H -0.088667 -2.018116 -5.419277 0
M  V30 30 H 0.342011 -0.366242 -5.919983 0
M  V30 31 H 1.590318 -1.526799 -5.190272 0
M  V30 32 H -0.051731 0.286775 -1.453266 0
M  V30 33 H 2.867104 2.872614 0.666904 0
M  V30 34 H -0.162225 1.423271 4.331743 0
M  V30 35 H -2.931890 -0.852332 4.188253 0
M  V30 36 H -0.168912 -2.047949 5.193037 0
M  V30 37 H -1.847103 -2.542305 5.758951 0
M  V30 38 H -0.628655 0.302220 6.036294 0
M  V30 39 H -2.364254 -0.208611 6.554573 0
M  V30 END ATOM
M  V30 BEGIN BOND
M  V30 1 1 1 2
M  V30 2 1 2 3
M  V30 3 2 3 4
M  V30 4 1 4 5
M  V30 5 2 5 6
M  V30 6 1 6 7
M  V30 7 2 7 8
M  V30 8 1 8 9
M  V30 9 2 9 10
M  V30 10 1 10 11
M  V30 11 1 11 12
M  V30 12 1 12 13
M  V30 13 2 11 14
M  V30 14 1 6 15
M  V30 15 2 15 16
M  V30 16 1 16 17
M  V30 17 1 17 18
M  V30 18 2 18 19
M  V30 19 1 19 20
M  V30 20 1 20 21
M  V30 21 1 21 22
M  V30 22 1 19 3
M  V30 23 1 22 20
M  V30 24 1 17 5
M  V30 25 1 14 7
M  V30 26 1 1 23
M  V30 27 1 1 24
M  V30 28 1 1 25
M  V30 29 1 2 26
M  V30 30 1 8 27
M  V30 31 1 9 28
M  V30 32 1 13 29
M  V30 33 1 13 30
M  V30 34 1 13 31
M  V30 35 1 14 32
M  V30 36 1 15 33
M  V30 37 1 18 34
M  V30 38 1 20 35
M  V30 39 1 21 36
M  V30 40 1 21 37
M  V30 41 1 22 38
M  V30 42 1 22 39
M  V30 END BOND
M  V30 END CTAB
M  END
>  <Dataset>  (574) 
ChEMBL_Kinases

>  <Ligand_Instance>  (574) 
nan

>  <PDB_ID>  (574) 
nan

>  <Standardized_SMILES>  (574) 
CNc1nc2c(-c3ccnc(OC)c3)cnn2cc1C1CC1

>  <Name>  (574) 
nan

>  <Pocket>  (574) 
nan

>  <ATP_Site>  (574) 
nan

>  <Peripheral>  (574) 
nan

>  <Num_H_Atoms_ProtBoundConf>  (574) 
nan

>  <Num_Resolved_Atoms>  (574) 
nan

>  <Num_Not_Resolved_Atoms>  (574) 
nan

$$$$
CHEMBL523938
     RDKit          3D

  0  0  0  0  0  0  0  0  0  0999 V3000
M  V30 BEGIN CTAB
M  V30 COUNTS 47 50 0 0 0
M  V30 BEGIN ATOM
M  V30 1 C -3.507729 -4.442157 1.555684 0
M  V30 2 C -2.845301 -3.072593 1.455915 0
M  V30 3 C -2.705205 -2.719384 0.016308 0
M  V30 4 C -2.843348 -1.280742 -0.324384 0
M  V30 5 C -2.494947 -0.304519 0.750815 0
M  V30 6 C -1.064808 0.043587 0.641893 0
M  V30 7 N -0.557425 1.252535 0.334602 0
M  V30 8 C 0.786268 1.168377 0.332666 0
M  V30 9 C 1.780690 2.195400 0.060314 0
M  V30 10 C 2.696520 2.313998 -0.961897 0
M  V30 11 C 3.554456 3.391959 -1.009659 0
M  V30 12 C 3.510240 4.380790 -0.024318 0
M  V30 13 F 4.415417 5.400377 -0.185314 0
M  V30 14 C 2.598474 4.282932 1.011866 0
M  V30 15 C 1.756642 3.199490 1.034625 0
M  V30 16 C 1.163196 -0.118979 0.644515 0
M  V30 17 C 2.430540 -0.822134 0.795742 0
M  V30 18 C 3.421490 -1.118049 -0.117094 0
M  V30 19 C 4.536543 -1.805317 0.314431 0
M  V30 20 N 4.715350 -2.206436 1.580173 0
M  V30 21 C 3.754976 -1.926704 2.492732 0
M  V30 22 C 2.613934 -1.240093 2.120598 0
M  V30 23 N -0.015419 -0.777324 0.826883 0
M  V30 24 C -2.938811 -0.712435 2.119410 0
M  V30 25 C -3.677716 -2.024888 2.137869 0
M  V30 26 H -4.562919 -4.386274 1.248289 0
M  V30 27 H -2.900195 -5.116809 0.891091 0
M  V30 28 H -3.375185 -4.762430 2.625636 0
M  V30 29 H -1.860069 -3.223195 1.963942 0
M  V30 30 H -1.757143 -3.173162 -0.397043 0
M  V30 31 H -3.513783 -3.260959 -0.552136 0
M  V30 32 H -3.858988 -1.036520 -0.742256 0
M  V30 33 H -2.151175 -1.074724 -1.194931 0
M  V30 34 H -3.043859 0.652695 0.508517 0
M  V30 35 H 2.634596 1.491655 -1.658965 0
M  V30 36 H 4.239294 3.408309 -1.843039 0
M  V30 37 H 2.607160 5.075098 1.745632 0
M  V30 38 H 1.082624 3.227864 1.894479 0
M  V30 39 H 3.186796 -0.760576 -1.091196 0
M  V30 40 H 5.264482 -1.991860 -0.481672 0
M  V30 41 H 3.940063 -2.269082 3.504956 0
M  V30 42 H 1.927043 -1.084175 2.952427 0
M  V30 43 H -0.153327 -1.788888 1.078361 0
M  V30 44 H -3.611761 0.031256 2.596321 0
M  V30 45 H -2.048376 -0.764503 2.772909 0
M  V30 46 H -4.604027 -1.893107 1.531266 0
M  V30 47 H -3.935193 -2.302572 3.164631 0
M  V30 END ATOM
M  V30 BEGIN BOND
M  V30 1 1 1 2
M  V30 2 1 2 3
M  V30 3 1 3 4
M  V30 4 1 4 5
M  V30 5 1 5 6
M  V30 6 2 6 7
M  V30 7 1 7 8
M  V30 8 1 8 9
M  V30 9 2 9 10
M  V30 10 1 10 11
M  V30 11 2 11 12
M  V30 12 1 12 13
M  V30 13 1 12 14
M  V30 14 2 14 15
M  V30 15 2 8 16
M  V30 16 1 16 17
M  V30 17 2 17 18
M  V30 18 1 18 19
M  V30 19 2 19 20
M  V30 20 1 20 21
M  V30 21 2 21 22
M  V30 22 1 16 23
M  V30 23 1 5 24
M  V30 24 1 24 25
M  V30 25 1 25 2
M  V30 26 1 23 6
M  V30 27 1 15 9
M  V30 28 1 22 17
M  V30 29 1 1 26
M  V30 30 1 1 27
M  V30 31 1 1 28
M  V30 32 1 2 29
M  V30 33 1 3 30
M  V30 34 1 3 31
M  V30 35 1 4 32
M  V30 36 1 4 33
M  V30 37 1 5 34
M  V30 38 1 10 35
M  V30 39 1 11 36
M  V30 40 1 14 37
M  V30 41 1 15 38
M  V30 42 1 18 39
M  V30 43 1 19 40
M  V30 44 1 21 41
M  V30 45 1 22 42
M  V30 46 1 23 43
M  V30 47 1 24 44
M  V30 48 1 24 45
M  V30 49 1 25 46
M  V30 50 1 25 47
M  V30 END BOND
M  V30 END CTAB
M  END
>  <Dataset>  (575) 
ChEMBL_Kinases

>  <Ligand_Instance>  (575) 
nan

>  <PDB_ID>  (575) 
nan

>  <Standardized_SMILES>  (575) 
CC1CCC(c2nc(-c3ccc(F)cc3)c(-c3ccncc3)[nH]2)CC1

>  <Name>  (575) 
nan

>  <Pocket>  (575) 
nan

>  <ATP_Site>  (575) 
nan

>  <Peripheral>  (575) 
nan

>  <Num_H_Atoms_ProtBoundConf>  (575) 
nan

>  <Num_Resolved_Atoms>  (575) 
nan

>  <Num_Not_Resolved_Atoms>  (575) 
nan

$$$$
CHEMBL4745141
     RDKit          3D

  0  0  0  0  0  0  0  0  0  0999 V3000
M  V30 BEGIN CTAB
M  V30 COUNTS 43 45 0 0 0
M  V30 BEGIN ATOM
M  V30 1 C 0.320535 -2.827536 4.554190 0
M  V30 2 C 0.079509 -1.973256 3.365889 0
M  V30 3 C 0.721845 -0.845229 2.946373 0
M  V30 4 N 0.192374 -0.368078 1.810136 0
M  V30 5 C 0.519939 0.781331 0.991439 0 CFG=2
M  V30 6 C -0.725516 1.270382 0.297065 0
M  V30 7 C 1.639767 0.475477 0.021184 0 CFG=2
M  V30 8 C 2.858808 0.076473 0.792838 0
M  V30 9 C 4.140620 0.279669 0.020595 0
M  V30 10 N 4.264454 1.568944 -0.577781 0
M  V30 11 C 3.094737 2.369906 -0.321064 0
M  V30 12 C 1.912554 1.601071 -0.918762 0 CFG=1
M  V30 13 F 2.361590 1.123938 -2.144232 0
M  V30 14 C -0.818735 -1.223032 1.500679 0
M  V30 15 N -1.701532 -1.253837 0.476658 0
M  V30 16 C -2.644844 -2.185178 0.328810 0
M  V30 17 C -3.560940 -2.146184 -0.808602 0
M  V30 18 N -3.471481 -1.120999 -1.781416 0
M  V30 19 O -4.448753 -3.027356 -0.942920 0
M  V30 20 C -2.734898 -3.177301 1.266105 0
M  V30 21 C -1.865306 -3.197109 2.327635 0
M  V30 22 Cl -2.000693 -4.482606 3.519741 0
M  V30 23 C -0.904753 -2.209745 2.437099 0
M  V30 24 H 1.249323 -2.536923 5.085734 0
M  V30 25 H -0.519791 -2.783306 5.279224 0
M  V30 26 H 0.404195 -3.881988 4.218741 0
M  V30 27 H 1.548334 -0.376204 3.441398 0
M  V30 28 H 0.826647 1.586053 1.689314 0
M  V30 29 H -0.612856 2.375594 0.102909 0
M  V30 30 H -1.559897 1.193917 1.028426 0
M  V30 31 H -0.947304 0.719016 -0.634844 0
M  V30 32 H 1.301262 -0.392336 -0.610998 0
M  V30 33 H 2.808146 -1.000893 1.057765 0
M  V30 34 H 2.954147 0.627278 1.768433 0
M  V30 35 H 4.974377 0.147561 0.742379 0
M  V30 36 H 4.172225 -0.540274 -0.742611 0
M  V30 37 H 4.357852 1.439646 -1.613448 0
M  V30 38 H 3.165654 3.383262 -0.727979 0
M  V30 39 H 2.927123 2.454545 0.777209 0
M  V30 40 H 1.048008 2.249341 -1.132354 0
M  V30 41 H -2.995410 -1.013155 -2.707592 0
M  V30 42 H -2.869187 -1.600627 -2.463425 0
M  V30 43 H -3.487164 -3.939635 1.168852 0
M  V30 END ATOM
M  V30 BEGIN BOND
M  V30 1 1 1 2
M  V30 2 2 2 3
M  V30 3 1 3 4
M  V30 4 1 4 5
M  V30 5 1 5 6
M  V30 6 1 5 7
M  V30 7 1 7 8
M  V30 8 1 8 9
M  V30 9 1 9 10
M  V30 10 1 10 11
M  V30 11 1 11 12
M  V30 12 1 12 13
M  V30 13 1 4 14
M  V30 14 2 14 15
M  V30 15 1 15 16
M  V30 16 1 16 17
M  V30 17 1 17 18
M  V30 18 2 17 19
M  V30 19 2 16 20
M  V30 20 1 20 21
M  V30 21 1 21 22
M  V30 22 2 21 23
M  V30 23 1 23 2
M  V30 24 1 12 7
M  V30 25 1 23 14
M  V30 26 1 1 24
M  V30 27 1 1 25
M  V30 28 1 1 26
M  V30 29 1 3 27
M  V30 30 1 5 28 CFG=1
M  V30 31 1 6 29
M  V30 32 1 6 30
M  V30 33 1 6 31
M  V30 34 1 7 32 CFG=3
M  V30 35 1 8 33
M  V30 36 1 8 34
M  V30 37 1 9 35
M  V30 38 1 9 36
M  V30 39 1 10 37
M  V30 40 1 11 38
M  V30 41 1 11 39
M  V30 42 1 12 40 CFG=3
M  V30 43 1 18 41
M  V30 44 1 18 42
M  V30 45 1 20 43
M  V30 END BOND
M  V30 END CTAB
M  END
>  <Dataset>  (576) 
ChEMBL_Kinases

>  <Ligand_Instance>  (576) 
nan

>  <PDB_ID>  (576) 
nan

>  <Standardized_SMILES>  (576) 
Cc1cn([C@H](C)[C@@H]2CCNC[C@H]2F)c2nc(C(N)=O)cc(Cl)c12

>  <Name>  (576) 
nan

>  <Pocket>  (576) 
nan

>  <ATP_Site>  (576) 
nan

>  <Peripheral>  (576) 
nan

>  <Num_H_Atoms_ProtBoundConf>  (576) 
nan

>  <Num_Resolved_Atoms>  (576) 
nan

>  <Num_Not_Resolved_Atoms>  (576) 
nan

$$$$
CHEMBL4745378
     RDKit          3D

  0  0  0  0  0  0  0  0  0  0999 V3000
M  V30 BEGIN CTAB
M  V30 COUNTS 61 64 0 0 0
M  V30 BEGIN ATOM
M  V30 1 C 3.762982 -5.165130 4.155517 0
M  V30 2 C 2.576377 -4.377284 4.627324 0
M  V30 3 N 2.357739 -3.139986 3.923823 0
M  V30 4 C 2.111732 -3.175013 2.526096 0
M  V30 5 O 2.153597 -4.398378 2.260917 0
M  V30 6 C 1.887436 -1.962017 1.763692 0
M  V30 7 C 1.974235 -0.762753 2.421044 0
M  V30 8 N 1.782423 0.383782 1.748077 0
M  V30 9 C 1.503740 0.400162 0.431561 0
M  V30 10 N 1.306925 1.611781 -0.286650 0
M  V30 11 C 0.036791 2.208331 -0.257090 0
M  V30 12 C -0.230270 3.369685 -0.988056 0
M  V30 13 C -1.453298 4.001117 -0.986873 0
M  V30 14 C -2.437763 3.426229 -0.212024 0
M  V30 15 C -2.280805 2.287779 0.543209 0
M  V30 16 C -1.009273 1.703902 0.489884 0
M  V30 17 C -3.509219 1.910158 1.268396 0
M  V30 18 C -4.048448 0.552037 0.801949 0
M  V30 19 C -3.224768 1.877907 2.755166 0
M  V30 20 O -4.431958 2.907973 0.900295 0
M  V30 21 C -3.819037 3.800573 0.034377 0
M  V30 22 O -4.479037 4.773687 -0.415100 0
M  V30 23 N 1.417289 -0.782173 -0.220992 0
M  V30 24 C 1.603758 -1.957756 0.420405 0
M  V30 25 N 1.492080 -3.172970 -0.327249 0
M  V30 26 C 1.194349 -3.113202 -1.745473 0 CFG=2
M  V30 27 C 2.306152 -2.415537 -2.513321 0
M  V30 28 O 3.462765 -3.173364 -2.287457 0
M  V30 29 C -0.117303 -2.454658 -1.992933 0
M  V30 30 C -0.244684 -1.487881 -2.998105 0
M  V30 31 C -1.448198 -0.851198 -3.257732 0
M  V30 32 C -2.548263 -1.192770 -2.491187 0
M  V30 33 C -2.420689 -2.145149 -1.501906 0
M  V30 34 C -1.225024 -2.779900 -1.241751 0
M  V30 35 H 4.584898 -5.209506 4.927888 0
M  V30 36 H 4.220372 -4.617968 3.305678 0
M  V30 37 H 3.519544 -6.183596 3.790518 0
M  V30 38 H 1.684227 -5.050642 4.574460 0
M  V30 39 H 2.724414 -4.172265 5.705323 0
M  V30 40 H 2.391026 -2.236418 4.492824 0
M  V30 41 H 2.184184 -0.565242 3.456520 0
M  V30 42 H 2.069539 2.063435 -0.828043 0
M  V30 43 H 0.602121 3.771959 -1.583459 0
M  V30 44 H -1.641660 4.898248 -1.558735 0
M  V30 45 H -0.783336 0.814822 1.039990 0
M  V30 46 H -3.312855 -0.254569 0.913933 0
M  V30 47 H -4.921905 0.352229 1.488691 0
M  V30 48 H -4.500476 0.654408 -0.197293 0
M  V30 49 H -4.124611 2.039909 3.376901 0
M  V30 50 H -2.840910 0.847696 3.016883 0
M  V30 51 H -2.443346 2.651035 2.947089 0
M  V30 52 H 1.611308 -4.122630 0.080551 0
M  V30 53 H 1.120512 -4.138145 -2.157116 0
M  V30 54 H 2.077050 -2.540396 -3.591676 0
M  V30 55 H 2.500769 -1.392712 -2.211921 0
M  V30 56 H 3.250667 -4.142039 -2.137036 0
M  V30 57 H 0.567632 -1.186155 -3.617424 0
M  V30 58 H -1.540858 -0.099588 -4.041982 0
M  V30 59 H -3.485257 -0.671575 -2.720049 0
M  V30 60 H -3.339150 -2.364078 -0.934108 0
M  V30 61 H -1.204045 -3.514817 -0.450809 0
M  V30 END ATOM
M  V30 BEGIN BOND
M  V30 1 1 1 2
M  V30 2 1 2 3
M  V30 3 1 3 4
M  V30 4 2 4 5
M  V30 5 1 4 6
M  V30 6 2 6 7
M  V30 7 1 7 8
M  V30 8 2 8 9
M  V30 9 1 9 10
M  V30 10 1 10 11
M  V30 11 2 11 12
M  V30 12 1 12 13
M  V30 13 2 13 14
M  V30 14 1 14 15
M  V30 15 2 15 16
M  V30 16 1 15 17
M  V30 17 1 17 18
M  V30 18 1 17 19
M  V30 19 1 17 20
M  V30 20 1 20 21
M  V30 21 2 21 22
M  V30 22 1 9 23
M  V30 23 2 23 24
M  V30 24 1 24 25
M  V30 25 1 25 26
M  V30 26 1 26 27
M  V30 27 1 27 28
M  V30 28 1 26 29
M  V30 29 2 29 30
M  V30 30 1 30 31
M  V30 31 2 31 32
M  V30 32 1 32 33
M  V30 33 2 33 34
M  V30 34 1 24 6
M  V30 35 1 34 29
M  V30 36 1 16 11
M  V30 37 1 21 14
M  V30 38 1 1 35
M  V30 39 1 1 36
M  V30 40 1 1 37
M  V30 41 1 2 38
M  V30 42 1 2 39
M  V30 43 1 3 40
M  V30 44 1 7 41
M  V30 45 1 10 42
M  V30 46 1 12 43
M  V30 47 1 13 44
M  V30 48 1 16 45
M  V30 49 1 18 46
M  V30 50 1 18 47
M  V30 51 1 18 48
M  V30 52 1 19 49
M  V30 53 1 19 50
M  V30 54 1 19 51
M  V30 55 1 25 52
M  V30 56 1 26 53 CFG=3
M  V30 57 1 27 54
M  V30 58 1 27 55
M  V30 59 1 28 56
M  V30 60 1 30 57
M  V30 61 1 31 58
M  V30 62 1 32 59
M  V30 63 1 33 60
M  V30 64 1 34 61
M  V30 END BOND
M  V30 END CTAB
M  END
>  <Dataset>  (577) 
ChEMBL_Kinases

>  <Ligand_Instance>  (577) 
nan

>  <PDB_ID>  (577) 
nan

>  <Standardized_SMILES>  (577) 
CCNC(=O)c1cnc(Nc2ccc3c(c2)C(C)(C)OC3=O)nc1N[C@H](CO)c1ccccc1

>  <Name>  (577) 
nan

>  <Pocket>  (577) 
nan

>  <ATP_Site>  (577) 
nan

>  <Peripheral>  (577) 
nan

>  <Num_H_Atoms_ProtBoundConf>  (577) 
nan

>  <Num_Resolved_Atoms>  (577) 
nan

>  <Num_Not_Resolved_Atoms>  (577) 
nan

$$$$
CHEMBL1994526
     RDKit          3D

  0  0  0  0  0  0  0  0  0  0999 V3000
M  V30 BEGIN CTAB
M  V30 COUNTS 39 40 0 0 0
M  V30 BEGIN ATOM
M  V30 1 C -2.611890 -2.645670 2.654930 0
M  V30 2 C -1.431562 -3.177773 1.911044 0
M  V30 3 N -1.892020 -4.121867 0.907745 0
M  V30 4 C -0.548497 -2.105704 1.306907 0
M  V30 5 C 0.570434 -2.808795 0.608154 0
M  V30 6 C 1.751459 -1.940904 0.298149 0
M  V30 7 C 2.094321 -0.940252 1.331505 0
M  V30 8 C 2.166422 0.433606 0.738786 0
M  V30 9 O 3.194470 1.156520 0.798537 0
M  V30 10 N 1.074729 1.020457 0.063542 0
M  V30 11 C 0.887516 2.271464 -0.569979 0
M  V30 12 C -0.312688 2.594809 -1.167308 0
M  V30 13 C -0.519704 3.793818 -1.784897 0
M  V30 14 N 0.451035 4.722573 -1.837504 0
M  V30 15 C 1.664496 4.500529 -1.280780 0
M  V30 16 C 1.822492 3.275808 -0.670068 0
M  V30 17 C 1.303305 -0.956147 2.585907 0
M  V30 18 C -0.143214 -1.151255 2.358825 0
M  V30 19 H -3.375791 -3.468869 2.664943 0
M  V30 20 H -3.068500 -1.836208 2.041549 0
M  V30 21 H -2.383078 -2.347787 3.687226 0
M  V30 22 H -0.830113 -3.774833 2.644988 0
M  V30 23 H -1.738261 -3.809212 -0.059772 0
M  V30 24 H -1.562812 -5.091881 1.069981 0
M  V30 25 H -1.191708 -1.580819 0.542442 0
M  V30 26 H 0.872136 -3.721057 1.177057 0
M  V30 27 H 0.178221 -3.179262 -0.362889 0
M  V30 28 H 1.588010 -1.417412 -0.683732 0
M  V30 29 H 2.591412 -2.634552 0.085312 0
M  V30 30 H 3.168241 -1.138168 1.655196 0
M  V30 31 H 0.229295 0.374216 0.031396 0
M  V30 32 H -1.139513 1.876204 -1.155120 0
M  V30 33 H -1.470798 3.995336 -2.233630 0
M  V30 34 H 2.431994 5.240138 -1.324758 0
M  V30 35 H 2.801250 3.135304 -0.238376 0
M  V30 36 H 1.743683 -1.649602 3.336844 0
M  V30 37 H 1.433343 0.061714 3.059667 0
M  V30 38 H -0.632022 -0.145296 2.190050 0
M  V30 39 H -0.579131 -1.449976 3.364242 0
M  V30 END ATOM
M  V30 BEGIN BOND
M  V30 1 1 1 2
M  V30 2 1 2 3
M  V30 3 1 2 4
M  V30 4 1 4 5
M  V30 5 1 5 6
M  V30 6 1 6 7
M  V30 7 1 7 8
M  V30 8 2 8 9
M  V30 9 1 8 10
M  V30 10 1 10 11
M  V30 11 2 11 12
M  V30 12 1 12 13
M  V30 13 2 13 14
M  V30 14 1 14 15
M  V30 15 2 15 16
M  V30 16 1 7 17
M  V30 17 1 17 18
M  V30 18 1 18 4
M  V30 19 1 16 11
M  V30 20 1 1 19
M  V30 21 1 1 20
M  V30 22 1 1 21
M  V30 23 1 2 22
M  V30 24 1 3 23
M  V30 25 1 3 24
M  V30 26 1 4 25
M  V30 27 1 5 26
M  V30 28 1 5 27
M  V30 29 1 6 28
M  V30 30 1 6 29
M  V30 31 1 7 30
M  V30 32 1 10 31
M  V30 33 1 12 32
M  V30 34 1 13 33
M  V30 35 1 15 34
M  V30 36 1 16 35
M  V30 37 1 17 36
M  V30 38 1 17 37
M  V30 39 1 18 38
M  V30 40 1 18 39
M  V30 END BOND
M  V30 END CTAB
M  END
>  <Dataset>  (578) 
ChEMBL_Kinases

>  <Ligand_Instance>  (578) 
nan

>  <PDB_ID>  (578) 
nan

>  <Standardized_SMILES>  (578) 
CC(N)C1CCC(C(=O)Nc2ccncc2)CC1

>  <Name>  (578) 
nan

>  <Pocket>  (578) 
nan

>  <ATP_Site>  (578) 
nan

>  <Peripheral>  (578) 
nan

>  <Num_H_Atoms_ProtBoundConf>  (578) 
nan

>  <Num_Resolved_Atoms>  (578) 
nan

>  <Num_Not_Resolved_Atoms>  (578) 
nan

$$$$
CHEMBL4745480
     RDKit          3D

  0  0  0  0  0  0  0  0  0  0999 V3000
M  V30 BEGIN CTAB
M  V30 COUNTS 40 42 0 0 0
M  V30 BEGIN ATOM
M  V30 1 O 1.661686 1.676521 -0.389018 0
M  V30 2 C 2.343292 0.700174 0.015393 0
M  V30 3 N 2.852418 -0.286858 -0.891168 0
M  V30 4 C 2.727326 -0.393531 -2.305831 0
M  V30 5 C 3.544607 0.114550 -3.293107 0
M  V30 6 C 3.234295 -0.109794 -4.616836 0
M  V30 7 C 2.112799 -0.838819 -4.981764 0
M  V30 8 N 1.333343 -1.322580 -3.996776 0
M  V30 9 C 1.602100 -1.125352 -2.692268 0
M  V30 10 N 2.670479 0.476889 1.360167 0
M  V30 11 C 2.211476 1.401446 2.340403 0
M  V30 12 C 2.800570 2.555901 2.844247 0
M  V30 13 N 1.976477 3.112691 3.773996 0
M  V30 14 N 0.887371 2.337964 3.865804 0
M  V30 15 C 1.012040 1.306008 3.011849 0
M  V30 16 C 0.038937 0.239088 2.811786 0
M  V30 17 O 0.265794 -0.676566 1.981650 0
M  V30 18 N -1.181244 0.198355 3.537637 0
M  V30 19 C -1.972102 -0.937103 3.172961 0
M  V30 20 C -2.839861 -0.666290 2.114009 0
M  V30 21 C -3.678746 -1.661985 1.636463 0
M  V30 22 C -3.633518 -2.924047 2.233685 0
M  V30 23 C -4.531411 -3.989637 1.722514 0
M  V30 24 F -4.572649 -3.988653 0.323184 0
M  V30 25 F -5.807135 -3.895233 2.252853 0
M  V30 26 F -4.007782 -5.224295 2.094782 0
M  V30 27 N -2.785317 -3.133219 3.244654 0
M  V30 28 C -1.961115 -2.193663 3.730650 0
M  V30 29 H 3.423063 -1.118501 -0.619413 0
M  V30 30 H 4.388703 0.665356 -2.904797 0
M  V30 31 H 3.923705 0.320510 -5.356486 0
M  V30 32 H 1.907806 -0.990461 -6.042354 0
M  V30 33 H 0.877120 -1.579439 -2.000016 0
M  V30 34 H 3.225083 -0.304965 1.747974 0
M  V30 35 H 3.759690 2.902366 2.510660 0
M  V30 36 H 2.274764 3.998068 4.255513 0
M  V30 37 H -1.363252 0.970625 4.232012 0
M  V30 38 H -2.913161 0.304093 1.613051 0
M  V30 39 H -4.344135 -1.456735 0.825504 0
M  V30 40 H -1.260037 -2.311326 4.542260 0
M  V30 END ATOM
M  V30 BEGIN BOND
M  V30 1 2 1 2
M  V30 2 1 2 3
M  V30 3 1 3 4
M  V30 4 2 4 5
M  V30 5 1 5 6
M  V30 6 2 6 7
M  V30 7 1 7 8
M  V30 8 2 8 9
M  V30 9 1 2 10
M  V30 10 1 10 11
M  V30 11 2 11 12
M  V30 12 1 12 13
M  V30 13 1 13 14
M  V30 14 2 14 15
M  V30 15 1 15 16
M  V30 16 2 16 17
M  V30 17 1 16 18
M  V30 18 1 18 19
M  V30 19 2 19 20
M  V30 20 1 20 21
M  V30 21 2 21 22
M  V30 22 1 22 23
M  V30 23 1 23 24
M  V30 24 1 23 25
M  V30 25 1 23 26
M  V30 26 1 22 27
M  V30 27 2 27 28
M  V30 28 1 9 4
M  V30 29 1 15 11
M  V30 30 1 28 19
M  V30 31 1 3 29
M  V30 32 1 5 30
M  V30 33 1 6 31
M  V30 34 1 7 32
M  V30 35 1 9 33
M  V30 36 1 10 34
M  V30 37 1 12 35
M  V30 38 1 13 36
M  V30 39 1 18 37
M  V30 40 1 20 38
M  V30 41 1 21 39
M  V30 42 1 28 40
M  V30 END BOND
M  V30 END CTAB
M  END
>  <Dataset>  (579) 
ChEMBL_Kinases

>  <Ligand_Instance>  (579) 
nan

>  <PDB_ID>  (579) 
nan

>  <Standardized_SMILES>  (579) 
O=C(Nc1cccnc1)Nc1c[nH]nc1C(=O)Nc1ccc(C(F)(F)F)nc1

>  <Name>  (579) 
nan

>  <Pocket>  (579) 
nan

>  <ATP_Site>  (579) 
nan

>  <Peripheral>  (579) 
nan

>  <Num_H_Atoms_ProtBoundConf>  (579) 
nan

>  <Num_Resolved_Atoms>  (579) 
nan

>  <Num_Not_Resolved_Atoms>  (579) 
nan

$$$$
CHEMBL1991853
     RDKit          3D

  0  0  0  0  0  0  0  0  0  0999 V3000
M  V30 BEGIN CTAB
M  V30 COUNTS 26 28 0 0 0
M  V30 BEGIN ATOM
M  V30 1 N 0.529437 -4.447783 0.636896 0
M  V30 2 C 0.889671 -3.383510 0.321472 0
M  V30 3 C 1.322114 -2.032339 -0.087534 0
M  V30 4 C 2.286311 -1.611976 0.984590 0
M  V30 5 C 2.188454 -2.068633 2.286110 0
M  V30 6 C 3.144833 -1.597318 3.164350 0
M  V30 7 N 4.122514 -0.746198 2.804039 0
M  V30 8 C 4.185396 -0.318987 1.511986 0
M  V30 9 Cl 5.402470 0.789065 0.898115 0
M  V30 10 N 3.269497 -0.756728 0.624511 0
M  V30 11 C 0.179245 -1.066453 -0.103706 0
M  V30 12 N -0.149951 -0.040547 -0.596842 0
M  V30 13 C -1.282250 0.606804 -0.412748 0
M  V30 14 C -1.687259 1.800736 -0.974925 0
M  V30 15 C -2.918753 2.331316 -0.661495 0
M  V30 16 C -3.824658 1.745144 0.206285 0
M  V30 17 C -3.483085 0.551245 0.802421 0
M  V30 18 C -2.228124 0.054547 0.454311 0
M  V30 19 S -1.314589 -1.509298 0.985476 0
M  V30 20 H 1.789744 -2.080498 -1.078678 0
M  V30 21 H 1.405223 -2.741826 2.545308 0
M  V30 22 H 3.108650 -1.932049 4.210693 0
M  V30 23 H -1.093336 2.379008 -1.670434 0
M  V30 24 H -3.243374 3.286718 -1.111081 0
M  V30 25 H -4.796417 2.110577 0.488352 0
M  V30 26 H -4.025803 -0.057946 1.490673 0
M  V30 END ATOM
M  V30 BEGIN BOND
M  V30 1 3 1 2
M  V30 2 1 2 3
M  V30 3 1 3 4
M  V30 4 2 4 5
M  V30 5 1 5 6
M  V30 6 2 6 7
M  V30 7 1 7 8
M  V30 8 1 8 9
M  V30 9 2 8 10
M  V30 10 1 3 11
M  V30 11 2 11 12
M  V30 12 1 12 13
M  V30 13 2 13 14
M  V30 14 1 14 15
M  V30 15 2 15 16
M  V30 16 1 16 17
M  V30 17 2 17 18
M  V30 18 1 18 19
M  V30 19 1 10 4
M  V30 20 1 19 11
M  V30 21 1 18 13
M  V30 22 1 3 20
M  V30 23 1 5 21
M  V30 24 1 6 22
M  V30 25 1 14 23
M  V30 26 1 15 24
M  V30 27 1 16 25
M  V30 28 1 17 26
M  V30 END BOND
M  V30 END CTAB
M  END
>  <Dataset>  (580) 
ChEMBL_Kinases

>  <Ligand_Instance>  (580) 
nan

>  <PDB_ID>  (580) 
nan

>  <Standardized_SMILES>  (580) 
N#CC(c1ccnc(Cl)n1)c1nc2ccccc2s1

>  <Name>  (580) 
nan

>  <Pocket>  (580) 
nan

>  <ATP_Site>  (580) 
nan

>  <Peripheral>  (580) 
nan

>  <Num_H_Atoms_ProtBoundConf>  (580) 
nan

>  <Num_Resolved_Atoms>  (580) 
nan

>  <Num_Not_Resolved_Atoms>  (580) 
nan

$$$$
CHEMBL4745937
     RDKit          3D

  0  0  0  0  0  0  0  0  0  0999 V3000
M  V30 BEGIN CTAB
M  V30 COUNTS 56 60 0 0 0
M  V30 BEGIN ATOM
M  V30 1 C 7.401235 2.220242 1.275557 0
M  V30 2 C 6.461026 1.503744 0.333340 0
M  V30 3 C 5.974737 0.239228 0.986421 0
M  V30 4 C 7.248863 1.143735 -0.909772 0
M  V30 5 C 5.334973 2.410413 -0.028547 0
M  V30 6 C 4.246999 2.154696 -0.870718 0
M  V30 7 C 3.460701 3.306589 -0.897615 0
M  V30 8 N 2.299500 3.220907 -1.714987 0
M  V30 9 C 1.070228 2.760092 -1.165539 0
M  V30 10 O 1.079266 2.443739 0.053606 0
M  V30 11 N -0.171620 2.623660 -1.869480 0
M  V30 12 C -1.240224 2.136332 -1.059925 0
M  V30 13 C -2.085443 2.963958 -0.348727 0
M  V30 14 C -3.118296 2.486061 0.433453 0
M  V30 15 C -3.255341 1.108825 0.460601 0
M  V30 16 O -4.171011 0.426853 1.138971 0
M  V30 17 C -4.011392 -0.852686 0.939125 0
M  V30 18 C -4.910375 -1.785681 1.589732 0
M  V30 19 O -5.809051 -1.241223 2.325318 0
M  V30 20 C -4.946560 -3.232948 1.534622 0
M  V30 21 C -5.902825 -3.929770 2.242315 0
M  V30 22 C -5.679760 -5.289827 1.989646 0
M  V30 23 C -6.289936 -6.454774 2.399805 0
M  V30 24 C -5.855658 -7.706603 1.988217 0
M  V30 25 O -6.541653 -8.842043 2.459330 0
M  V30 26 C -4.774266 -7.801424 1.137132 0
M  V30 27 C -4.145799 -6.650258 0.711895 0
M  V30 28 C -4.603572 -5.421985 1.140494 0
M  V30 29 N -4.211007 -4.160465 0.906081 0
M  V30 30 C -2.934871 -0.961520 0.088459 0
M  V30 31 C -2.417717 0.272146 -0.245163 0
M  V30 32 C -1.391161 0.765041 -1.021545 0
M  V30 33 N 4.093896 4.181227 -0.091597 0
M  V30 34 O 5.161200 3.659748 0.398436 0
M  V30 35 H 6.918916 3.081727 1.778830 0
M  V30 36 H 7.752567 1.498261 2.040885 0
M  V30 37 H 8.344379 2.531972 0.743147 0
M  V30 38 H 4.885355 0.083934 0.884143 0
M  V30 39 H 6.194947 0.213024 2.077198 0
M  V30 40 H 6.490575 -0.649553 0.542544 0
M  V30 41 H 7.892723 0.264486 -0.634499 0
M  V30 42 H 7.976580 1.960263 -1.132086 0
M  V30 43 H 6.612774 0.908327 -1.779077 0
M  V30 44 H 4.179535 1.171082 -1.344202 0
M  V30 45 H 2.270199 3.482453 -2.744282 0
M  V30 46 H -0.084185 2.911796 -2.885459 0
M  V30 47 H -1.940560 4.030202 -0.400142 0
M  V30 48 H -3.734966 3.177566 0.957440 0
M  V30 49 H -6.737026 -3.676986 2.909188 0
M  V30 50 H -7.139938 -6.420467 3.066473 0
M  V30 51 H -6.137958 -9.751846 2.383343 0
M  V30 52 H -4.442530 -8.785035 0.821219 0
M  V30 53 H -3.290232 -6.695714 0.040282 0
M  V30 54 H -3.404182 -3.960433 0.286707 0
M  V30 55 H -2.545268 -1.890167 -0.271295 0
M  V30 56 H -0.803290 0.013212 -1.526453 0
M  V30 END ATOM
M  V30 BEGIN BOND
M  V30 1 1 1 2
M  V30 2 1 2 3
M  V30 3 1 2 4
M  V30 4 1 2 5
M  V30 5 2 5 6
M  V30 6 1 6 7
M  V30 7 1 7 8
M  V30 8 1 8 9
M  V30 9 2 9 10
M  V30 10 1 9 11
M  V30 11 1 11 12
M  V30 12 2 12 13
M  V30 13 1 13 14
M  V30 14 2 14 15
M  V30 15 1 15 16
M  V30 16 1 16 17
M  V30 17 1 17 18
M  V30 18 2 18 19
M  V30 19 1 18 20
M  V30 20 2 20 21
M  V30 21 1 21 22
M  V30 22 2 22 23
M  V30 23 1 23 24
M  V30 24 1 24 25
M  V30 25 2 24 26
M  V30 26 1 26 27
M  V30 27 2 27 28
M  V30 28 1 28 29
M  V30 29 2 17 30
M  V30 30 1 30 31
M  V30 31 2 31 32
M  V30 32 2 7 33
M  V30 33 1 33 34
M  V30 34 1 34 5
M  V30 35 1 32 12
M  V30 36 1 31 15
M  V30 37 1 29 20
M  V30 38 1 28 22
M  V30 39 1 1 35
M  V30 40 1 1 36
M  V30 41 1 1 37
M  V30 42 1 3 38
M  V30 43 1 3 39
M  V30 44 1 3 40
M  V30 45 1 4 41
M  V30 46 1 4 42
M  V30 47 1 4 43
M  V30 48 1 6 44
M  V30 49 1 8 45
M  V30 50 1 11 46
M  V30 51 1 13 47
M  V30 52 1 14 48
M  V30 53 1 21 49
M  V30 54 1 23 50
M  V30 55 1 25 51
M  V30 56 1 26 52
M  V30 57 1 27 53
M  V30 58 1 29 54
M  V30 59 1 30 55
M  V30 60 1 32 56
M  V30 END BOND
M  V30 END CTAB
M  END
>  <Dataset>  (581) 
ChEMBL_Kinases

>  <Ligand_Instance>  (581) 
nan

>  <PDB_ID>  (581) 
nan

>  <Standardized_SMILES>  (581) 
CC(C)(C)c1cc(NC(=O)Nc2ccc3oc(C(=O)c4cc5cc(O)ccc5[nH]4)cc3c2)no1

>  <Name>  (581) 
nan

>  <Pocket>  (581) 
nan

>  <ATP_Site>  (581) 
nan

>  <Peripheral>  (581) 
nan

>  <Num_H_Atoms_ProtBoundConf>  (581) 
nan

>  <Num_Resolved_Atoms>  (581) 
nan

>  <Num_Not_Resolved_Atoms>  (581) 
nan

$$$$
CHEMBL4744931
     RDKit          3D

  0  0  0  0  0  0  0  0  0  0999 V3000
M  V30 BEGIN CTAB
M  V30 COUNTS 51 54 0 0 0
M  V30 BEGIN ATOM
M  V30 1 C 3.969922 -0.690820 0.203203 0
M  V30 2 C 3.907288 -0.580960 1.700964 0
M  V30 3 C 4.106512 -1.953597 2.310920 0
M  V30 4 N 4.866516 0.374380 2.226801 0
M  V30 5 C 5.859683 0.135236 3.103006 0
M  V30 6 N 6.473629 1.309353 3.287585 0
M  V30 7 N 5.871126 2.238583 2.544234 0
M  V30 8 C 4.842593 1.668649 1.857664 0
M  V30 9 C 3.907784 2.309921 0.920525 0
M  V30 10 C 4.315896 2.918885 -0.249321 0
M  V30 11 C 3.362189 3.497224 -1.070649 0
M  V30 12 C 2.021844 3.475298 -0.742219 0
M  V30 13 C 1.639666 2.856425 0.439628 0
M  V30 14 N 0.307427 2.728382 0.954666 0
M  V30 15 C -0.392503 1.560856 0.546665 0
M  V30 16 O 0.035917 0.633330 -0.216395 0
M  V30 17 N -1.709106 1.361228 1.010544 0
M  V30 18 C -2.530367 0.240123 0.685361 0
M  V30 19 C -3.404872 0.113196 -0.377977 0
M  V30 20 C -4.093636 -1.083590 -0.478297 0
M  V30 21 C -3.882102 -2.070888 0.463107 0
M  V30 22 C -4.629452 -3.314690 0.317343 0
M  V30 23 C -4.591034 -4.439484 1.123747 0
M  V30 24 C -5.480649 -5.367642 0.578946 0
M  V30 25 N -6.023901 -4.798251 -0.517332 0
M  V30 26 C -7.008481 -5.489489 -1.346135 0
M  V30 27 N -5.518407 -3.582882 -0.670131 0
M  V30 28 C -3.005416 -1.930331 1.520152 0
M  V30 29 N -2.346846 -0.742640 1.586926 0
M  V30 30 N 2.588465 2.300041 1.223019 0
M  V30 31 H 5.025095 -0.461590 -0.084289 0
M  V30 32 H 3.215770 -0.110271 -0.332486 0
M  V30 33 H 3.831245 -1.757394 -0.085271 0
M  V30 34 H 2.889465 -0.234074 1.968617 0
M  V30 35 H 3.850513 -1.925275 3.375350 0
M  V30 36 H 3.388372 -2.633091 1.779444 0
M  V30 37 H 5.137764 -2.324567 2.109825 0
M  V30 38 H 6.034706 -0.864437 3.516049 0
M  V30 39 H 5.360057 2.935010 -0.503489 0
M  V30 40 H 3.617309 3.984444 -1.991185 0
M  V30 41 H 1.202582 3.891600 -1.304751 0
M  V30 42 H -0.162645 3.396929 1.576576 0
M  V30 43 H -2.176192 2.053186 1.645552 0
M  V30 44 H -3.455677 0.970904 -1.021187 0
M  V30 45 H -4.767563 -1.155406 -1.315218 0
M  V30 46 H -3.975454 -4.529166 1.992639 0
M  V30 47 H -5.610310 -6.336340 1.059649 0
M  V30 48 H -8.012017 -5.517211 -0.898339 0
M  V30 49 H -6.610953 -6.495445 -1.620878 0
M  V30 50 H -7.132868 -4.965120 -2.322351 0
M  V30 51 H -2.861178 -2.725239 2.243851 0
M  V30 END ATOM
M  V30 BEGIN BOND
M  V30 1 1 1 2
M  V30 2 1 2 3
M  V30 3 1 2 4
M  V30 4 1 4 5
M  V30 5 2 5 6
M  V30 6 1 6 7
M  V30 7 2 7 8
M  V30 8 1 8 9
M  V30 9 2 9 10
M  V30 10 1 10 11
M  V30 11 2 11 12
M  V30 12 1 12 13
M  V30 13 1 13 14
M  V30 14 1 14 15
M  V30 15 2 15 16
M  V30 16 1 15 17
M  V30 17 1 17 18
M  V30 18 2 18 19
M  V30 19 1 19 20
M  V30 20 2 20 21
M  V30 21 1 21 22
M  V30 22 1 22 23
M  V30 23 2 23 24
M  V30 24 1 24 25
M  V30 25 1 25 26
M  V30 26 1 25 27
M  V30 27 1 21 28
M  V30 28 2 28 29
M  V30 29 2 13 30
M  V30 30 1 8 4
M  V30 31 1 30 9
M  V30 32 1 29 18
M  V30 33 2 27 22
M  V30 34 1 1 31
M  V30 35 1 1 32
M  V30 36 1 1 33
M  V30 37 1 2 34
M  V30 38 1 3 35
M  V30 39 1 3 36
M  V30 40 1 3 37
M  V30 41 1 5 38
M  V30 42 1 10 39
M  V30 43 1 11 40
M  V30 44 1 12 41
M  V30 45 1 14 42
M  V30 46 1 17 43
M  V30 47 1 19 44
M  V30 48 1 20 45
M  V30 49 1 23 46
M  V30 50 1 24 47
M  V30 51 1 26 48
M  V30 52 1 26 49
M  V30 53 1 26 50
M  V30 54 1 28 51
M  V30 END BOND
M  V30 END CTAB
M  END
>  <Dataset>  (582) 
ChEMBL_Kinases

>  <Ligand_Instance>  (582) 
nan

>  <PDB_ID>  (582) 
nan

>  <Standardized_SMILES>  (582) 
CC(C)n1cnnc1-c1cccc(NC(=O)Nc2ccc(-c3ccn(C)n3)cn2)n1

>  <Name>  (582) 
nan

>  <Pocket>  (582) 
nan

>  <ATP_Site>  (582) 
nan

>  <Peripheral>  (582) 
nan

>  <Num_H_Atoms_ProtBoundConf>  (582) 
nan

>  <Num_Resolved_Atoms>  (582) 
nan

>  <Num_Not_Resolved_Atoms>  (582) 
nan

$$$$
CHEMBL4748345
     RDKit          3D

  0  0  0  0  0  0  0  0  0  0999 V3000
M  V30 BEGIN CTAB
M  V30 COUNTS 47 50 0 0 0
M  V30 BEGIN ATOM
M  V30 1 N 2.120401 -2.583580 1.611539 0
M  V30 2 C 1.555915 -2.996047 0.376382 0
M  V30 3 C 1.076367 -4.262641 0.043413 0
M  V30 4 C 1.180051 -5.192649 1.063995 0
M  V30 5 C 0.709268 -6.469438 0.763631 0
M  V30 6 N 0.194033 -6.746198 -0.446798 0
M  V30 7 C 0.117896 -5.793367 -1.408229 0
M  V30 8 C 0.557159 -4.499984 -1.209236 0
M  V30 9 C 0.477373 -3.533073 -2.191124 0
M  V30 10 C 0.957247 -2.277163 -1.848673 0
M  V30 11 C 0.891188 -1.283982 -2.814007 0
M  V30 12 N 1.350847 -0.041497 -2.517150 0
M  V30 13 C 1.867967 0.241488 -1.305515 0
M  V30 14 N 2.400803 1.449131 -0.778515 0
M  V30 15 C 1.488950 2.381438 -0.102888 0
M  V30 16 C 0.811537 1.661530 1.070670 0
M  V30 17 C -0.107400 2.638944 1.741706 0
M  V30 18 N -0.832927 2.117289 2.862542 0
M  V30 19 C -1.816498 1.139899 2.484075 0
M  V30 20 C -3.188920 1.740730 2.268917 0
M  V30 21 O -3.544712 2.701129 3.178323 0
M  V30 22 C -2.701165 2.756264 4.267517 0
M  V30 23 C -1.289796 3.110525 3.780820 0
M  V30 24 N 1.935979 -0.733498 -0.349628 0
M  V30 25 C 1.488110 -1.994940 -0.599163 0
M  V30 26 H 3.153840 -2.417683 1.419656 0
M  V30 27 H 1.496937 -2.506212 2.468613 0
M  V30 28 H 1.596238 -4.952834 2.030402 0
M  V30 29 H 0.795686 -7.201090 1.580347 0
M  V30 30 H -0.314194 -6.076531 -2.381477 0
M  V30 31 H 0.061321 -3.763142 -3.162076 0
M  V30 32 H 0.495079 -1.418225 -3.810179 0
M  V30 33 H 3.439261 1.660403 -0.878100 0
M  V30 34 H 0.712396 2.665399 -0.831791 0
M  V30 35 H 2.090488 3.249335 0.228932 0
M  V30 36 H 0.325135 0.787398 0.640300 0
M  V30 37 H 1.586487 1.292738 1.769362 0
M  V30 38 H -0.848165 3.053641 1.017143 0
M  V30 39 H 0.552199 3.449554 2.156911 0
M  V30 40 H -1.880874 0.304240 3.232764 0
M  V30 41 H -1.517903 0.748155 1.480384 0
M  V30 42 H -3.928710 0.889439 2.317222 0
M  V30 43 H -3.277031 2.130412 1.215569 0
M  V30 44 H -2.645080 1.782695 4.815142 0
M  V30 45 H -3.023822 3.593650 4.917007 0
M  V30 46 H -1.335398 4.087079 3.260697 0
M  V30 47 H -0.643475 3.167000 4.692169 0
M  V30 END ATOM
M  V30 BEGIN BOND
M  V30 1 1 1 2
M  V30 2 2 2 3
M  V30 3 1 3 4
M  V30 4 2 4 5
M  V30 5 1 5 6
M  V30 6 2 6 7
M  V30 7 1 7 8
M  V30 8 2 8 9
M  V30 9 1 9 10
M  V30 10 2 10 11
M  V30 11 1 11 12
M  V30 12 2 12 13
M  V30 13 1 13 14
M  V30 14 1 14 15
M  V30 15 1 15 16
M  V30 16 1 16 17
M  V30 17 1 17 18
M  V30 18 1 18 19
M  V30 19 1 19 20
M  V30 20 1 20 21
M  V30 21 1 21 22
M  V30 22 1 22 23
M  V30 23 1 13 24
M  V30 24 2 24 25
M  V30 25 1 25 2
M  V30 26 1 8 3
M  V30 27 1 25 10
M  V30 28 1 23 18
M  V30 29 1 1 26
M  V30 30 1 1 27
M  V30 31 1 4 28
M  V30 32 1 5 29
M  V30 33 1 7 30
M  V30 34 1 9 31
M  V30 35 1 11 32
M  V30 36 1 14 33
M  V30 37 1 15 34
M  V30 38 1 15 35
M  V30 39 1 16 36
M  V30 40 1 16 37
M  V30 41 1 17 38
M  V30 42 1 17 39
M  V30 43 1 19 40
M  V30 44 1 19 41
M  V30 45 1 20 42
M  V30 46 1 20 43
M  V30 47 1 22 44
M  V30 48 1 22 45
M  V30 49 1 23 46
M  V30 50 1 23 47
M  V30 END BOND
M  V30 END CTAB
M  END
>  <Dataset>  (583) 
ChEMBL_Kinases

>  <Ligand_Instance>  (583) 
nan

>  <PDB_ID>  (583) 
nan

>  <Standardized_SMILES>  (583) 
Nc1c2ccncc2cc2cnc(NCCCN3CCOCC3)nc12

>  <Name>  (583) 
nan

>  <Pocket>  (583) 
nan

>  <ATP_Site>  (583) 
nan

>  <Peripheral>  (583) 
nan

>  <Num_H_Atoms_ProtBoundConf>  (583) 
nan

>  <Num_Resolved_Atoms>  (583) 
nan

>  <Num_Not_Resolved_Atoms>  (583) 
nan

$$$$
CHEMBL4748515
     RDKit          3D

  0  0  0  0  0  0  0  0  0  0999 V3000
M  V30 BEGIN CTAB
M  V30 COUNTS 46 51 0 0 0
M  V30 BEGIN ATOM
M  V30 1 C 2.063904 -5.849298 -2.122500 0
M  V30 2 C 3.057872 -6.112239 -3.053116 0
M  V30 3 N 4.119926 -5.272844 -3.198298 0
M  V30 4 C 4.244451 -4.148046 -2.437410 0
M  V30 5 C 3.275495 -3.850446 -1.498869 0
M  V30 6 C 3.350681 -2.663193 -0.654006 0
M  V30 7 C 4.627201 -2.252073 -0.323070 0
M  V30 8 C 4.781203 -1.133896 0.474961 0
M  V30 9 C 3.650082 -0.485125 0.900366 0
M  V30 10 N 3.480781 0.597398 1.662862 0
M  V30 11 N 2.201906 0.865073 1.813224 0
M  V30 12 C 1.428396 -0.034242 1.151701 0
M  V30 13 C -0.017241 -0.031770 1.108638 0
M  V30 14 C -0.763944 0.933075 1.770343 0
M  V30 15 C -2.113578 0.742515 1.594025 0
M  V30 16 C -3.263844 1.379938 2.009126 0
M  V30 17 C -3.168406 2.557927 2.858569 0
M  V30 18 C -3.989283 3.590838 2.391119 0
M  V30 19 C -4.038505 4.796453 3.071058 0
M  V30 20 C -3.258851 4.921957 4.200032 0
M  V30 21 N -2.469578 3.936948 4.654760 0
M  V30 22 C -2.420100 2.766106 3.996788 0
M  V30 23 C -4.496859 0.897367 1.626418 0
M  V30 24 N -4.576211 -0.196424 0.847575 0
M  V30 25 C -3.462455 -0.847579 0.421949 0
M  V30 26 C -2.224865 -0.375069 0.797467 0
M  V30 27 N -0.970586 -0.776800 0.550844 0
M  V30 28 C 2.366315 -0.866234 0.590504 0
M  V30 29 C 2.250598 -1.970517 -0.196455 0
M  V30 30 C 2.184775 -4.700779 -1.340865 0
M  V30 31 H 1.262628 -6.553240 -2.066293 0
M  V30 32 H 3.042289 -6.986587 -3.704387 0
M  V30 33 H 5.085981 -3.493239 -2.560330 0
M  V30 34 H 5.508153 -2.782308 -0.672044 0
M  V30 35 H 5.767994 -0.763801 0.767926 0
M  V30 36 H 4.187701 1.216976 2.123877 0
M  V30 37 H -0.415001 1.765443 2.368378 0
M  V30 38 H -4.621694 3.551227 1.514132 0
M  V30 39 H -4.652849 5.633607 2.760712 0
M  V30 40 H -3.236035 5.838877 4.798287 0
M  V30 41 H -1.823328 1.910259 4.278715 0
M  V30 42 H -5.416923 1.395541 1.949796 0
M  V30 43 H -3.522031 -1.727180 -0.204092 0
M  V30 44 H -0.794167 -1.608912 -0.033808 0
M  V30 45 H 1.287029 -2.340042 -0.488075 0
M  V30 46 H 1.379270 -4.522113 -0.612633 0
M  V30 END ATOM
M  V30 BEGIN BOND
M  V30 1 2 1 2
M  V30 2 1 2 3
M  V30 3 2 3 4
M  V30 4 1 4 5
M  V30 5 1 5 6
M  V30 6 2 6 7
M  V30 7 1 7 8
M  V30 8 2 8 9
M  V30 9 1 9 10
M  V30 10 1 10 11
M  V30 11 2 11 12
M  V30 12 1 12 13
M  V30 13 2 13 14
M  V30 14 1 14 15
M  V30 15 2 15 16
M  V30 16 1 16 17
M  V30 17 2 17 18
M  V30 18 1 18 19
M  V30 19 2 19 20
M  V30 20 1 20 21
M  V30 21 2 21 22
M  V30 22 1 16 23
M  V30 23 2 23 24
M  V30 24 1 24 25
M  V30 25 2 25 26
M  V30 26 1 26 27
M  V30 27 1 12 28
M  V30 28 2 28 29
M  V30 29 2 5 30
M  V30 30 1 30 1
M  V30 31 1 29 6
M  V30 32 1 28 9
M  V30 33 1 27 13
M  V30 34 1 26 15
M  V30 35 1 22 17
M  V30 36 1 1 31
M  V30 37 1 2 32
M  V30 38 1 4 33
M  V30 39 1 7 34
M  V30 40 1 8 35
M  V30 41 1 10 36
M  V30 42 1 14 37
M  V30 43 1 18 38
M  V30 44 1 19 39
M  V30 45 1 20 40
M  V30 46 1 22 41
M  V30 47 1 23 42
M  V30 48 1 25 43
M  V30 49 1 27 44
M  V30 50 1 29 45
M  V30 51 1 30 46
M  V30 END BOND
M  V30 END CTAB
M  END
>  <Dataset>  (584) 
ChEMBL_Kinases

>  <Ligand_Instance>  (584) 
nan

>  <PDB_ID>  (584) 
nan

>  <Standardized_SMILES>  (584) 
c1cncc(-c2ccc3[nH]nc(-c4cc5c(-c6cccnc6)cncc5[nH]4)c3c2)c1

>  <Name>  (584) 
nan

>  <Pocket>  (584) 
nan

>  <ATP_Site>  (584) 
nan

>  <Peripheral>  (584) 
nan

>  <Num_H_Atoms_ProtBoundConf>  (584) 
nan

>  <Num_Resolved_Atoms>  (584) 
nan

>  <Num_Not_Resolved_Atoms>  (584) 
nan

$$$$
CHEMBL4748727
     RDKit          3D

  0  0  0  0  0  0  0  0  0  0999 V3000
M  V30 BEGIN CTAB
M  V30 COUNTS 42 45 0 0 0
M  V30 BEGIN ATOM
M  V30 1 N 0.067369 -4.542818 3.184122 0
M  V30 2 C 1.056544 -3.950483 2.302901 0 CFG=1
M  V30 3 C 0.444217 -2.854027 1.477962 0
M  V30 4 O -0.744236 -2.420362 1.465507 0
M  V30 5 N 1.287963 -2.177943 0.564193 0
M  V30 6 C 0.590304 -1.150032 -0.168210 0
M  V30 7 C -0.039263 -1.400376 -1.367266 0
M  V30 8 C -0.682706 -0.353017 -1.997210 0
M  V30 9 C -0.669377 0.890699 -1.405938 0
M  V30 10 C -0.042076 1.154619 -0.204638 0
M  V30 11 C 0.606863 0.105449 0.433983 0
M  V30 12 O -0.040704 2.419790 0.375791 0
M  V30 13 C -0.665842 3.536412 -0.189473 0
M  V30 14 C -1.333526 3.266728 -1.463567 0
M  V30 15 C -1.966367 4.333279 -2.066372 0
M  V30 16 N -2.605099 4.147260 -3.252087 0
M  V30 17 C -2.622614 2.936143 -3.836056 0
M  V30 18 C -1.993455 1.854487 -3.246510 0
M  V30 19 C -1.338939 2.015715 -2.044945 0
M  V30 20 C 2.096360 -3.364409 3.184221 0
M  V30 21 C 1.569450 -2.641933 4.260280 0
M  V30 22 C 2.448873 -2.042898 5.160139 0
M  V30 23 C 3.815191 -2.157585 4.996785 0
M  V30 24 C 4.334914 -2.880861 3.919487 0
M  V30 25 C 3.461087 -3.485896 3.010697 0
M  V30 26 H 0.122873 -5.590307 3.208835 0
M  V30 27 H -0.889891 -4.181860 2.969679 0
M  V30 28 H 1.523053 -4.691893 1.633209 0
M  V30 29 H 2.305690 -2.436156 0.468705 0
M  V30 30 H -0.010210 -2.394800 -1.771620 0
M  V30 31 H -1.161796 -0.587698 -2.929835 0
M  V30 32 H 1.112803 0.271840 1.381693 0
M  V30 33 H 0.091762 4.335469 -0.370786 0
M  V30 34 H -1.434808 3.893521 0.544591 0
M  V30 35 H -2.008374 5.328442 -1.683663 0
M  V30 36 H -3.149397 2.822356 -4.795881 0
M  V30 37 H -2.062649 0.927075 -3.789783 0
M  V30 38 H 0.531817 -2.489438 4.482079 0
M  V30 39 H 2.135579 -1.468230 6.016633 0
M  V30 40 H 4.537623 -1.699248 5.685624 0
M  V30 41 H 5.393160 -3.007108 3.737034 0
M  V30 42 H 3.792728 -4.062451 2.151401 0
M  V30 END ATOM
M  V30 BEGIN BOND
M  V30 1 1 1 2
M  V30 2 1 2 3
M  V30 3 2 3 4
M  V30 4 1 3 5
M  V30 5 1 5 6
M  V30 6 2 6 7
M  V30 7 1 7 8
M  V30 8 2 8 9
M  V30 9 1 9 10
M  V30 10 2 10 11
M  V30 11 1 10 12
M  V30 12 1 12 13
M  V30 13 1 13 14
M  V30 14 2 14 15
M  V30 15 1 15 16
M  V30 16 2 16 17
M  V30 17 1 17 18
M  V30 18 2 18 19
M  V30 19 1 2 20
M  V30 20 2 20 21
M  V30 21 1 21 22
M  V30 22 2 22 23
M  V30 23 1 23 24
M  V30 24 2 24 25
M  V30 25 1 11 6
M  V30 26 1 19 14
M  V30 27 1 25 20
M  V30 28 1 19 9
M  V30 29 1 1 26
M  V30 30 1 1 27
M  V30 31 1 2 28 CFG=3
M  V30 32 1 5 29
M  V30 33 1 7 30
M  V30 34 1 8 31
M  V30 35 1 11 32
M  V30 36 1 13 33
M  V30 37 1 13 34
M  V30 38 1 15 35
M  V30 39 1 17 36
M  V30 40 1 18 37
M  V30 41 1 21 38
M  V30 42 1 22 39
M  V30 43 1 23 40
M  V30 44 1 24 41
M  V30 45 1 25 42
M  V30 END BOND
M  V30 END CTAB
M  END
>  <Dataset>  (585) 
ChEMBL_Kinases

>  <Ligand_Instance>  (585) 
nan

>  <PDB_ID>  (585) 
nan

>  <Standardized_SMILES>  (585) 
N[C@@H](C(=O)Nc1ccc2c(c1)OCc1cnccc1-2)c1ccccc1

>  <Name>  (585) 
nan

>  <Pocket>  (585) 
nan

>  <ATP_Site>  (585) 
nan

>  <Peripheral>  (585) 
nan

>  <Num_H_Atoms_ProtBoundConf>  (585) 
nan

>  <Num_Resolved_Atoms>  (585) 
nan

>  <Num_Not_Resolved_Atoms>  (585) 
nan

$$$$
CHEMBL4748823
     RDKit          3D

  0  0  0  0  0  0  0  0  0  0999 V3000
M  V30 BEGIN CTAB
M  V30 COUNTS 49 53 0 0 0
M  V30 BEGIN ATOM
M  V30 1 C 0.475636 -0.805002 5.441099 0
M  V30 2 C 0.758823 -1.642949 4.244970 0
M  V30 3 C 1.076782 -2.992388 4.286737 0
M  V30 4 C 1.330485 -3.729382 3.146491 0
M  V30 5 C 1.259002 -3.072658 1.910926 0
M  V30 6 C 0.941221 -1.731083 1.889003 0
M  V30 7 C 0.878737 -1.122084 0.564859 0
M  V30 8 N 1.664939 -0.142566 0.091094 0
M  V30 9 C 1.328788 0.178898 -1.165074 0
M  V30 10 C 1.744638 1.124634 -2.232498 0
M  V30 11 N 0.984155 2.351913 -2.215998 0
M  V30 12 C 0.947827 3.391192 -1.261146 0
M  V30 13 C 1.707690 3.435053 -0.112641 0
M  V30 14 C 1.678088 4.436426 0.830786 0
M  V30 15 C 0.821648 5.497553 0.629705 0
M  V30 16 C 0.043963 5.493273 -0.506167 0
M  V30 17 C 0.105673 4.470021 -1.424047 0
M  V30 18 N 0.283357 -0.641495 -1.485550 0
M  V30 19 C -0.005849 -1.440945 -0.446361 0
M  V30 20 C -1.012504 -2.482728 -0.271745 0
M  V30 21 C -1.950786 -2.276320 0.745710 0
M  V30 22 C -2.961372 -3.167244 1.037750 0
M  V30 23 C -3.077564 -4.321794 0.311777 0
M  V30 24 N -3.899483 -5.395937 0.297913 0
M  V30 25 N -3.559859 -6.260133 -0.640133 0
M  V30 26 C -2.473603 -5.764165 -1.288137 0
M  V30 27 C -2.164224 -4.542851 -0.693167 0
M  V30 28 C -1.158958 -3.651059 -0.979712 0
M  V30 29 N 0.699787 -1.044093 3.028663 0
M  V30 30 H 1.192681 -0.001495 5.611251 0
M  V30 31 H -0.501657 -0.290788 5.193868 0
M  V30 32 H 0.251027 -1.409222 6.338801 0
M  V30 33 H 1.109356 -3.424026 5.292284 0
M  V30 34 H 1.574635 -4.790306 3.264065 0
M  V30 35 H 1.467015 -3.695472 1.044895 0
M  V30 36 H 2.438825 0.348092 0.541144 0
M  V30 37 H 2.814382 1.374114 -1.987812 0
M  V30 38 H 1.700408 0.673387 -3.235523 0
M  V30 39 H 0.346371 2.496480 -3.059841 0
M  V30 40 H 2.395631 2.642234 0.092753 0
M  V30 41 H 2.308829 4.405214 1.716994 0
M  V30 42 H 0.791068 6.287311 1.362713 0
M  V30 43 H -0.628302 6.323595 -0.665285 0
M  V30 44 H -0.555558 4.558690 -2.298429 0
M  V30 45 H -1.896495 -1.369368 1.351551 0
M  V30 46 H -3.659414 -2.973252 1.824475 0
M  V30 47 H -4.676787 -5.422053 0.998194 0
M  V30 48 H -1.926665 -6.201556 -2.110101 0
M  V30 49 H -0.419489 -3.791116 -1.765502 0
M  V30 END ATOM
M  V30 BEGIN BOND
M  V30 1 1 1 2
M  V30 2 2 2 3
M  V30 3 1 3 4
M  V30 4 2 4 5
M  V30 5 1 5 6
M  V30 6 1 6 7
M  V30 7 1 7 8
M  V30 8 1 8 9
M  V30 9 1 9 10
M  V30 10 1 10 11
M  V30 11 1 11 12
M  V30 12 2 12 13
M  V30 13 1 13 14
M  V30 14 2 14 15
M  V30 15 1 15 16
M  V30 16 2 16 17
M  V30 17 2 9 18
M  V30 18 1 18 19
M  V30 19 1 19 20
M  V30 20 2 20 21
M  V30 21 1 21 22
M  V30 22 2 22 23
M  V30 23 1 23 24
M  V30 24 1 24 25
M  V30 25 2 25 26
M  V30 26 1 26 27
M  V30 27 2 27 28
M  V30 28 2 6 29
M  V30 29 1 29 2
M  V30 30 2 19 7
M  V30 31 1 28 20
M  V30 32 1 17 12
M  V30 33 1 27 23
M  V30 34 1 1 30
M  V30 35 1 1 31
M  V30 36 1 1 32
M  V30 37 1 3 33
M  V30 38 1 4 34
M  V30 39 1 5 35
M  V30 40 1 8 36
M  V30 41 1 10 37
M  V30 42 1 10 38
M  V30 43 1 11 39
M  V30 44 1 13 40
M  V30 45 1 14 41
M  V30 46 1 15 42
M  V30 47 1 16 43
M  V30 48 1 17 44
M  V30 49 1 21 45
M  V30 50 1 22 46
M  V30 51 1 24 47
M  V30 52 1 26 48
M  V30 53 1 28 49
M  V30 END BOND
M  V30 END CTAB
M  END
>  <Dataset>  (586) 
ChEMBL_Kinases

>  <Ligand_Instance>  (586) 
nan

>  <PDB_ID>  (586) 
nan

>  <Standardized_SMILES>  (586) 
Cc1cccc(-c2[nH]c(CNc3ccccc3)nc2-c2ccc3[nH]ncc3c2)n1

>  <Name>  (586) 
nan

>  <Pocket>  (586) 
nan

>  <ATP_Site>  (586) 
nan

>  <Peripheral>  (586) 
nan

>  <Num_H_Atoms_ProtBoundConf>  (586) 
nan

>  <Num_Resolved_Atoms>  (586) 
nan

>  <Num_Not_Resolved_Atoms>  (586) 
nan

$$$$
CHEMBL4748957
     RDKit          3D

  0  0  0  0  0  0  0  0  0  0999 V3000
M  V30 BEGIN CTAB
M  V30 COUNTS 40 43 0 0 0
M  V30 BEGIN ATOM
M  V30 1 O 0.534275 -3.048819 0.430950 0
M  V30 2 C 0.065677 -2.002172 -0.124500 0
M  V30 3 N 0.030376 -2.048945 -1.541967 0
M  V30 4 C 0.447374 -3.105549 -2.427775 0
M  V30 5 C 1.930147 -3.141369 -2.552387 0
M  V30 6 C 2.776013 -3.887990 -1.767991 0
M  V30 7 C 4.144024 -3.907354 -1.894705 0
M  V30 8 C 4.738470 -3.139162 -2.862107 0
M  V30 9 C 3.940316 -2.368961 -3.679776 0
M  V30 10 C 2.551967 -2.366217 -3.531116 0
M  V30 11 C -0.392476 -0.858658 0.653566 0
M  V30 12 C -0.912240 0.322355 0.160949 0
M  V30 13 C -1.314083 1.333718 1.012201 0
M  V30 14 C -1.207509 1.192417 2.374972 0
M  V30 15 C -0.694023 0.029713 2.908880 0
M  V30 16 C -0.300651 -0.963712 2.037048 0
M  V30 17 O -0.576291 -0.137194 4.275041 0
M  V30 18 C -0.953551 0.823132 5.222613 0
M  V30 19 C -1.498585 2.055016 4.615881 0
M  V30 20 C -1.888676 3.041431 5.499083 0
M  V30 21 N -2.395603 4.190557 4.987789 0
M  V30 22 C -2.524709 4.386786 3.655318 0
M  V30 23 C -2.148326 3.428646 2.723703 0
M  V30 24 C -1.635263 2.267332 3.258897 0
M  V30 25 H -0.353697 -1.191867 -2.008514 0
M  V30 26 H 0.107971 -4.087773 -1.979730 0
M  V30 27 H -0.064526 -3.030777 -3.409945 0
M  V30 28 H 2.346162 -4.507945 -0.997413 0
M  V30 29 H 4.735038 -4.538679 -1.217683 0
M  V30 30 H 5.820297 -3.185753 -2.925390 0
M  V30 31 H 4.435844 -1.772711 -4.433981 0
M  V30 32 H 1.981401 -1.743248 -4.200674 0
M  V30 33 H -0.979497 0.394240 -0.915647 0
M  V30 34 H -1.690586 2.177199 0.506477 0
M  V30 35 H 0.092350 -1.849710 2.479327 0
M  V30 36 H -1.761907 0.372013 5.841096 0
M  V30 37 H -0.145006 1.072056 5.937999 0
M  V30 38 H -1.827363 2.983529 6.580623 0
M  V30 39 H -2.938593 5.331669 3.318893 0
M  V30 40 H -2.271063 3.634313 1.695823 0
M  V30 END ATOM
M  V30 BEGIN BOND
M  V30 1 2 1 2
M  V30 2 1 2 3
M  V30 3 1 3 4
M  V30 4 1 4 5
M  V30 5 2 5 6
M  V30 6 1 6 7
M  V30 7 2 7 8
M  V30 8 1 8 9
M  V30 9 2 9 10
M  V30 10 1 2 11
M  V30 11 2 11 12
M  V30 12 1 12 13
M  V30 13 2 13 14
M  V30 14 1 14 15
M  V30 15 2 15 16
M  V30 16 1 15 17
M  V30 17 1 17 18
M  V30 18 1 18 19
M  V30 19 2 19 20
M  V30 20 1 20 21
M  V30 21 2 21 22
M  V30 22 1 22 23
M  V30 23 2 23 24
M  V30 24 1 10 5
M  V30 25 1 16 11
M  V30 26 1 24 19
M  V30 27 1 24 14
M  V30 28 1 3 25
M  V30 29 1 4 26
M  V30 30 1 4 27
M  V30 31 1 6 28
M  V30 32 1 7 29
M  V30 33 1 8 30
M  V30 34 1 9 31
M  V30 35 1 10 32
M  V30 36 1 12 33
M  V30 37 1 13 34
M  V30 38 1 16 35
M  V30 39 1 18 36
M  V30 40 1 18 37
M  V30 41 1 20 38
M  V30 42 1 22 39
M  V30 43 1 23 40
M  V30 END BOND
M  V30 END CTAB
M  END
>  <Dataset>  (587) 
ChEMBL_Kinases

>  <Ligand_Instance>  (587) 
nan

>  <PDB_ID>  (587) 
nan

>  <Standardized_SMILES>  (587) 
O=C(NCc1ccccc1)c1ccc2c(c1)OCc1cnccc1-2

>  <Name>  (587) 
nan

>  <Pocket>  (587) 
nan

>  <ATP_Site>  (587) 
nan

>  <Peripheral>  (587) 
nan

>  <Num_H_Atoms_ProtBoundConf>  (587) 
nan

>  <Num_Resolved_Atoms>  (587) 
nan

>  <Num_Not_Resolved_Atoms>  (587) 
nan

$$$$
CHEMBL4749267
     RDKit          3D

  0  0  0  0  0  0  0  0  0  0999 V3000
M  V30 BEGIN CTAB
M  V30 COUNTS 54 58 0 0 0
M  V30 BEGIN ATOM
M  V30 1 C 1.949639 -0.904732 -3.779153 0
M  V30 2 O 3.299855 -1.108575 -3.427408 0
M  V30 3 C 3.790350 -0.526238 -2.270938 0
M  V30 4 C 5.130664 -0.778167 -1.999393 0
M  V30 5 C 5.721379 -0.235286 -0.854952 0
M  V30 6 C 4.989017 0.550666 0.012632 0
M  V30 7 C 3.639950 0.805573 -0.258586 0
M  V30 8 C 2.794361 1.654034 0.650935 0 CFG=1
M  V30 9 C 2.668122 3.039046 0.055700 0
M  V30 10 N 1.543568 0.987304 0.833851 0
M  V30 11 C 1.074188 0.484633 2.076553 0
M  V30 12 O 1.848184 0.665183 3.042068 0
M  V30 13 C -0.195053 -0.201232 2.305715 0
M  V30 14 C -0.453904 -0.608769 3.601215 0
M  V30 15 C -1.641783 -1.260545 3.865368 0
M  V30 16 C -2.524405 -1.481192 2.831759 0
M  V30 17 C -2.365038 -1.117805 1.502045 0
M  V30 18 C -1.136155 -0.464582 1.331737 0
M  V30 19 C -3.246282 -1.351872 0.387596 0
M  V30 20 C -2.774414 -1.871878 -0.910446 0
M  V30 21 C -1.849805 -1.284003 -1.871066 0
M  V30 22 C -1.378678 -2.421285 -1.093579 0
M  V30 23 O -4.450799 -1.925848 0.829776 0
M  V30 24 C -4.644334 -2.305040 2.128884 0
M  V30 25 C -5.876375 -2.922234 2.336688 0
M  V30 26 N -6.234847 -3.363191 3.571399 0
M  V30 27 C -5.389296 -3.201450 4.605066 0
M  V30 28 C -4.160354 -2.592353 4.426889 0
M  V30 29 C -3.777922 -2.138872 3.185627 0
M  V30 30 C 3.066644 0.264000 -1.392326 0
M  V30 31 H 1.837701 0.089432 -4.260266 0
M  V30 32 H 1.600593 -1.663772 -4.528692 0
M  V30 33 H 1.320014 -1.055834 -2.892356 0
M  V30 34 H 5.766129 -1.392624 -2.646364 0
M  V30 35 H 6.766560 -0.439521 -0.655370 0
M  V30 36 H 5.432482 0.988259 0.918761 0
M  V30 37 H 3.382823 1.745632 1.594095 0
M  V30 38 H 1.773458 3.124949 -0.613454 0
M  V30 39 H 3.608933 3.203961 -0.539131 0
M  V30 40 H 2.649767 3.777813 0.879324 0
M  V30 41 H 0.939044 0.863939 -0.002846 0
M  V30 42 H 0.240552 -0.432888 4.403441 0
M  V30 43 H -1.806559 -1.557178 4.864188 0
M  V30 44 H -0.799443 -0.086336 0.379044 0
M  V30 45 H -3.593070 -0.289114 0.117927 0
M  V30 46 H -3.520721 -2.598033 -1.361186 0
M  V30 47 H -1.456132 -0.246908 -1.836036 0
M  V30 48 H -2.048962 -1.476780 -2.982968 0
M  V30 49 H -0.653350 -2.384763 -0.257776 0
M  V30 50 H -1.200255 -3.370919 -1.645686 0
M  V30 51 H -6.642029 -3.109635 1.584452 0
M  V30 52 H -5.666794 -3.551093 5.598533 0
M  V30 53 H -3.490693 -2.462423 5.236028 0
M  V30 54 H 2.034437 0.415093 -1.668617 0
M  V30 END ATOM
M  V30 BEGIN BOND
M  V30 1 1 1 2
M  V30 2 1 2 3
M  V30 3 2 3 4
M  V30 4 1 4 5
M  V30 5 2 5 6
M  V30 6 1 6 7
M  V30 7 1 7 8
M  V30 8 1 8 9
M  V30 9 1 8 10
M  V30 10 1 10 11
M  V30 11 2 11 12
M  V30 12 1 11 13
M  V30 13 2 13 14
M  V30 14 1 14 15
M  V30 15 2 15 16
M  V30 16 1 16 17
M  V30 17 2 17 18
M  V30 18 1 17 19
M  V30 19 1 19 20
M  V30 20 1 20 21
M  V30 21 1 21 22
M  V30 22 1 19 23
M  V30 23 1 23 24
M  V30 24 2 24 25
M  V30 25 1 25 26
M  V30 26 2 26 27
M  V30 27 1 27 28
M  V30 28 2 28 29
M  V30 29 2 7 30
M  V30 30 1 30 3
M  V30 31 1 18 13
M  V30 32 1 22 20
M  V30 33 1 29 24
M  V30 34 1 29 16
M  V30 35 1 1 31
M  V30 36 1 1 32
M  V30 37 1 1 33
M  V30 38 1 4 34
M  V30 39 1 5 35
M  V30 40 1 6 36
M  V30 41 1 8 37 CFG=1
M  V30 42 1 9 38
M  V30 43 1 9 39
M  V30 44 1 9 40
M  V30 45 1 10 41
M  V30 46 1 14 42
M  V30 47 1 15 43
M  V30 48 1 18 44
M  V30 49 1 19 45
M  V30 50 1 20 46
M  V30 51 1 21 47
M  V30 52 1 21 48
M  V30 53 1 22 49
M  V30 54 1 22 50
M  V30 55 1 25 51
M  V30 56 1 27 52
M  V30 57 1 28 53
M  V30 58 1 30 54
M  V30 END BOND
M  V30 END CTAB
M  END
>  <Dataset>  (588) 
ChEMBL_Kinases

>  <Ligand_Instance>  (588) 
nan

>  <PDB_ID>  (588) 
nan

>  <Standardized_SMILES>  (588) 
COc1cccc([C@@H](C)NC(=O)c2ccc3c(c2)C(C2CC2)Oc2cnccc2-3)c1

>  <Name>  (588) 
nan

>  <Pocket>  (588) 
nan

>  <ATP_Site>  (588) 
nan

>  <Peripheral>  (588) 
nan

>  <Num_H_Atoms_ProtBoundConf>  (588) 
nan

>  <Num_Resolved_Atoms>  (588) 
nan

>  <Num_Not_Resolved_Atoms>  (588) 
nan

$$$$
CHEMBL4749353
     RDKit          3D

  0  0  0  0  0  0  0  0  0  0999 V3000
M  V30 BEGIN CTAB
M  V30 COUNTS 56 60 0 0 0
M  V30 BEGIN ATOM
M  V30 1 C 2.592193 -0.149854 5.079488 0
M  V30 2 N 3.975866 -0.526662 5.026710 0
M  V30 3 C 4.818388 0.552635 4.594327 0
M  V30 4 C 4.972319 -0.063808 3.260205 0
M  V30 5 N 4.126055 0.419356 2.196531 0
M  V30 6 C 4.532626 0.526506 0.835903 0
M  V30 7 O 5.711622 0.166147 0.582043 0
M  V30 8 C 3.692835 1.013049 -0.246563 0
M  V30 9 C 4.248585 1.011491 -1.509308 0
M  V30 10 C 3.481804 1.470230 -2.570069 0
M  V30 11 C 2.196409 1.903822 -2.289592 0
M  V30 12 C 1.607483 1.917223 -1.023693 0
M  V30 13 C 0.222231 2.419176 -0.909504 0
M  V30 14 N -0.789370 1.402111 -1.077588 0
M  V30 15 C -1.164971 0.433841 -0.112573 0
M  V30 16 O -0.574563 0.446665 0.997391 0
M  V30 17 C -2.190896 -0.581850 -0.312782 0
M  V30 18 C -2.424928 -1.461390 0.724779 0
M  V30 19 C -3.400312 -2.456670 0.585458 0
M  V30 20 C -4.107883 -2.538844 -0.585616 0
M  V30 21 C -3.905023 -1.678846 -1.647959 0
M  V30 22 C -2.931109 -0.706934 -1.472200 0
M  V30 23 C -4.650333 -1.733717 -2.932669 0
M  V30 24 O -5.588193 -2.759943 -2.945560 0
M  V30 25 C -5.864153 -3.661494 -1.949107 0
M  V30 26 C -6.819524 -4.627164 -2.099368 0
M  V30 27 N -7.055746 -5.491075 -1.093874 0
M  V30 28 C -6.371012 -5.430849 0.067895 0
M  V30 29 C -5.403705 -4.452781 0.219278 0
M  V30 30 C -5.133734 -3.551084 -0.786808 0
M  V30 31 C 2.410928 1.448718 0.014003 0
M  V30 32 C 4.339444 -1.316327 3.868482 0
M  V30 33 H 2.178471 -0.542383 6.039955 0
M  V30 34 H 2.053424 -0.622237 4.227137 0
M  V30 35 H 2.426661 0.946533 5.089594 0
M  V30 36 H 5.791151 0.530547 5.146337 0
M  V30 37 H 4.370189 1.563306 4.642668 0
M  V30 38 H 5.987246 -0.308342 2.890442 0
M  V30 39 H 3.165220 0.703943 2.448326 0
M  V30 40 H 5.246186 0.677386 -1.742161 0
M  V30 41 H 3.853075 1.497714 -3.586315 0
M  V30 42 H 1.615905 2.258814 -3.138031 0
M  V30 43 H 0.090552 3.200054 -1.687689 0
M  V30 44 H 0.095263 2.967943 0.059807 0
M  V30 45 H -1.307012 1.352357 -1.983901 0
M  V30 46 H -1.877411 -1.421198 1.669379 0
M  V30 47 H -3.542229 -3.112485 1.420053 0
M  V30 48 H -2.758762 -0.028299 -2.289275 0
M  V30 49 H -3.876583 -1.987070 -3.713609 0
M  V30 50 H -5.124309 -0.748150 -3.169559 0
M  V30 51 H -7.339279 -4.637613 -3.040743 0
M  V30 52 H -6.650308 -6.168365 0.782255 0
M  V30 53 H -4.914888 -4.488341 1.178265 0
M  V30 54 H 1.966146 1.457154 0.994163 0
M  V30 55 H 3.522584 -1.754834 3.282901 0
M  V30 56 H 5.098884 -2.083977 4.115185 0
M  V30 END ATOM
M  V30 BEGIN BOND
M  V30 1 1 1 2
M  V30 2 1 2 3
M  V30 3 1 3 4
M  V30 4 1 4 5
M  V30 5 1 5 6
M  V30 6 2 6 7
M  V30 7 1 6 8
M  V30 8 2 8 9
M  V30 9 1 9 10
M  V30 10 2 10 11
M  V30 11 1 11 12
M  V30 12 1 12 13
M  V30 13 1 13 14
M  V30 14 1 14 15
M  V30 15 2 15 16
M  V30 16 1 15 17
M  V30 17 2 17 18
M  V30 18 1 18 19
M  V30 19 2 19 20
M  V30 20 1 20 21
M  V30 21 2 21 22
M  V30 22 1 21 23
M  V30 23 1 23 24
M  V30 24 1 24 25
M  V30 25 2 25 26
M  V30 26 1 26 27
M  V30 27 2 27 28
M  V30 28 1 28 29
M  V30 29 2 29 30
M  V30 30 2 12 31
M  V30 31 1 4 32
M  V30 32 1 32 2
M  V30 33 1 31 8
M  V30 34 1 22 17
M  V30 35 1 30 25
M  V30 36 1 30 20
M  V30 37 1 1 33
M  V30 38 1 1 34
M  V30 39 1 1 35
M  V30 40 1 3 36
M  V30 41 1 3 37
M  V30 42 1 4 38
M  V30 43 1 5 39
M  V30 44 1 9 40
M  V30 45 1 10 41
M  V30 46 1 11 42
M  V30 47 1 13 43
M  V30 48 1 13 44
M  V30 49 1 14 45
M  V30 50 1 18 46
M  V30 51 1 19 47
M  V30 52 1 22 48
M  V30 53 1 23 49
M  V30 54 1 23 50
M  V30 55 1 26 51
M  V30 56 1 28 52
M  V30 57 1 29 53
M  V30 58 1 31 54
M  V30 59 1 32 55
M  V30 60 1 32 56
M  V30 END BOND
M  V30 END CTAB
M  END
>  <Dataset>  (589) 
ChEMBL_Kinases

>  <Ligand_Instance>  (589) 
nan

>  <PDB_ID>  (589) 
nan

>  <Standardized_SMILES>  (589) 
CN1CC(NC(=O)c2cccc(CNC(=O)c3ccc4c(c3)COc3cnccc3-4)c2)C1

>  <Name>  (589) 
nan

>  <Pocket>  (589) 
nan

>  <ATP_Site>  (589) 
nan

>  <Peripheral>  (589) 
nan

>  <Num_H_Atoms_ProtBoundConf>  (589) 
nan

>  <Num_Resolved_Atoms>  (589) 
nan

>  <Num_Not_Resolved_Atoms>  (589) 
nan

$$$$
CHEMBL1956071
     RDKit          3D

  0  0  0  0  0  0  0  0  0  0999 V3000
M  V30 BEGIN CTAB
M  V30 COUNTS 43 46 0 0 0
M  V30 BEGIN ATOM
M  V30 1 C 0.017288 -3.199070 -0.075721 0
M  V30 2 C 0.850284 -1.922401 0.098290 0
M  V30 3 N 0.291378 -0.823328 -0.622097 0
M  V30 4 C 0.558160 -0.447633 -1.908315 0
M  V30 5 C 1.480831 -1.083207 -2.843100 0
M  V30 6 N 2.277560 -2.153320 -2.704594 0
M  V30 7 O 2.953223 -2.404870 -3.780648 0
M  V30 8 N 2.608681 -1.500530 -4.643982 0
M  V30 9 C 1.698588 -0.650046 -4.125547 0
M  V30 10 N 1.118325 0.452488 -4.814307 0
M  V30 11 N -0.171018 0.642535 -2.241173 0
M  V30 12 C -0.934984 1.020693 -1.201515 0
M  V30 13 C -1.857351 2.006941 -0.920582 0
M  V30 14 N -2.464718 2.089550 0.290999 0
M  V30 15 C -2.152901 1.175763 1.247829 0
M  V30 16 C -1.229534 0.172072 0.997065 0
M  V30 17 C -1.046548 -0.678110 2.165613 0
M  V30 18 O -1.839645 -1.681044 2.129328 0
M  V30 19 N -0.090997 -0.402891 3.213526 0
M  V30 20 C 0.861329 0.673821 3.394362 0
M  V30 21 C 1.009755 0.752358 4.887947 0
M  V30 22 C 0.972079 -0.702542 5.304790 0 CFG=2
M  V30 23 N 2.300507 -1.286248 5.174127 0
M  V30 24 C 0.005613 -1.325474 4.342472 0
M  V30 25 C -0.615187 0.091505 -0.234937 0
M  V30 26 H -1.058113 -2.950913 -0.178737 0
M  V30 27 H 0.335847 -3.771664 -0.971172 0
M  V30 28 H 0.236506 -3.845837 0.803649 0
M  V30 29 H 1.106511 -1.757559 1.139274 0
M  V30 30 H 1.834607 -2.202579 -0.388138 0
M  V30 31 H 1.069932 1.294946 -4.229119 0
M  V30 32 H 0.776801 0.431566 -5.793142 0
M  V30 33 H -2.023781 2.677553 -1.762147 0
M  V30 34 H -2.712100 1.365603 2.157159 0
M  V30 35 H 0.488970 1.615379 2.942003 0
M  V30 36 H 1.816863 0.333095 2.929939 0
M  V30 37 H 0.110325 1.255868 5.315308 0
M  V30 38 H 1.952477 1.245798 5.170162 0
M  V30 39 H 0.639499 -0.834534 6.348793 0
M  V30 40 H 2.422659 -1.769049 4.235239 0
M  V30 41 H 2.987276 -0.503322 5.154165 0
M  V30 42 H 0.384823 -2.314932 4.055133 0
M  V30 43 H -0.994855 -1.465811 4.830591 0
M  V30 END ATOM
M  V30 BEGIN BOND
M  V30 1 1 1 2
M  V30 2 1 2 3
M  V30 3 1 3 4
M  V30 4 1 4 5
M  V30 5 2 5 6
M  V30 6 1 6 7
M  V30 7 1 7 8
M  V30 8 2 8 9
M  V30 9 1 9 10
M  V30 10 2 4 11
M  V30 11 1 11 12
M  V30 12 2 12 13
M  V30 13 1 13 14
M  V30 14 2 14 15
M  V30 15 1 15 16
M  V30 16 1 16 17
M  V30 17 2 17 18
M  V30 18 1 17 19
M  V30 19 1 19 20
M  V30 20 1 20 21
M  V30 21 1 21 22
M  V30 22 1 22 23
M  V30 23 1 22 24
M  V30 24 2 16 25
M  V30 25 1 25 3
M  V30 26 1 9 5
M  V30 27 1 25 12
M  V30 28 1 24 19
M  V30 29 1 1 26
M  V30 30 1 1 27
M  V30 31 1 1 28
M  V30 32 1 2 29
M  V30 33 1 2 30
M  V30 34 1 10 31
M  V30 35 1 10 32
M  V30 36 1 13 33
M  V30 37 1 15 34
M  V30 38 1 20 35
M  V30 39 1 20 36
M  V30 40 1 21 37
M  V30 41 1 21 38
M  V30 42 1 22 39 CFG=1
M  V30 43 1 23 40
M  V30 44 1 23 41
M  V30 45 1 24 42
M  V30 46 1 24 43
M  V30 END BOND
M  V30 END CTAB
M  END
>  <Dataset>  (590) 
ChEMBL_Kinases

>  <Ligand_Instance>  (590) 
nan

>  <PDB_ID>  (590) 
nan

>  <Standardized_SMILES>  (590) 
CCn1c(-c2nonc2N)nc2cncc(C(=O)N3CC[C@H](N)C3)c21

>  <Name>  (590) 
nan

>  <Pocket>  (590) 
nan

>  <ATP_Site>  (590) 
nan

>  <Peripheral>  (590) 
nan

>  <Num_H_Atoms_ProtBoundConf>  (590) 
nan

>  <Num_Resolved_Atoms>  (590) 
nan

>  <Num_Not_Resolved_Atoms>  (590) 
nan

$$$$
CHEMBL4749551
     RDKit          3D

  0  0  0  0  0  0  0  0  0  0999 V3000
M  V30 BEGIN CTAB
M  V30 COUNTS 47 50 0 0 0
M  V30 BEGIN ATOM
M  V30 1 C 2.709716 -2.713943 -1.365146 0
M  V30 2 C 2.857278 -1.358976 -0.750357 0
M  V30 3 C 2.000071 -0.398595 -1.546274 0
M  V30 4 N 4.230249 -0.897420 -0.755781 0
M  V30 5 C 5.239637 -1.496304 -1.406299 0
M  V30 6 N 6.328283 -0.749364 -1.148074 0
M  V30 7 N 5.993893 0.278212 -0.361177 0
M  V30 8 C 4.659300 0.196977 -0.102712 0
M  V30 9 C 3.814515 1.077874 0.703365 0
M  V30 10 C 3.940191 2.450289 0.616603 0
M  V30 11 C 3.140458 3.282545 1.379652 0
M  V30 12 C 2.201381 2.741920 2.242184 0
M  V30 13 C 2.093135 1.358295 2.312469 0
M  V30 14 N 1.203240 0.592715 3.124254 0
M  V30 15 C -0.072377 0.239881 2.615022 0
M  V30 16 O -0.363902 0.614210 1.476485 0
M  V30 17 N -1.055615 -0.510608 3.297604 0
M  V30 18 C -2.344062 -0.912571 2.885627 0
M  V30 19 C -2.974445 -0.666995 1.690487 0
M  V30 20 C -4.245039 -1.110653 1.390395 0
M  V30 21 C -4.786341 -0.801756 0.143904 0
M  V30 22 C -6.077243 -1.278211 -0.103235 0
M  V30 23 C -6.798402 -2.014281 0.814423 0
M  V30 24 C -6.194327 -2.279382 2.026588 0
M  V30 25 C -4.933009 -1.833014 2.311128 0
M  V30 26 C -4.302015 -2.076878 3.503054 0
M  V30 27 N -3.080305 -1.633747 3.754433 0
M  V30 28 N 2.901726 0.605257 1.542917 0
M  V30 29 H 1.789742 -3.169867 -0.933363 0
M  V30 30 H 3.564352 -3.377295 -1.177834 0
M  V30 31 H 2.524234 -2.606725 -2.453121 0
M  V30 32 H 2.524293 -1.395973 0.310042 0
M  V30 33 H 2.376632 0.617884 -1.338045 0
M  V30 34 H 0.920945 -0.530319 -1.327940 0
M  V30 35 H 2.154089 -0.597434 -2.615215 0
M  V30 36 H 5.171295 -2.405790 -2.016929 0
M  V30 37 H 4.658124 2.921973 -0.041519 0
M  V30 38 H 3.183325 4.364379 1.363593 0
M  V30 39 H 1.512101 3.266299 2.895593 0
M  V30 40 H 1.441967 0.270556 4.091696 0
M  V30 41 H -0.701451 -0.769410 4.240532 0
M  V30 42 H -2.458039 -0.105864 0.956881 0
M  V30 43 H -4.258632 -0.229472 -0.603215 0
M  V30 44 H -6.528113 -1.050810 -1.074331 0
M  V30 45 H -7.793904 -2.350396 0.553492 0
M  V30 46 H -6.749034 -2.847291 2.736337 0
M  V30 47 H -4.827828 -2.654191 4.263404 0
M  V30 END ATOM
M  V30 BEGIN BOND
M  V30 1 1 1 2
M  V30 2 1 2 3
M  V30 3 1 2 4
M  V30 4 1 4 5
M  V30 5 2 5 6
M  V30 6 1 6 7
M  V30 7 2 7 8
M  V30 8 1 8 9
M  V30 9 2 9 10
M  V30 10 1 10 11
M  V30 11 2 11 12
M  V30 12 1 12 13
M  V30 13 1 13 14
M  V30 14 1 14 15
M  V30 15 2 15 16
M  V30 16 1 15 17
M  V30 17 1 17 18
M  V30 18 2 18 19
M  V30 19 1 19 20
M  V30 20 2 20 21
M  V30 21 1 21 22
M  V30 22 2 22 23
M  V30 23 1 23 24
M  V30 24 2 24 25
M  V30 25 1 25 26
M  V30 26 2 26 27
M  V30 27 2 13 28
M  V30 28 1 8 4
M  V30 29 1 28 9
M  V30 30 1 27 18
M  V30 31 1 25 20
M  V30 32 1 1 29
M  V30 33 1 1 30
M  V30 34 1 1 31
M  V30 35 1 2 32
M  V30 36 1 3 33
M  V30 37 1 3 34
M  V30 38 1 3 35
M  V30 39 1 5 36
M  V30 40 1 10 37
M  V30 41 1 11 38
M  V30 42 1 12 39
M  V30 43 1 14 40
M  V30 44 1 17 41
M  V30 45 1 19 42
M  V30 46 1 21 43
M  V30 47 1 22 44
M  V30 48 1 23 45
M  V30 49 1 24 46
M  V30 50 1 26 47
M  V30 END BOND
M  V30 END CTAB
M  END
>  <Dataset>  (591) 
ChEMBL_Kinases

>  <Ligand_Instance>  (591) 
nan

>  <PDB_ID>  (591) 
nan

>  <Standardized_SMILES>  (591) 
CC(C)n1cnnc1-c1cccc(NC(=O)Nc2cc3ccccc3cn2)n1

>  <Name>  (591) 
nan

>  <Pocket>  (591) 
nan

>  <ATP_Site>  (591) 
nan

>  <Peripheral>  (591) 
nan

>  <Num_H_Atoms_ProtBoundConf>  (591) 
nan

>  <Num_Resolved_Atoms>  (591) 
nan

>  <Num_Not_Resolved_Atoms>  (591) 
nan

$$$$
CHEMBL4747557
     RDKit          3D

  0  0  0  0  0  0  0  0  0  0999 V3000
M  V30 BEGIN CTAB
M  V30 COUNTS 52 56 0 0 0
M  V30 BEGIN ATOM
M  V30 1 C 1.313994 -2.190695 5.089513 0
M  V30 2 C 1.731148 -2.462171 3.688864 0
M  V30 3 C 2.556024 -3.537186 3.445304 0
M  V30 4 C 3.001554 -3.873950 2.174565 0
M  V30 5 C 2.607686 -3.100827 1.077275 0
M  V30 6 C 1.781637 -2.034098 1.367495 0
M  V30 7 C 1.282171 -1.128767 0.336544 0
M  V30 8 N 1.577135 0.183160 0.318211 0
M  V30 9 C 0.993253 0.784923 -0.730070 0
M  V30 10 C 0.851758 2.116799 -1.370133 0
M  V30 11 N -0.327346 2.823738 -0.922611 0
M  V30 12 C -0.753350 3.357683 0.301459 0
M  V30 13 C 0.044773 3.269479 1.426714 0
M  V30 14 C -0.285284 3.765945 2.658896 0
M  V30 15 C -1.501094 4.403620 2.800977 0
M  V30 16 C -2.302230 4.497218 1.689689 0
M  V30 17 C -1.988660 4.005186 0.443830 0
M  V30 18 C -2.908262 4.148027 -0.702311 0
M  V30 19 N 0.319115 -0.200426 -1.371257 0
M  V30 20 C 0.471737 -1.382462 -0.749777 0
M  V30 21 C -0.074444 -2.688876 -1.097934 0
M  V30 22 C 0.286608 -3.220081 -2.314888 0
M  V30 23 C -0.190848 -4.445195 -2.704973 0
M  V30 24 C -1.039036 -5.174867 -1.897709 0
M  V30 25 N -1.659385 -6.362761 -1.985634 0
M  V30 26 N -2.354008 -6.533224 -0.881388 0
M  V30 27 C -2.209027 -5.482329 -0.058430 0
M  V30 28 C -1.370530 -4.585982 -0.674981 0
M  V30 29 C -0.910279 -3.356262 -0.248154 0
M  V30 30 N 1.359588 -1.727785 2.629933 0
M  V30 31 H 0.622491 -1.300507 5.116202 0
M  V30 32 H 0.773959 -3.045897 5.548553 0
M  V30 33 H 2.163976 -1.900178 5.723679 0
M  V30 34 H 2.878913 -4.154228 4.266475 0
M  V30 35 H 3.649325 -4.710836 1.949976 0
M  V30 36 H 2.890661 -3.267216 0.046246 0
M  V30 37 H 2.151564 0.798787 0.931848 0
M  V30 38 H 0.965548 2.098008 -2.450271 0
M  V30 39 H 1.719485 2.726848 -0.949825 0
M  V30 40 H -1.017881 2.955346 -1.723326 0
M  V30 41 H 1.018374 2.797898 1.433177 0
M  V30 42 H 0.321017 3.706418 3.542100 0
M  V30 43 H -1.863525 4.831661 3.722364 0
M  V30 44 H -3.279323 4.996539 1.754930 0
M  V30 45 H -2.398816 4.433534 -1.624829 0
M  V30 46 H -3.695365 4.892402 -0.402533 0
M  V30 47 H -3.489282 3.184234 -0.778770 0
M  V30 48 H 0.958101 -2.676697 -2.989036 0
M  V30 49 H 0.071763 -4.894262 -3.655350 0
M  V30 50 H -1.532676 -6.957731 -2.836434 0
M  V30 51 H -2.654798 -5.335847 0.916352 0
M  V30 52 H -1.193568 -2.942655 0.703144 0
M  V30 END ATOM
M  V30 BEGIN BOND
M  V30 1 1 1 2
M  V30 2 2 2 3
M  V30 3 1 3 4
M  V30 4 2 4 5
M  V30 5 1 5 6
M  V30 6 1 6 7
M  V30 7 1 7 8
M  V30 8 1 8 9
M  V30 9 1 9 10
M  V30 10 1 10 11
M  V30 11 1 11 12
M  V30 12 2 12 13
M  V30 13 1 13 14
M  V30 14 2 14 15
M  V30 15 1 15 16
M  V30 16 2 16 17
M  V30 17 1 17 18
M  V30 18 2 9 19
M  V30 19 1 19 20
M  V30 20 1 20 21
M  V30 21 2 21 22
M  V30 22 1 22 23
M  V30 23 2 23 24
M  V30 24 1 24 25
M  V30 25 1 25 26
M  V30 26 2 26 27
M  V30 27 1 27 28
M  V30 28 2 28 29
M  V30 29 2 6 30
M  V30 30 1 30 2
M  V30 31 2 20 7
M  V30 32 1 29 21
M  V30 33 1 17 12
M  V30 34 1 28 24
M  V30 35 1 1 31
M  V30 36 1 1 32
M  V30 37 1 1 33
M  V30 38 1 3 34
M  V30 39 1 4 35
M  V30 40 1 5 36
M  V30 41 1 8 37
M  V30 42 1 10 38
M  V30 43 1 10 39
M  V30 44 1 11 40
M  V30 45 1 13 41
M  V30 46 1 14 42
M  V30 47 1 15 43
M  V30 48 1 16 44
M  V30 49 1 18 45
M  V30 50 1 18 46
M  V30 51 1 18 47
M  V30 52 1 22 48
M  V30 53 1 23 49
M  V30 54 1 25 50
M  V30 55 1 27 51
M  V30 56 1 29 52
M  V30 END BOND
M  V30 END CTAB
M  END
>  <Dataset>  (592) 
ChEMBL_Kinases

>  <Ligand_Instance>  (592) 
nan

>  <PDB_ID>  (592) 
nan

>  <Standardized_SMILES>  (592) 
Cc1cccc(-c2[nH]c(CNc3ccccc3C)nc2-c2ccc3[nH]ncc3c2)n1

>  <Name>  (592) 
nan

>  <Pocket>  (592) 
nan

>  <ATP_Site>  (592) 
nan

>  <Peripheral>  (592) 
nan

>  <Num_H_Atoms_ProtBoundConf>  (592) 
nan

>  <Num_Resolved_Atoms>  (592) 
nan

>  <Num_Not_Resolved_Atoms>  (592) 
nan

$$$$
CHEMBL4749658
     RDKit          3D

  0  0  0  0  0  0  0  0  0  0999 V3000
M  V30 BEGIN CTAB
M  V30 COUNTS 44 46 0 0 0
M  V30 BEGIN ATOM
M  V30 1 C -4.655801 -4.508254 -0.841916 0
M  V30 2 O -3.416069 -5.007431 -1.332692 0
M  V30 3 C -2.314935 -4.155092 -1.317714 0
M  V30 4 C -1.104354 -4.630355 -1.792648 0
M  V30 5 C 0.047732 -3.851773 -1.816333 0
M  V30 6 C -0.086638 -2.565121 -1.334270 0
M  V30 7 C 1.033562 -1.739037 -1.333181 0
M  V30 8 C 0.891688 -0.452512 -0.849143 0
M  V30 9 C 2.114826 0.416528 -0.859109 0
M  V30 10 C 1.900575 1.661145 -1.676130 0
M  V30 11 C 2.331701 0.777938 0.583585 0
M  V30 12 O 1.395912 0.206362 1.239911 0
M  V30 13 N 3.304849 1.563122 1.229884 0
M  V30 14 C 2.967896 1.525138 2.633655 0
M  V30 15 C 2.115672 2.507250 3.083649 0
M  V30 16 C 1.765762 2.504155 4.436271 0
M  V30 17 C 0.852649 3.514202 5.039090 0
M  V30 18 C 2.319395 1.498571 5.200530 0
M  V30 19 C 3.173890 0.511034 4.757456 0
M  V30 20 N 3.470570 0.566207 3.459458 0
M  V30 21 C -0.296431 0.062394 -0.366161 0
M  V30 22 C -1.391677 -0.776808 -0.378203 0
M  V30 23 C -1.264194 -2.066800 -0.859762 0
M  V30 24 C -2.410362 -2.853857 -0.840541 0
M  V30 25 H -4.459417 -4.059611 0.172593 0
M  V30 26 H -5.374097 -5.338886 -0.656395 0
M  V30 27 H -5.108330 -3.772993 -1.544866 0
M  V30 28 H -1.037379 -5.651509 -2.165030 0
M  V30 29 H 0.978183 -4.253950 -2.194196 0
M  V30 30 H 2.004715 -2.087743 -1.702805 0
M  V30 31 H 2.959209 -0.141647 -1.268014 0
M  V30 32 H 1.830207 1.362982 -2.741737 0
M  V30 33 H 2.833548 2.253621 -1.588030 0
M  V30 34 H 1.001370 2.228088 -1.360835 0
M  V30 35 H 3.980299 1.940919 0.515449 0
M  V30 36 H 1.687738 3.288298 2.482217 0
M  V30 37 H -0.181023 3.140387 5.150424 0
M  V30 38 H 1.229812 3.844673 6.050263 0
M  V30 39 H 0.816220 4.435813 4.432041 0
M  V30 40 H 2.037448 1.504963 6.265145 0
M  V30 41 H 3.561918 -0.241921 5.431407 0
M  V30 42 H -0.397266 1.070851 0.010609 0
M  V30 43 H -2.364901 -0.424304 -0.006682 0
M  V30 44 H -3.346588 -2.475853 -0.469657 0
M  V30 END ATOM
M  V30 BEGIN BOND
M  V30 1 1 1 2
M  V30 2 1 2 3
M  V30 3 2 3 4
M  V30 4 1 4 5
M  V30 5 2 5 6
M  V30 6 1 6 7
M  V30 7 2 7 8
M  V30 8 1 8 9
M  V30 9 1 9 10
M  V30 10 1 9 11
M  V30 11 2 11 12
M  V30 12 1 11 13
M  V30 13 1 13 14
M  V30 14 2 14 15
M  V30 15 1 15 16
M  V30 16 1 16 17
M  V30 17 2 16 18
M  V30 18 1 18 19
M  V30 19 2 19 20
M  V30 20 1 8 21
M  V30 21 2 21 22
M  V30 22 1 22 23
M  V30 23 2 23 24
M  V30 24 1 24 3
M  V30 25 1 23 6
M  V30 26 1 20 14
M  V30 27 1 1 25
M  V30 28 1 1 26
M  V30 29 1 1 27
M  V30 30 1 4 28
M  V30 31 1 5 29
M  V30 32 1 7 30
M  V30 33 1 9 31
M  V30 34 1 10 32
M  V30 35 1 10 33
M  V30 36 1 10 34
M  V30 37 1 13 35
M  V30 38 1 15 36
M  V30 39 1 17 37
M  V30 40 1 17 38
M  V30 41 1 17 39
M  V30 42 1 18 40
M  V30 43 1 19 41
M  V30 44 1 21 42
M  V30 45 1 22 43
M  V30 46 1 24 44
M  V30 END BOND
M  V30 END CTAB
M  END
>  <Dataset>  (593) 
ChEMBL_Kinases

>  <Ligand_Instance>  (593) 
nan

>  <PDB_ID>  (593) 
nan

>  <Standardized_SMILES>  (593) 
COc1ccc2cc(C(C)C(=O)Nc3cc(C)ccn3)ccc2c1

>  <Name>  (593) 
nan

>  <Pocket>  (593) 
nan

>  <ATP_Site>  (593) 
nan

>  <Peripheral>  (593) 
nan

>  <Num_H_Atoms_ProtBoundConf>  (593) 
nan

>  <Num_Resolved_Atoms>  (593) 
nan

>  <Num_Not_Resolved_Atoms>  (593) 
nan

$$$$
CHEMBL4749675
     RDKit          3D

  0  0  0  0  0  0  0  0  0  0999 V3000
M  V30 BEGIN CTAB
M  V30 COUNTS 48 50 0 0 0
M  V30 BEGIN ATOM
M  V30 1 C -0.243263 -4.561537 1.772542 0
M  V30 2 O -1.605292 -4.297000 1.425829 0
M  V30 3 C -1.875829 -3.199637 0.619932 0
M  V30 4 C -0.875697 -2.372136 0.153720 0
M  V30 5 C -1.051762 -1.286740 -0.632636 0
M  V30 6 N -0.058033 -0.418565 -1.128184 0
M  V30 7 C 1.329194 -0.442143 -0.948379 0
M  V30 8 O 1.841568 -1.350103 -0.247768 0
M  V30 9 C 2.317860 0.490138 -1.489610 0 CFG=1
M  V30 10 N 1.761526 1.555763 -2.301533 0
M  V30 11 C 3.004345 1.177042 -0.302455 0
M  V30 12 C 2.002853 1.937969 0.552036 0
M  V30 13 C 2.657044 2.604629 1.702364 0
M  V30 14 C 3.162917 3.907070 1.634875 0
M  V30 15 C 3.757012 4.444390 2.762274 0
M  V30 16 C 3.872185 3.750752 3.951012 0
M  V30 17 C 3.377702 2.462890 4.034926 0
M  V30 18 C 2.792100 1.952390 2.900378 0
M  V30 19 C -2.358640 -1.027720 -0.968945 0
M  V30 20 C -3.398507 -1.818670 -0.533188 0
M  V30 21 C -3.179558 -2.918799 0.268615 0
M  V30 22 C -4.311551 -3.727260 0.705955 0
M  V30 23 C -4.360889 -5.117988 0.695295 0
M  V30 24 N -5.569921 -5.471681 1.173594 0
M  V30 25 N -6.275735 -4.396663 1.480917 0
M  V30 26 C -5.536484 -3.286974 1.208056 0
M  V30 27 H 0.369247 -4.816823 0.900826 0
M  V30 28 H -0.178072 -5.350646 2.546343 0
M  V30 29 H 0.202487 -3.640021 2.248535 0
M  V30 30 H 0.115641 -2.650963 0.466864 0
M  V30 31 H -0.318414 0.398272 -1.735280 0
M  V30 32 H 3.126579 -0.048038 -2.014826 0
M  V30 33 H 1.469451 1.254283 -3.252012 0
M  V30 34 H 0.937265 1.999010 -1.844491 0
M  V30 35 H 3.736570 1.867364 -0.768164 0
M  V30 36 H 3.558783 0.480749 0.329993 0
M  V30 37 H 1.199888 1.300083 0.916163 0
M  V30 38 H 1.613957 2.779164 -0.086977 0
M  V30 39 H 3.072347 4.449902 0.703248 0
M  V30 40 H 4.156174 5.452392 2.732958 0
M  V30 41 H 4.331661 4.149078 4.843893 0
M  V30 42 H 3.427239 1.844051 4.935950 0
M  V30 43 H 2.394065 0.933413 2.946481 0
M  V30 44 H -2.590363 -0.161078 -1.607530 0
M  V30 45 H -4.394088 -1.542344 -0.845115 0
M  V30 46 H -3.601386 -5.809370 0.374806 0
M  V30 47 H -7.251372 -4.400535 1.873069 0
M  V30 48 H -5.808776 -2.244569 1.340370 0
M  V30 END ATOM
M  V30 BEGIN BOND
M  V30 1 1 1 2
M  V30 2 1 2 3
M  V30 3 2 3 4
M  V30 4 1 4 5
M  V30 5 1 5 6
M  V30 6 1 6 7
M  V30 7 2 7 8
M  V30 8 1 7 9
M  V30 9 1 9 10
M  V30 10 1 9 11
M  V30 11 1 11 12
M  V30 12 1 12 13
M  V30 13 2 13 14
M  V30 14 1 14 15
M  V30 15 2 15 16
M  V30 16 1 16 17
M  V30 17 2 17 18
M  V30 18 2 5 19
M  V30 19 1 19 20
M  V30 20 2 20 21
M  V30 21 1 21 22
M  V30 22 1 22 23
M  V30 23 2 23 24
M  V30 24 1 24 25
M  V30 25 1 25 26
M  V30 26 1 21 3
M  V30 27 2 26 22
M  V30 28 1 18 13
M  V30 29 1 1 27
M  V30 30 1 1 28
M  V30 31 1 1 29
M  V30 32 1 4 30
M  V30 33 1 6 31
M  V30 34 1 9 32 CFG=3
M  V30 35 1 10 33
M  V30 36 1 10 34
M  V30 37 1 11 35
M  V30 38 1 11 36
M  V30 39 1 12 37
M  V30 40 1 12 38
M  V30 41 1 14 39
M  V30 42 1 15 40
M  V30 43 1 16 41
M  V30 44 1 17 42
M  V30 45 1 18 43
M  V30 46 1 19 44
M  V30 47 1 20 45
M  V30 48 1 23 46
M  V30 49 1 25 47
M  V30 50 1 26 48
M  V30 END BOND
M  V30 END CTAB
M  END
>  <Dataset>  (594) 
ChEMBL_Kinases

>  <Ligand_Instance>  (594) 
nan

>  <PDB_ID>  (594) 
nan

>  <Standardized_SMILES>  (594) 
COc1cc(NC(=O)[C@@H](N)CCc2ccccc2)ccc1-c1cn[nH]c1

>  <Name>  (594) 
nan

>  <Pocket>  (594) 
nan

>  <ATP_Site>  (594) 
nan

>  <Peripheral>  (594) 
nan

>  <Num_H_Atoms_ProtBoundConf>  (594) 
nan

>  <Num_Resolved_Atoms>  (594) 
nan

>  <Num_Not_Resolved_Atoms>  (594) 
nan

$$$$
CHEMBL4749682
     RDKit          3D

  0  0  0  0  0  0  0  0  0  0999 V3000
M  V30 BEGIN CTAB
M  V30 COUNTS 46 49 0 0 0
M  V30 BEGIN ATOM
M  V30 1 C 1.800256 -3.970249 2.243541 0
M  V30 2 O 2.841989 -4.445321 1.398640 0
M  V30 3 C 3.607685 -3.490215 0.740719 0
M  V30 4 C 4.630329 -3.896722 -0.090402 0
M  V30 5 C 5.419310 -2.983366 -0.766327 0
M  V30 6 C 5.194358 -1.629299 -0.619275 0
M  V30 7 C 4.158878 -1.241180 0.222944 0
M  V30 8 C 3.778097 0.192379 0.496184 0
M  V30 9 C 4.392707 1.015473 -0.590513 0
M  V30 10 N 2.329255 0.217122 0.403156 0
M  V30 11 C 1.482105 0.598520 1.470184 0
M  V30 12 O 2.053999 0.927096 2.540885 0
M  V30 13 C 0.032249 0.635820 1.415481 0
M  V30 14 C -0.640218 1.033636 2.552740 0
M  V30 15 C -2.039700 1.079463 2.530036 0
M  V30 16 C -2.714016 0.734031 1.396244 0
M  V30 17 C -2.087654 0.331258 0.238489 0
M  V30 18 C -0.689020 0.294861 0.289904 0
M  V30 19 O -2.658165 -0.040611 -0.964016 0
M  V30 20 C -4.058729 -0.027880 -1.087780 0
M  V30 21 C -4.730047 0.404780 0.156059 0
M  V30 22 C -6.121133 0.432635 0.079506 0
M  V30 23 N -6.851078 0.810274 1.148422 0
M  V30 24 C -6.289699 1.177136 2.334472 0
M  V30 25 C -4.909169 1.159333 2.440507 0
M  V30 26 C -4.161877 0.774728 1.352326 0
M  V30 27 N 3.419538 -2.162848 0.858201 0
M  V30 28 H 1.646072 -4.691104 3.077428 0
M  V30 29 H 2.100253 -2.977544 2.680150 0
M  V30 30 H 0.855535 -3.781152 1.686967 0
M  V30 31 H 4.887700 -4.936880 -0.273045 0
M  V30 32 H 6.240110 -3.261448 -1.434767 0
M  V30 33 H 5.755736 -0.835676 -1.104283 0
M  V30 34 H 4.147099 0.505143 1.494979 0
M  V30 35 H 3.923060 2.016881 -0.702690 0
M  V30 36 H 4.297929 0.512696 -1.576399 0
M  V30 37 H 5.491170 1.094899 -0.393842 0
M  V30 38 H 1.907040 -0.059373 -0.491030 0
M  V30 39 H -0.110995 1.309613 3.457427 0
M  V30 40 H -2.504752 1.392748 3.433138 0
M  V30 41 H -0.125828 -0.008576 -0.571696 0
M  V30 42 H -4.282739 0.709509 -1.909886 0
M  V30 43 H -4.412896 -1.041844 -1.370678 0
M  V30 44 H -6.671058 0.162273 -0.810389 0
M  V30 45 H -6.975097 1.462907 3.127888 0
M  V30 46 H -4.470293 1.449599 3.378302 0
M  V30 END ATOM
M  V30 BEGIN BOND
M  V30 1 1 1 2
M  V30 2 1 2 3
M  V30 3 2 3 4
M  V30 4 1 4 5
M  V30 5 2 5 6
M  V30 6 1 6 7
M  V30 7 1 7 8
M  V30 8 1 8 9
M  V30 9 1 8 10
M  V30 10 1 10 11
M  V30 11 2 11 12
M  V30 12 1 11 13
M  V30 13 2 13 14
M  V30 14 1 14 15
M  V30 15 2 15 16
M  V30 16 1 16 17
M  V30 17 2 17 18
M  V30 18 1 17 19
M  V30 19 1 19 20
M  V30 20 1 20 21
M  V30 21 2 21 22
M  V30 22 1 22 23
M  V30 23 2 23 24
M  V30 24 1 24 25
M  V30 25 2 25 26
M  V30 26 2 7 27
M  V30 27 1 27 3
M  V30 28 1 18 13
M  V30 29 1 26 21
M  V30 30 1 26 16
M  V30 31 1 1 28
M  V30 32 1 1 29
M  V30 33 1 1 30
M  V30 34 1 4 31
M  V30 35 1 5 32
M  V30 36 1 6 33
M  V30 37 1 8 34
M  V30 38 1 9 35
M  V30 39 1 9 36
M  V30 40 1 9 37
M  V30 41 1 10 38
M  V30 42 1 14 39
M  V30 43 1 15 40
M  V30 44 1 18 41
M  V30 45 1 20 42
M  V30 46 1 20 43
M  V30 47 1 22 44
M  V30 48 1 24 45
M  V30 49 1 25 46
M  V30 END BOND
M  V30 END CTAB
M  END
>  <Dataset>  (595) 
ChEMBL_Kinases

>  <Ligand_Instance>  (595) 
nan

>  <PDB_ID>  (595) 
nan

>  <Standardized_SMILES>  (595) 
COc1cccc(C(C)NC(=O)c2ccc3c(c2)OCc2cnccc2-3)n1

>  <Name>  (595) 
nan

>  <Pocket>  (595) 
nan

>  <ATP_Site>  (595) 
nan

>  <Peripheral>  (595) 
nan

>  <Num_H_Atoms_ProtBoundConf>  (595) 
nan

>  <Num_Resolved_Atoms>  (595) 
nan

>  <Num_Not_Resolved_Atoms>  (595) 
nan

$$$$
CHEMBL1951415
     RDKit          3D

  0  0  0  0  0  0  0  0  0  0999 V3000
M  V30 BEGIN CTAB
M  V30 COUNTS 45 48 0 0 0
M  V30 BEGIN ATOM
M  V30 1 N 0.677812 -4.574669 -0.685241 0
M  V30 2 C 1.516147 -3.503643 -0.263694 0
M  V30 3 N 2.873964 -3.522907 -0.125840 0
M  V30 4 C 3.441881 -2.389612 0.286529 0
M  V30 5 C 2.762049 -1.224250 0.576673 0
M  V30 6 C 1.370027 -1.242302 0.423556 0
M  V30 7 C 0.594098 -0.040969 0.714658 0
M  V30 8 C 0.746707 1.137444 0.013167 0
M  V30 9 C 1.625290 1.490813 -1.096202 0
M  V30 10 C 1.541496 0.856573 -2.335976 0
M  V30 11 C 2.386853 1.210325 -3.372873 0
M  V30 12 C 3.315747 2.210660 -3.141813 0
M  V30 13 F 4.133502 2.534016 -4.187366 0
M  V30 14 C 3.411904 2.848019 -1.921831 0
M  V30 15 C 2.564642 2.492686 -0.884338 0
M  V30 16 N -0.151291 1.983270 0.597681 0
M  V30 17 C -0.787416 1.314089 1.589379 0
M  V30 18 N -0.335686 0.068310 1.668937 0
M  V30 19 C -0.772831 -0.960945 2.609843 0
M  V30 20 C -1.170726 -0.397313 3.928679 0
M  V30 21 C -2.601411 -0.006420 4.071326 0
M  V30 22 C -3.497713 -0.477517 2.963234 0
M  V30 23 C -3.116390 -1.896695 2.655456 0
M  V30 24 C -1.778523 -1.891885 1.990970 0
M  V30 25 N 0.783902 -2.393800 0.003622 0
M  V30 26 H 0.212683 -5.389005 -0.224653 0
M  V30 27 H 0.365840 -4.703707 -1.692387 0
M  V30 28 H 4.509175 -2.321939 0.420574 0
M  V30 29 H 3.280210 -0.315238 0.914014 0
M  V30 30 H 0.815423 0.081218 -2.501851 0
M  V30 31 H 2.316271 0.708440 -4.344817 0
M  V30 32 H 4.153919 3.637494 -1.758998 0
M  V30 33 H 2.609253 2.975234 0.100401 0
M  V30 34 H -1.554917 1.774363 2.208500 0
M  V30 35 H 0.153359 -1.586954 2.771781 0
M  V30 36 H -0.466843 0.425191 4.164690 0
M  V30 37 H -0.955142 -1.191787 4.693915 0
M  V30 38 H -2.762036 1.093566 4.167839 0
M  V30 39 H -3.049381 -0.424603 5.018057 0
M  V30 40 H -4.558093 -0.477281 3.334208 0
M  V30 41 H -3.396804 0.127438 2.039879 0
M  V30 42 H -3.852835 -2.303916 1.904541 0
M  V30 43 H -3.185039 -2.548058 3.540997 0
M  V30 44 H -1.440465 -2.957254 1.957228 0
M  V30 45 H -1.899778 -1.599484 0.927691 0
M  V30 END ATOM
M  V30 BEGIN BOND
M  V30 1 1 1 2
M  V30 2 2 2 3
M  V30 3 1 3 4
M  V30 4 2 4 5
M  V30 5 1 5 6
M  V30 6 1 6 7
M  V30 7 2 7 8
M  V30 8 1 8 9
M  V30 9 2 9 10
M  V30 10 1 10 11
M  V30 11 2 11 12
M  V30 12 1 12 13
M  V30 13 1 12 14
M  V30 14 2 14 15
M  V30 15 1 8 16
M  V30 16 2 16 17
M  V30 17 1 17 18
M  V30 18 1 18 19
M  V30 19 1 19 20
M  V30 20 1 20 21
M  V30 21 1 21 22
M  V30 22 1 22 23
M  V30 23 1 23 24
M  V30 24 2 6 25
M  V30 25 1 25 2
M  V30 26 1 18 7
M  V30 27 1 24 19
M  V30 28 1 15 9
M  V30 29 1 1 26
M  V30 30 1 1 27
M  V30 31 1 4 28
M  V30 32 1 5 29
M  V30 33 1 10 30
M  V30 34 1 11 31
M  V30 35 1 14 32
M  V30 36 1 15 33
M  V30 37 1 17 34
M  V30 38 1 19 35
M  V30 39 1 20 36
M  V30 40 1 20 37
M  V30 41 1 21 38
M  V30 42 1 21 39
M  V30 43 1 22 40
M  V30 44 1 22 41
M  V30 45 1 23 42
M  V30 46 1 23 43
M  V30 47 1 24 44
M  V30 48 1 24 45
M  V30 END BOND
M  V30 END CTAB
M  END
>  <Dataset>  (596) 
ChEMBL_Kinases

>  <Ligand_Instance>  (596) 
nan

>  <PDB_ID>  (596) 
nan

>  <Standardized_SMILES>  (596) 
Nc1nccc(-c2c(-c3ccc(F)cc3)ncn2C2CCCCC2)n1

>  <Name>  (596) 
nan

>  <Pocket>  (596) 
nan

>  <ATP_Site>  (596) 
nan

>  <Peripheral>  (596) 
nan

>  <Num_H_Atoms_ProtBoundConf>  (596) 
nan

>  <Num_Resolved_Atoms>  (596) 
nan

>  <Num_Not_Resolved_Atoms>  (596) 
nan

$$$$
CHEMBL1950358
     RDKit          3D

  0  0  0  0  0  0  0  0  0  0999 V3000
M  V30 BEGIN CTAB
M  V30 COUNTS 65 69 0 0 0
M  V30 BEGIN ATOM
M  V30 1 C 5.888303 1.058895 0.881158 0
M  V30 2 N 5.221629 0.886794 2.167554 0 CHG=1 VAL=4
M  V30 3 C 6.226117 0.319372 3.049370 0
M  V30 4 C 4.880791 2.183710 2.646013 0
M  V30 5 C 4.137935 2.183507 3.963435 0
M  V30 6 O 4.908143 1.586109 4.960528 0
M  V30 7 C 4.153911 -0.063001 2.081234 0
M  V30 8 C 3.012611 0.327084 1.249650 0
M  V30 9 C 2.898302 0.064598 -0.114520 0
M  V30 10 N 1.735576 0.546372 -0.594968 0
M  V30 11 C 1.131201 0.550646 -1.897088 0
M  V30 12 C 0.259564 -0.650970 -2.177558 0
M  V30 13 C -0.877708 -0.788047 -1.223811 0
M  V30 14 C -1.655750 -2.043707 -1.643589 0
M  V30 15 N -2.767997 -2.264531 -0.787167 0
M  V30 16 C -2.695424 -3.050339 0.323112 0
M  V30 17 C -1.623445 -3.774663 0.859725 0
M  V30 18 C -1.728008 -4.526329 2.004997 0
M  V30 19 C -2.927695 -4.586234 2.672295 0
M  V30 20 C -3.994664 -3.884698 2.166546 0
M  V30 21 C -3.880354 -3.136217 1.021140 0
M  V30 22 C -4.756890 -2.352887 0.303998 0
M  V30 23 C -6.083498 -2.062721 0.528404 0
M  V30 24 C -6.745303 -1.233637 -0.351753 0
M  V30 25 C -6.058594 -0.718589 -1.431869 0
M  V30 26 C -6.502532 0.127294 -2.430871 0
M  V30 27 C -7.851510 0.687450 -2.584790 0
M  V30 28 O -8.696188 0.363588 -1.714436 0
M  V30 29 C -5.372955 0.308298 -3.234269 0
M  V30 30 N -4.346872 -0.392994 -2.723249 0
M  V30 31 C -4.731142 -1.036600 -1.616460 0
M  V30 32 C -4.038832 -1.857941 -0.763256 0
M  V30 33 N 1.161934 1.089353 0.465529 0
M  V30 34 N 1.872610 0.981229 1.550961 0
M  V30 35 H 6.919768 1.463469 1.094057 0
M  V30 36 H 5.354308 1.755311 0.211538 0
M  V30 37 H 6.082043 0.090909 0.369943 0
M  V30 38 H 6.749609 1.119802 3.600977 0
M  V30 39 H 6.951866 -0.305041 2.480976 0
M  V30 40 H 5.685114 -0.292204 3.818121 0
M  V30 41 H 5.862880 2.692691 2.880850 0
M  V30 42 H 4.408953 2.860040 1.905672 0
M  V30 43 H 3.976710 3.226461 4.305461 0
M  V30 44 H 3.191607 1.600305 3.939014 0
M  V30 45 H 4.688849 1.974807 5.829454 0
M  V30 46 H 4.587068 -0.993222 1.657843 0
M  V30 47 H 3.861730 -0.330723 3.130648 0
M  V30 48 H 3.609335 -0.454636 -0.775480 0
M  V30 49 H 1.919332 0.631682 -2.673739 0
M  V30 50 H 0.531768 1.492526 -2.019013 0
M  V30 51 H -0.194703 -0.457328 -3.185507 0
M  V30 52 H 0.898981 -1.537124 -2.294685 0
M  V30 53 H -0.590827 -0.837398 -0.170966 0
M  V30 54 H -1.511236 0.114902 -1.337381 0
M  V30 55 H -0.945706 -2.919395 -1.567219 0
M  V30 56 H -1.977276 -1.888306 -2.674195 0
M  V30 57 H -0.646760 -3.774717 0.387715 0
M  V30 58 H -0.866824 -5.077419 2.390710 0
M  V30 59 H -3.045979 -5.156619 3.560171 0
M  V30 60 H -4.961588 -3.893701 2.647306 0
M  V30 61 H -6.565693 -2.496513 1.391670 0
M  V30 62 H -7.778097 -1.058331 -0.104419 0
M  V30 63 H -8.046507 1.338952 -3.424618 0
M  V30 64 H -5.495378 0.961642 -4.112230 0
M  V30 65 H -3.487678 -0.298823 -3.263880 0
M  V30 END ATOM
M  V30 BEGIN BOND
M  V30 1 1 1 2
M  V30 2 1 2 3
M  V30 3 1 2 4
M  V30 4 1 4 5
M  V30 5 1 5 6
M  V30 6 1 2 7
M  V30 7 1 7 8
M  V30 8 2 8 9
M  V30 9 1 9 10
M  V30 10 1 10 11
M  V30 11 1 11 12
M  V30 12 1 12 13
M  V30 13 1 13 14
M  V30 14 1 14 15
M  V30 15 1 15 16
M  V30 16 2 16 17
M  V30 17 1 17 18
M  V30 18 2 18 19
M  V30 19 1 19 20
M  V30 20 2 20 21
M  V30 21 1 21 22
M  V30 22 2 22 23
M  V30 23 1 23 24
M  V30 24 2 24 25
M  V30 25 1 25 26
M  V30 26 1 26 27
M  V30 27 2 27 28
M  V30 28 2 26 29
M  V30 29 1 29 30
M  V30 30 1 30 31
M  V30 31 2 31 32
M  V30 32 1 10 33
M  V30 33 2 33 34
M  V30 34 1 34 8
M  V30 35 1 32 15
M  V30 36 1 21 16
M  V30 37 1 32 22
M  V30 38 1 31 25
M  V30 39 1 1 35
M  V30 40 1 1 36
M  V30 41 1 1 37
M  V30 42 1 3 38
M  V30 43 1 3 39
M  V30 44 1 3 40
M  V30 45 1 4 41
M  V30 46 1 4 42
M  V30 47 1 5 43
M  V30 48 1 5 44
M  V30 49 1 6 45
M  V30 50 1 7 46
M  V30 51 1 7 47
M  V30 52 1 9 48
M  V30 53 1 11 49
M  V30 54 1 11 50
M  V30 55 1 12 51
M  V30 56 1 12 52
M  V30 57 1 13 53
M  V30 58 1 13 54
M  V30 59 1 14 55
M  V30 60 1 14 56
M  V30 61 1 17 57
M  V30 62 1 18 58
M  V30 63 1 19 59
M  V30 64 1 20 60
M  V30 65 1 23 61
M  V30 66 1 24 62
M  V30 67 1 27 63
M  V30 68 1 29 64
M  V30 69 1 30 65
M  V30 END BOND
M  V30 END CTAB
M  END
>  <Dataset>  (597) 
ChEMBL_Kinases

>  <Ligand_Instance>  (597) 
nan

>  <PDB_ID>  (597) 
nan

>  <Standardized_SMILES>  (597) 
C[N+](C)(CCO)Cc1cn(CCCCn2c3ccccc3c3ccc4c(C=O)c[nH]c4c32)nn1

>  <Name>  (597) 
nan

>  <Pocket>  (597) 
nan

>  <ATP_Site>  (597) 
nan

>  <Peripheral>  (597) 
nan

>  <Num_H_Atoms_ProtBoundConf>  (597) 
nan

>  <Num_Resolved_Atoms>  (597) 
nan

>  <Num_Not_Resolved_Atoms>  (597) 
nan

$$$$
CHEMBL1950230
     RDKit          3D

  0  0  0  0  0  0  0  0  0  0999 V3000
M  V30 BEGIN CTAB
M  V30 COUNTS 50 54 0 0 0
M  V30 BEGIN ATOM
M  V30 1 O 3.740869 -5.312494 -2.018336 0
M  V30 2 C 3.466625 -4.075188 -2.138901 0
M  V30 3 C 2.975575 -3.278436 -1.019665 0
M  V30 4 C 2.735649 -3.697352 0.279642 0
M  V30 5 N 2.290971 -2.632977 0.969873 0
M  V30 6 C 2.218567 -1.541928 0.226491 0
M  V30 7 C 2.644842 -1.930116 -1.025775 0
M  V30 8 C 2.701377 -1.054339 -2.067061 0
M  V30 9 C 2.313594 0.241897 -1.818457 0
M  V30 10 C 1.888592 0.621658 -0.562918 0
M  V30 11 C 1.459185 1.833314 -0.084258 0
M  V30 12 C 1.315809 3.055325 -0.691473 0
M  V30 13 C 0.860273 4.140227 0.013594 0
M  V30 14 C 0.551471 3.968261 1.346054 0
M  V30 15 C 0.705174 2.730300 1.929133 0
M  V30 16 C 1.161685 1.620035 1.243814 0
M  V30 17 N 1.381656 0.334315 1.628378 0
M  V30 18 C 1.167229 -0.228336 2.946957 0
M  V30 19 C -0.216620 -0.823209 3.108810 0
M  V30 20 C -1.255307 0.223096 2.894532 0
M  V30 21 C -2.665984 -0.306491 3.042206 0
M  V30 22 N -2.941013 -1.369668 2.081203 0
M  V30 23 C -3.441810 -1.233199 0.839317 0
M  V30 24 C -3.562949 -2.462732 0.229207 0
M  V30 25 C -4.070138 -2.745643 -1.131916 0
M  V30 26 O -2.974152 -2.707928 -2.015680 0
M  V30 27 N -3.115411 -3.315566 1.159761 0
M  V30 28 N -2.751579 -2.680387 2.242126 0
M  V30 29 C 1.825510 -0.252192 0.502389 0
M  V30 30 H 3.603522 -3.620046 -3.088246 0
M  V30 31 H 2.916543 -4.734459 0.562697 0
M  V30 32 H 2.067307 -2.806812 1.969612 0
M  V30 33 H 3.036353 -1.363370 -3.047177 0
M  V30 34 H 2.340383 0.974739 -2.612224 0
M  V30 35 H 1.567120 3.162220 -1.744811 0
M  V30 36 H 0.754377 5.093306 -0.482427 0
M  V30 37 H 0.193116 4.846350 1.877473 0
M  V30 38 H 0.445712 2.689152 2.956809 0
M  V30 39 H 1.184165 0.655462 3.650120 0
M  V30 40 H 1.982522 -0.868573 3.299864 0
M  V30 41 H -0.272309 -1.339073 4.066244 0
M  V30 42 H -0.408330 -1.613129 2.333026 0
M  V30 43 H -1.157711 1.041180 3.613126 0
M  V30 44 H -1.174449 0.536091 1.820014 0
M  V30 45 H -2.791572 -0.618316 4.079052 0
M  V30 46 H -3.341646 0.555436 2.880203 0
M  V30 47 H -3.699296 -0.270493 0.419764 0
M  V30 48 H -4.570229 -3.734695 -1.188424 0
M  V30 49 H -4.869234 -2.017380 -1.443574 0
M  V30 50 H -3.314513 -2.329275 -2.860906 0
M  V30 END ATOM
M  V30 BEGIN BOND
M  V30 1 2 1 2
M  V30 2 1 2 3
M  V30 3 2 3 4
M  V30 4 1 4 5
M  V30 5 1 5 6
M  V30 6 2 6 7
M  V30 7 1 7 8
M  V30 8 2 8 9
M  V30 9 1 9 10
M  V30 10 1 10 11
M  V30 11 2 11 12
M  V30 12 1 12 13
M  V30 13 2 13 14
M  V30 14 1 14 15
M  V30 15 2 15 16
M  V30 16 1 16 17
M  V30 17 1 17 18
M  V30 18 1 18 19
M  V30 19 1 19 20
M  V30 20 1 20 21
M  V30 21 1 21 22
M  V30 22 1 22 23
M  V30 23 2 23 24
M  V30 24 1 24 25
M  V30 25 1 25 26
M  V30 26 1 24 27
M  V30 27 2 27 28
M  V30 28 1 17 29
M  V30 29 1 7 3
M  V30 30 2 29 10
M  V30 31 1 29 6
M  V30 32 1 16 11
M  V30 33 1 28 22
M  V30 34 1 2 30
M  V30 35 1 4 31
M  V30 36 1 5 32
M  V30 37 1 8 33
M  V30 38 1 9 34
M  V30 39 1 12 35
M  V30 40 1 13 36
M  V30 41 1 14 37
M  V30 42 1 15 38
M  V30 43 1 18 39
M  V30 44 1 18 40
M  V30 45 1 19 41
M  V30 46 1 19 42
M  V30 47 1 20 43
M  V30 48 1 20 44
M  V30 49 1 21 45
M  V30 50 1 21 46
M  V30 51 1 23 47
M  V30 52 1 25 48
M  V30 53 1 25 49
M  V30 54 1 26 50
M  V30 END BOND
M  V30 END CTAB
M  END
>  <Dataset>  (598) 
ChEMBL_Kinases

>  <Ligand_Instance>  (598) 
nan

>  <PDB_ID>  (598) 
nan

>  <Standardized_SMILES>  (598) 
O=Cc1c[nH]c2c1ccc1c3ccccc3n(CCCCn3cc(CO)nn3)c12

>  <Name>  (598) 
nan

>  <Pocket>  (598) 
nan

>  <ATP_Site>  (598) 
nan

>  <Peripheral>  (598) 
nan

>  <Num_H_Atoms_ProtBoundConf>  (598) 
nan

>  <Num_Resolved_Atoms>  (598) 
nan

>  <Num_Not_Resolved_Atoms>  (598) 
nan

$$$$
CHEMBL1950229
     RDKit          3D

  0  0  0  0  0  0  0  0  0  0999 V3000
M  V30 BEGIN CTAB
M  V30 COUNTS 42 45 0 0 0
M  V30 BEGIN ATOM
M  V30 1 N 3.231401 -4.422866 4.611851 0 CHG=-1 VAL=2
M  V30 2 N 3.553287 -4.210909 3.440148 0 CHG=1 VAL=4
M  V30 3 N 3.625379 -4.030694 2.222810 0
M  V30 4 C 2.483381 -3.987776 1.358411 0
M  V30 5 C 2.390907 -2.661110 0.594741 0
M  V30 6 C 1.168699 -2.754520 -0.257273 0
M  V30 7 C 0.898508 -1.530557 -1.099455 0
M  V30 8 N 0.715442 -0.343987 -0.300672 0
M  V30 9 C 1.746230 0.468261 0.010800 0
M  V30 10 C 3.099347 0.456064 -0.274710 0
M  V30 11 C 3.968540 1.426759 0.170913 0
M  V30 12 C 3.528736 2.465822 0.929089 0
M  V30 13 C 2.188606 2.519860 1.238798 0
M  V30 14 C 1.338666 1.536678 0.781179 0
M  V30 15 C -0.019311 1.374976 0.955268 0
M  V30 16 C -0.951264 2.131234 1.634464 0
M  V30 17 C -2.266572 1.717702 1.641010 0
M  V30 18 C -2.619501 0.564249 0.972826 0
M  V30 19 C -3.850436 -0.042914 0.842822 0
M  V30 20 C -5.124859 0.418701 1.404975 0
M  V30 21 O -5.093392 1.474831 2.073333 0
M  V30 22 C -3.603882 -1.179730 0.064601 0
M  V30 23 N -2.292585 -1.205298 -0.226732 0
M  V30 24 C -1.656665 -0.161080 0.306884 0
M  V30 25 C -0.349438 0.219572 0.280192 0
M  V30 26 H 1.528622 -4.079539 1.934706 0
M  V30 27 H 2.524912 -4.823543 0.644416 0
M  V30 28 H 3.335296 -2.546565 0.025152 0
M  V30 29 H 2.352575 -1.831242 1.336953 0
M  V30 30 H 0.312247 -2.975588 0.414771 0
M  V30 31 H 1.279392 -3.655743 -0.892383 0
M  V30 32 H 1.791878 -1.400567 -1.794888 0
M  V30 33 H 0.073286 -1.754530 -1.791962 0
M  V30 34 H 3.539626 -0.330862 -0.871134 0
M  V30 35 H 5.037948 1.378466 -0.079581 0
M  V30 36 H 4.180741 3.245854 1.296743 0
M  V30 37 H 1.835854 3.347747 1.843376 0
M  V30 38 H -0.631855 3.035133 2.149441 0
M  V30 39 H -2.935776 2.362005 2.193612 0
M  V30 40 H -6.014758 -0.163658 1.219341 0
M  V30 41 H -4.446557 -1.823828 -0.170303 0
M  V30 42 H -2.007763 -2.019353 -0.802819 0
M  V30 END ATOM
M  V30 BEGIN BOND
M  V30 1 2 1 2
M  V30 2 2 2 3
M  V30 3 1 3 4
M  V30 4 1 4 5
M  V30 5 1 5 6
M  V30 6 1 6 7
M  V30 7 1 7 8
M  V30 8 1 8 9
M  V30 9 2 9 10
M  V30 10 1 10 11
M  V30 11 2 11 12
M  V30 12 1 12 13
M  V30 13 2 13 14
M  V30 14 1 14 15
M  V30 15 2 15 16
M  V30 16 1 16 17
M  V30 17 2 17 18
M  V30 18 1 18 19
M  V30 19 1 19 20
M  V30 20 2 20 21
M  V30 21 2 19 22
M  V30 22 1 22 23
M  V30 23 1 23 24
M  V30 24 2 24 25
M  V30 25 1 25 8
M  V30 26 1 14 9
M  V30 27 1 25 15
M  V30 28 1 24 18
M  V30 29 1 4 26
M  V30 30 1 4 27
M  V30 31 1 5 28
M  V30 32 1 5 29
M  V30 33 1 6 30
M  V30 34 1 6 31
M  V30 35 1 7 32
M  V30 36 1 7 33
M  V30 37 1 10 34
M  V30 38 1 11 35
M  V30 39 1 12 36
M  V30 40 1 13 37
M  V30 41 1 16 38
M  V30 42 1 17 39
M  V30 43 1 20 40
M  V30 44 1 22 41
M  V30 45 1 23 42
M  V30 END BOND
M  V30 END CTAB
M  END
>  <Dataset>  (599) 
ChEMBL_Kinases

>  <Ligand_Instance>  (599) 
nan

>  <PDB_ID>  (599) 
nan

>  <Standardized_SMILES>  (599) 
[N-]=[N+]=NCCCCn1c2ccccc2c2ccc3c(C=O)c[nH]c3c21

>  <Name>  (599) 
nan

>  <Pocket>  (599) 
nan

>  <ATP_Site>  (599) 
nan

>  <Peripheral>  (599) 
nan

>  <Num_H_Atoms_ProtBoundConf>  (599) 
nan

>  <Num_Resolved_Atoms>  (599) 
nan

>  <Num_Not_Resolved_Atoms>  (599) 
nan

$$$$
CHEMBL1327355
     RDKit          3D

  0  0  0  0  0  0  0  0  0  0999 V3000
M  V30 BEGIN CTAB
M  V30 COUNTS 42 45 0 0 0
M  V30 BEGIN ATOM
M  V30 1 C 0.137858 -2.450312 -1.848173 0
M  V30 2 N 0.792502 -1.163579 -1.619936 0
M  V30 3 C 0.300070 -0.230102 -2.604289 0
M  V30 4 C 0.908505 1.119653 -2.457920 0
M  V30 5 C 0.381790 2.117944 -1.675370 0
M  V30 6 C 1.257481 3.174704 -1.836455 0
M  V30 7 C 2.278466 2.790287 -2.702624 0
M  V30 8 O 2.002426 1.558291 -3.029053 0
M  V30 9 C 1.755005 -0.676677 -0.683891 0
M  V30 10 N 2.882054 -0.218604 -1.229660 0
M  V30 11 C 3.887972 0.274308 -0.484915 0
M  V30 12 N 3.779377 0.318148 0.856759 0
M  V30 13 C 2.666214 -0.130286 1.454342 0
M  V30 14 C 2.496993 -0.111268 2.822786 0
M  V30 15 C 1.316969 -0.593362 3.357790 0
M  V30 16 C 0.311050 -1.088433 2.581422 0
M  V30 17 C -0.914123 -1.585738 3.184915 0
M  V30 18 C -2.070050 -1.177704 2.579027 0
M  V30 19 C -3.290405 -1.612872 3.099593 0
M  V30 20 C -3.300517 -2.446767 4.216358 0
M  V30 21 C -2.131309 -2.864920 4.836482 0
M  V30 22 C -0.939596 -2.399726 4.274218 0
M  V30 23 C 0.264799 -2.813453 4.890141 0
M  V30 24 N 1.241209 -3.164102 5.401828 0
M  V30 25 C 0.443442 -1.124625 1.198495 0
M  V30 26 C 1.630268 -0.637776 0.689371 0
M  V30 27 H -0.957152 -2.334315 -1.868719 0
M  V30 28 H 0.544082 -2.892335 -2.782469 0
M  V30 29 H 0.432167 -3.132502 -1.021278 0
M  V30 30 H -0.820043 -0.171876 -2.491940 0
M  V30 31 H 0.469237 -0.583414 -3.648015 0
M  V30 32 H -0.512497 2.098396 -1.066194 0
M  V30 33 H 1.213184 4.162977 -1.391152 0
M  V30 34 H 3.102831 3.419664 -3.007621 0
M  V30 35 H 4.785152 0.635180 -0.974595 0
M  V30 36 H 3.335111 0.295126 3.380359 0
M  V30 37 H 1.276014 -0.538083 4.431206 0
M  V30 38 H -2.101404 -0.534060 1.715045 0
M  V30 39 H -4.199773 -1.299317 2.632913 0
M  V30 40 H -4.278789 -2.753415 4.577118 0
M  V30 41 H -2.167860 -3.514187 5.704524 0
M  V30 42 H -0.343815 -1.513415 0.571289 0
M  V30 END ATOM
M  V30 BEGIN BOND
M  V30 1 1 1 2
M  V30 2 1 2 3
M  V30 3 1 3 4
M  V30 4 2 4 5
M  V30 5 1 5 6
M  V30 6 2 6 7
M  V30 7 1 7 8
M  V30 8 1 2 9
M  V30 9 2 9 10
M  V30 10 1 10 11
M  V30 11 2 11 12
M  V30 12 1 12 13
M  V30 13 2 13 14
M  V30 14 1 14 15
M  V30 15 2 15 16
M  V30 16 1 16 17
M  V30 17 2 17 18
M  V30 18 1 18 19
M  V30 19 2 19 20
M  V30 20 1 20 21
M  V30 21 2 21 22
M  V30 22 1 22 23
M  V30 23 3 23 24
M  V30 24 1 16 25
M  V30 25 2 25 26
M  V30 26 1 8 4
M  V30 27 1 26 9
M  V30 28 1 26 13
M  V30 29 1 22 17
M  V30 30 1 1 27
M  V30 31 1 1 28
M  V30 32 1 1 29
M  V30 33 1 3 30
M  V30 34 1 3 31
M  V30 35 1 5 32
M  V30 36 1 6 33
M  V30 37 1 7 34
M  V30 38 1 11 35
M  V30 39 1 14 36
M  V30 40 1 15 37
M  V30 41 1 18 38
M  V30 42 1 19 39
M  V30 43 1 20 40
M  V30 44 1 21 41
M  V30 45 1 25 42
M  V30 END BOND
M  V30 END CTAB
M  END
>  <Dataset>  (600) 
ChEMBL_Kinases

>  <Ligand_Instance>  (600) 
nan

>  <PDB_ID>  (600) 
nan

>  <Standardized_SMILES>  (600) 
CN(Cc1ccco1)c1ncnc2ccc(-c3ccccc3C#N)cc12

>  <Name>  (600) 
nan

>  <Pocket>  (600) 
nan

>  <ATP_Site>  (600) 
nan

>  <Peripheral>  (600) 
nan

>  <Num_H_Atoms_ProtBoundConf>  (600) 
nan

>  <Num_Resolved_Atoms>  (600) 
nan

>  <Num_Not_Resolved_Atoms>  (600) 
nan

$$$$
CHEMBL1947253
     RDKit          3D

  0  0  0  0  0  0  0  0  0  0999 V3000
M  V30 BEGIN CTAB
M  V30 COUNTS 52 56 0 0 0
M  V30 BEGIN ATOM
M  V30 1 O 0.511421 2.081872 3.691323 0
M  V30 2 C 0.349812 1.703152 2.526249 0
M  V30 3 N 0.948086 2.315681 1.400954 0
M  V30 4 C 0.606817 1.713128 0.292777 0
M  V30 5 N 1.116502 2.192389 -0.959033 0
M  V30 6 C 2.367629 2.933117 -1.130115 0
M  V30 7 C 3.553215 2.190858 -0.700139 0
M  V30 8 C 4.120700 1.413004 -1.715019 0
M  V30 9 C 5.258652 0.632768 -1.504891 0
M  V30 10 C 5.842297 0.634849 -0.238574 0
M  V30 11 C 5.292949 1.394139 0.761901 0
M  V30 12 C 4.168047 2.158166 0.533171 0
M  V30 13 N -0.260677 0.636069 0.604796 0
M  V30 14 C -0.441013 0.601890 2.003880 0
M  V30 15 C -1.216511 -0.202261 2.711863 0
M  V30 16 C -1.416945 -0.105529 4.157348 0
M  V30 17 C -2.826810 0.313756 4.533583 0
M  V30 18 N -3.879567 -0.509255 4.062119 0
M  V30 19 C -4.203694 -1.284568 2.881404 0
M  V30 20 O -5.347643 -1.630371 2.556914 0
M  V30 21 C -3.152169 -1.737459 1.940799 0
M  V30 22 N -3.248140 -2.680175 1.005134 0
M  V30 23 C -2.061570 -2.833817 0.344963 0
M  V30 24 C -1.809406 -3.776603 -0.738565 0
M  V30 25 C -0.577711 -3.843198 -1.328209 0
M  V30 26 C -0.390722 -4.761401 -2.358713 0
M  V30 27 C -1.419755 -5.588267 -2.780559 0
M  V30 28 C -2.654314 -5.521659 -2.189691 0
M  V30 29 C -2.823707 -4.605567 -1.168813 0
M  V30 30 C -1.110991 -1.941313 0.868380 0
M  V30 31 C -1.832409 -1.266798 1.868707 0
M  V30 32 H 0.502538 1.966752 -1.799398 0
M  V30 33 H 2.417212 3.254540 -2.168333 0
M  V30 34 H 2.247237 3.854520 -0.487220 0
M  V30 35 H 3.731852 1.354106 -2.724349 0
M  V30 36 H 5.690934 0.034702 -2.293916 0
M  V30 37 H 6.724723 0.046985 -0.026106 0
M  V30 38 H 5.705146 1.434060 1.766981 0
M  V30 39 H 3.700334 2.766941 1.272186 0
M  V30 40 H -0.623840 0.105283 -0.196158 0
M  V30 41 H -0.778149 0.666347 4.587299 0
M  V30 42 H -1.174377 -1.043287 4.723525 0
M  V30 43 H -2.829313 0.303657 5.643700 0
M  V30 44 H -2.959901 1.404267 4.273628 0
M  V30 45 H -4.695351 -0.614140 4.745559 0
M  V30 46 H -4.127355 -3.212305 0.825387 0
M  V30 47 H 0.236119 -3.209338 -1.015398 0
M  V30 48 H 0.596889 -4.786987 -2.802683 0
M  V30 49 H -1.147648 -6.265395 -3.597237 0
M  V30 50 H -3.434796 -6.188908 -2.551213 0
M  V30 51 H -3.807227 -4.574172 -0.720550 0
M  V30 52 H -0.073058 -1.820771 0.594040 0
M  V30 END ATOM
M  V30 BEGIN BOND
M  V30 1 2 1 2
M  V30 2 1 2 3
M  V30 3 2 3 4
M  V30 4 1 4 5
M  V30 5 1 5 6
M  V30 6 1 6 7
M  V30 7 2 7 8
M  V30 8 1 8 9
M  V30 9 2 9 10
M  V30 10 1 10 11
M  V30 11 2 11 12
M  V30 12 1 4 13
M  V30 13 1 13 14
M  V30 14 2 14 15
M  V30 15 1 15 16
M  V30 16 1 16 17
M  V30 17 1 17 18
M  V30 18 1 18 19
M  V30 19 2 19 20
M  V30 20 1 19 21
M  V30 21 1 21 22
M  V30 22 1 22 23
M  V30 23 1 23 24
M  V30 24 2 24 25
M  V30 25 1 25 26
M  V30 26 2 26 27
M  V30 27 1 27 28
M  V30 28 2 28 29
M  V30 29 2 23 30
M  V30 30 1 30 31
M  V30 31 1 14 2
M  V30 32 1 31 15
M  V30 33 1 12 7
M  V30 34 2 31 21
M  V30 35 1 29 24
M  V30 36 1 5 32
M  V30 37 1 6 33
M  V30 38 1 6 34
M  V30 39 1 8 35
M  V30 40 1 9 36
M  V30 41 1 10 37
M  V30 42 1 11 38
M  V30 43 1 12 39
M  V30 44 1 13 40
M  V30 45 1 16 41
M  V30 46 1 16 42
M  V30 47 1 17 43
M  V30 48 1 17 44
M  V30 49 1 18 45
M  V30 50 1 22 46
M  V30 51 1 25 47
M  V30 52 1 26 48
M  V30 53 1 27 49
M  V30 54 1 28 50
M  V30 55 1 29 51
M  V30 56 1 30 52
M  V30 END BOND
M  V30 END CTAB
M  END
>  <Dataset>  (601) 
ChEMBL_Kinases

>  <Ligand_Instance>  (601) 
nan

>  <PDB_ID>  (601) 
nan

>  <Standardized_SMILES>  (601) 
O=C1N=C(NCc2ccccc2)N/C1=C1/CCNC(=O)c2[nH]c(-c3ccccc3)cc21

>  <Name>  (601) 
nan

>  <Pocket>  (601) 
nan

>  <ATP_Site>  (601) 
nan

>  <Peripheral>  (601) 
nan

>  <Num_H_Atoms_ProtBoundConf>  (601) 
nan

>  <Num_Resolved_Atoms>  (601) 
nan

>  <Num_Not_Resolved_Atoms>  (601) 
nan

$$$$
CHEMBL4749598
     RDKit          3D

  0  0  0  0  0  0  0  0  0  0999 V3000
M  V30 BEGIN CTAB
M  V30 COUNTS 64 67 0 0 0
M  V30 BEGIN ATOM
M  V30 1 C 5.104454 2.075036 3.704014 0
M  V30 2 C 5.943049 0.890703 3.227059 0
M  V30 3 C 5.348345 -0.413833 3.687476 0
M  V30 4 N 4.005316 -0.612384 3.196547 0
M  V30 5 C 3.641062 -0.687780 1.833986 0
M  V30 6 O 4.709566 -0.551941 1.189735 0
M  V30 7 C 2.281497 -0.884212 1.369609 0
M  V30 8 C 1.296889 -1.008810 2.314592 0
M  V30 9 N 0.027498 -1.192623 1.939491 0
M  V30 10 C -0.358080 -1.265155 0.677775 0
M  V30 11 N -1.682691 -1.458659 0.207107 0
M  V30 12 C -2.854793 -1.612071 0.985559 0
M  V30 13 C -2.935365 -1.597777 2.356993 0
M  V30 14 C -4.074320 -1.747567 3.114030 0
M  V30 15 C -5.266038 -1.931701 2.447163 0
M  V30 16 C -5.266561 -1.957836 1.068372 0
M  V30 17 C -4.079206 -1.799791 0.384080 0
M  V30 18 C -6.642696 -2.165712 0.586574 0
M  V30 19 C -7.099254 -0.958655 -0.206962 0
M  V30 20 C -6.788752 -3.427872 -0.229963 0
M  V30 21 O -7.407023 -2.253007 1.752217 0
M  V30 22 C -6.639005 -2.120807 2.895064 0
M  V30 23 O -7.069113 -2.160421 4.074125 0
M  V30 24 N 0.620113 -1.140766 -0.226464 0
M  V30 25 C 1.891291 -0.957689 0.078023 0
M  V30 26 N 2.861152 -0.836635 -0.985069 0
M  V30 27 C 2.366453 -0.925057 -2.343474 0 CFG=2
M  V30 28 C 3.523291 -0.775470 -3.298641 0
M  V30 29 O 4.417474 -1.821843 -3.019996 0
M  V30 30 C 1.349942 0.144817 -2.605836 0
M  V30 31 C 0.130466 0.038437 -3.233228 0
M  V30 32 C -0.650878 1.163951 -3.366650 0
M  V30 33 C -0.238741 2.388732 -2.887156 0
M  V30 34 C 0.979616 2.513121 -2.256302 0
M  V30 35 C 1.769895 1.375959 -2.121073 0
M  V30 36 H 5.359137 2.992210 3.159757 0
M  V30 37 H 5.303327 2.191279 4.784426 0
M  V30 38 H 4.040914 1.790939 3.605879 0
M  V30 39 H 6.932923 1.038917 3.727854 0
M  V30 40 H 6.138746 0.949339 2.148988 0
M  V30 41 H 6.026408 -1.247732 3.387388 0
M  V30 42 H 5.350135 -0.397507 4.787245 0
M  V30 43 H 3.265553 -0.703881 3.941678 0
M  V30 44 H 1.379202 -0.981709 3.389734 0
M  V30 45 H -1.834091 -1.495404 -0.835764 0
M  V30 46 H -2.038460 -1.457732 2.937208 0
M  V30 47 H -4.059143 -1.724934 4.194310 0
M  V30 48 H -4.138729 -1.829091 -0.715042 0
M  V30 49 H -6.261538 -0.558677 -0.831020 0
M  V30 50 H -7.456546 -0.202997 0.522461 0
M  V30 51 H -7.914498 -1.315994 -0.881587 0
M  V30 52 H -7.730598 -3.915411 0.084199 0
M  V30 53 H -6.845481 -3.244263 -1.309570 0
M  V30 54 H -5.962341 -4.107276 0.070388 0
M  V30 55 H 3.881903 -0.692143 -0.875979 0
M  V30 56 H 1.914129 -1.915247 -2.561487 0
M  V30 57 H 4.035142 0.194172 -3.202628 0
M  V30 58 H 3.102275 -0.897909 -4.339375 0
M  V30 59 H 4.103977 -2.678719 -3.393945 0
M  V30 60 H -0.080339 -0.970417 -3.564132 0
M  V30 61 H -1.591160 0.984366 -3.872379 0
M  V30 62 H -0.908870 3.218289 -3.032172 0
M  V30 63 H 1.269937 3.490335 -1.892717 0
M  V30 64 H 2.713699 1.577135 -1.608780 0
M  V30 END ATOM
M  V30 BEGIN BOND
M  V30 1 1 1 2
M  V30 2 1 2 3
M  V30 3 1 3 4
M  V30 4 1 4 5
M  V30 5 2 5 6
M  V30 6 1 5 7
M  V30 7 2 7 8
M  V30 8 1 8 9
M  V30 9 2 9 10
M  V30 10 1 10 11
M  V30 11 1 11 12
M  V30 12 2 12 13
M  V30 13 1 13 14
M  V30 14 2 14 15
M  V30 15 1 15 16
M  V30 16 2 16 17
M  V30 17 1 16 18
M  V30 18 1 18 19
M  V30 19 1 18 20
M  V30 20 1 18 21
M  V30 21 1 21 22
M  V30 22 2 22 23
M  V30 23 1 10 24
M  V30 24 2 24 25
M  V30 25 1 25 26
M  V30 26 1 26 27
M  V30 27 1 27 28
M  V30 28 1 28 29
M  V30 29 1 27 30
M  V30 30 2 30 31
M  V30 31 1 31 32
M  V30 32 2 32 33
M  V30 33 1 33 34
M  V30 34 2 34 35
M  V30 35 1 25 7
M  V30 36 1 35 30
M  V30 37 1 17 12
M  V30 38 1 22 15
M  V30 39 1 1 36
M  V30 40 1 1 37
M  V30 41 1 1 38
M  V30 42 1 2 39
M  V30 43 1 2 40
M  V30 44 1 3 41
M  V30 45 1 3 42
M  V30 46 1 4 43
M  V30 47 1 8 44
M  V30 48 1 11 45
M  V30 49 1 13 46
M  V30 50 1 14 47
M  V30 51 1 17 48
M  V30 52 1 19 49
M  V30 53 1 19 50
M  V30 54 1 19 51
M  V30 55 1 20 52
M  V30 56 1 20 53
M  V30 57 1 20 54
M  V30 58 1 26 55
M  V30 59 1 27 56 CFG=1
M  V30 60 1 28 57
M  V30 61 1 28 58
M  V30 62 1 29 59
M  V30 63 1 31 60
M  V30 64 1 32 61
M  V30 65 1 33 62
M  V30 66 1 34 63
M  V30 67 1 35 64
M  V30 END BOND
M  V30 END CTAB
M  END
>  <Dataset>  (602) 
ChEMBL_Kinases

>  <Ligand_Instance>  (602) 
nan

>  <PDB_ID>  (602) 
nan

>  <Standardized_SMILES>  (602) 
CCCNC(=O)c1cnc(Nc2ccc3c(c2)C(C)(C)OC3=O)nc1N[C@H](CO)c1ccccc1

>  <Name>  (602) 
nan

>  <Pocket>  (602) 
nan

>  <ATP_Site>  (602) 
nan

>  <Peripheral>  (602) 
nan

>  <Num_H_Atoms_ProtBoundConf>  (602) 
nan

>  <Num_Resolved_Atoms>  (602) 
nan

>  <Num_Not_Resolved_Atoms>  (602) 
nan

$$$$
CHEMBL523523
     RDKit          3D

  0  0  0  0  0  0  0  0  0  0999 V3000
M  V30 BEGIN CTAB
M  V30 COUNTS 45 47 0 0 0
M  V30 BEGIN ATOM
M  V30 1 C 1.426005 -2.860812 2.317592 0
M  V30 2 C 0.666195 -2.949498 0.993018 0
M  V30 3 N 0.880574 -1.705885 0.287229 0
M  V30 4 C 1.889161 -1.487203 -0.572232 0
M  V30 5 C 2.957057 -2.383593 -0.990119 0
M  V30 6 N 3.228476 -3.643675 -0.645937 0
M  V30 7 O 4.290678 -4.048807 -1.273758 0
M  V30 8 N 4.755467 -3.107272 -2.036610 0
M  V30 9 C 3.946682 -2.043826 -1.887964 0
M  V30 10 N 4.137063 -0.806174 -2.572156 0
M  V30 11 N 1.765431 -0.214800 -1.033534 0
M  V30 12 C 0.685719 0.344754 -0.459607 0
M  V30 13 C 0.184714 1.606472 -0.629986 0
M  V30 14 C 0.771597 2.585827 -1.501603 0
M  V30 15 C 1.249709 3.407461 -2.248819 0
M  V30 16 C 1.809275 4.418070 -3.156283 0
M  V30 17 O 3.140713 4.719840 -2.832556 0
M  V30 18 N -0.919352 1.923096 0.068607 0
M  V30 19 C -1.495237 1.034928 0.892235 0
M  V30 20 C -1.056217 -0.247290 1.119179 0
M  V30 21 O -1.492332 -1.265924 1.892777 0
M  V30 22 C -2.563263 -1.383245 2.769504 0
M  V30 23 C -2.543069 -0.456885 3.958083 0
M  V30 24 C -3.790084 -0.727694 4.805145 0
M  V30 25 N -3.791747 -2.105702 5.258242 0
M  V30 26 C 0.095347 -0.593064 0.396793 0
M  V30 27 H 2.479909 -3.197744 2.197118 0
M  V30 28 H 1.393795 -1.840836 2.714697 0
M  V30 29 H 0.956657 -3.533155 3.060897 0
M  V30 30 H 1.079877 -3.777853 0.366229 0
M  V30 31 H -0.383013 -3.173963 1.178853 0
M  V30 32 H 4.859431 -0.108392 -2.226299 0
M  V30 33 H 3.712374 -0.341366 -3.419337 0
M  V30 34 H 1.260047 5.393427 -3.007016 0
M  V30 35 H 1.701928 4.026586 -4.178574 0
M  V30 36 H 3.098362 5.205366 -1.951605 0
M  V30 37 H -2.378382 1.310714 1.425998 0
M  V30 38 H -3.559459 -1.286700 2.233195 0
M  V30 39 H -2.553051 -2.446371 3.144439 0
M  V30 40 H -1.664776 -0.678840 4.628772 0
M  V30 41 H -2.513832 0.580682 3.613629 0
M  V30 42 H -4.684711 -0.602921 4.159407 0
M  V30 43 H -3.797451 -0.073788 5.700057 0
M  V30 44 H -4.582363 -2.671224 4.852420 0
M  V30 45 H -3.825072 -2.165727 6.310026 0
M  V30 END ATOM
M  V30 BEGIN BOND
M  V30 1 1 1 2
M  V30 2 1 2 3
M  V30 3 1 3 4
M  V30 4 1 4 5
M  V30 5 2 5 6
M  V30 6 1 6 7
M  V30 7 1 7 8
M  V30 8 2 8 9
M  V30 9 1 9 10
M  V30 10 2 4 11
M  V30 11 1 11 12
M  V30 12 2 12 13
M  V30 13 1 13 14
M  V30 14 3 14 15
M  V30 15 1 15 16
M  V30 16 1 16 17
M  V30 17 1 13 18
M  V30 18 2 18 19
M  V30 19 1 19 20
M  V30 20 1 20 21
M  V30 21 1 21 22
M  V30 22 1 22 23
M  V30 23 1 23 24
M  V30 24 1 24 25
M  V30 25 2 20 26
M  V30 26 1 26 3
M  V30 27 1 9 5
M  V30 28 1 26 12
M  V30 29 1 1 27
M  V30 30 1 1 28
M  V30 31 1 1 29
M  V30 32 1 2 30
M  V30 33 1 2 31
M  V30 34 1 10 32
M  V30 35 1 10 33
M  V30 36 1 16 34
M  V30 37 1 16 35
M  V30 38 1 17 36
M  V30 39 1 19 37
M  V30 40 1 22 38
M  V30 41 1 22 39
M  V30 42 1 23 40
M  V30 43 1 23 41
M  V30 44 1 24 42
M  V30 45 1 24 43
M  V30 46 1 25 44
M  V30 47 1 25 45
M  V30 END BOND
M  V30 END CTAB
M  END
>  <Dataset>  (603) 
ChEMBL_Kinases

>  <Ligand_Instance>  (603) 
nan

>  <PDB_ID>  (603) 
nan

>  <Standardized_SMILES>  (603) 
CCn1c(-c2nonc2N)nc2c(C#CCO)ncc(OCCCN)c21

>  <Name>  (603) 
nan

>  <Pocket>  (603) 
nan

>  <ATP_Site>  (603) 
nan

>  <Peripheral>  (603) 
nan

>  <Num_H_Atoms_ProtBoundConf>  (603) 
nan

>  <Num_Resolved_Atoms>  (603) 
nan

>  <Num_Not_Resolved_Atoms>  (603) 
nan

$$$$
CHEMBL132416
     RDKit          3D

  0  0  0  0  0  0  0  0  0  0999 V3000
M  V30 BEGIN CTAB
M  V30 COUNTS 50 53 0 0 0
M  V30 BEGIN ATOM
M  V30 1 N 4.400126 -7.389505 0.142215 0
M  V30 2 C 4.417736 -6.272983 -0.167639 0
M  V30 3 C 4.425254 -4.899182 -0.549757 0
M  V30 4 C 5.570638 -4.343057 -1.073839 0
M  V30 5 C 5.609793 -3.023325 -1.451248 0
M  V30 6 C 4.524968 -2.179279 -1.333723 0
M  V30 7 N 4.585234 -0.818753 -1.729190 0
M  V30 8 C 3.582640 0.181936 -1.681680 0
M  V30 9 N 3.877218 1.418248 -2.118269 0
M  V30 10 C 3.006732 2.422862 -2.114531 0
M  V30 11 C 1.733143 2.203696 -1.642609 0
M  V30 12 C 1.389756 0.972212 -1.191589 0
M  V30 13 C 0.052168 0.694765 -0.682938 0
M  V30 14 C -0.353420 -0.527335 -0.214464 0
M  V30 15 C -1.613863 -0.807703 0.270077 0
M  V30 16 C -2.553014 0.187231 0.298684 0
M  V30 17 S -4.154765 -0.127425 0.902839 0
M  V30 18 O -4.555320 -1.508488 0.471842 0
M  V30 19 O -5.079555 0.816672 0.150942 0
M  V30 20 N -4.388590 0.121762 2.549976 0
M  V30 21 C -4.193170 1.412284 3.054251 0
M  V30 22 C -3.328680 1.557692 4.253276 0
M  V30 23 N -2.595184 0.429187 4.680476 0
M  V30 24 C -2.852172 -0.817575 4.083405 0
M  V30 25 C -4.176809 -0.983928 3.417306 0
M  V30 26 C -2.188198 1.436290 -0.164063 0
M  V30 27 C -0.914469 1.667061 -0.639199 0
M  V30 28 N 2.338522 0.026604 -1.236904 0
M  V30 29 C 3.410720 -2.791807 -0.804122 0
M  V30 30 C 3.320029 -4.107942 -0.411047 0
M  V30 31 H 6.465393 -4.943131 -1.197341 0
M  V30 32 H 6.540567 -2.637552 -1.858848 0
M  V30 33 H 5.534220 -0.528720 -2.116083 0
M  V30 34 H 3.383812 3.377106 -2.499892 0
M  V30 35 H 1.087021 3.045160 -1.666280 0
M  V30 36 H 0.330201 -1.355750 -0.206521 0
M  V30 37 H -1.895508 -1.789476 0.632153 0
M  V30 38 H -3.864059 2.069518 2.196380 0
M  V30 39 H -5.201738 1.838052 3.308296 0
M  V30 40 H -2.573790 2.366064 4.025352 0
M  V30 41 H -3.873450 1.963356 5.134732 0
M  V30 42 H -1.573474 0.557417 4.820668 0
M  V30 43 H -2.790355 -1.612286 4.880155 0
M  V30 44 H -2.028700 -1.105562 3.369414 0
M  V30 45 H -4.949726 -1.009356 4.197550 0
M  V30 46 H -4.181401 -1.914971 2.833467 0
M  V30 47 H -2.965896 2.188370 -0.120529 0
M  V30 48 H -0.761381 2.668283 -0.965137 0
M  V30 49 H 2.501329 -2.231154 -0.665017 0
M  V30 50 H 2.420989 -4.537017 -0.001733 0
M  V30 END ATOM
M  V30 BEGIN BOND
M  V30 1 3 1 2
M  V30 2 1 2 3
M  V30 3 2 3 4
M  V30 4 1 4 5
M  V30 5 2 5 6
M  V30 6 1 6 7
M  V30 7 1 7 8
M  V30 8 2 8 9
M  V30 9 1 9 10
M  V30 10 2 10 11
M  V30 11 1 11 12
M  V30 12 1 12 13
M  V30 13 2 13 14
M  V30 14 1 14 15
M  V30 15 2 15 16
M  V30 16 1 16 17
M  V30 17 2 17 18
M  V30 18 2 17 19
M  V30 19 1 17 20
M  V30 20 1 20 21
M  V30 21 1 21 22
M  V30 22 1 22 23
M  V30 23 1 23 24
M  V30 24 1 24 25
M  V30 25 1 16 26
M  V30 26 2 26 27
M  V30 27 2 12 28
M  V30 28 1 6 29
M  V30 29 2 29 30
M  V30 30 1 30 3
M  V30 31 1 28 8
M  V30 32 1 27 13
M  V30 33 1 25 20
M  V30 34 1 4 31
M  V30 35 1 5 32
M  V30 36 1 7 33
M  V30 37 1 10 34
M  V30 38 1 11 35
M  V30 39 1 14 36
M  V30 40 1 15 37
M  V30 41 1 21 38
M  V30 42 1 21 39
M  V30 43 1 22 40
M  V30 44 1 22 41
M  V30 45 1 23 42
M  V30 46 1 24 43
M  V30 47 1 24 44
M  V30 48 1 25 45
M  V30 49 1 25 46
M  V30 50 1 26 47
M  V30 51 1 27 48
M  V30 52 1 29 49
M  V30 53 1 30 50
M  V30 END BOND
M  V30 END CTAB
M  END
>  <Dataset>  (604) 
ChEMBL_Kinases

>  <Ligand_Instance>  (604) 
nan

>  <PDB_ID>  (604) 
nan

>  <Standardized_SMILES>  (604) 
N#Cc1ccc(Nc2nccc(-c3ccc(S(=O)(=O)N4CCNCC4)cc3)n2)cc1

>  <Name>  (604) 
nan

>  <Pocket>  (604) 
nan

>  <ATP_Site>  (604) 
nan

>  <Peripheral>  (604) 
nan

>  <Num_H_Atoms_ProtBoundConf>  (604) 
nan

>  <Num_Resolved_Atoms>  (604) 
nan

>  <Num_Not_Resolved_Atoms>  (604) 
nan

$$$$
CHEMBL523374
     RDKit          3D

  0  0  0  0  0  0  0  0  0  0999 V3000
M  V30 BEGIN CTAB
M  V30 COUNTS 52 56 0 0 0
M  V30 BEGIN ATOM
M  V30 1 C -4.323165 -6.987408 2.240881 0
M  V30 2 N -3.581451 -6.585704 1.050715 0
M  V30 3 C -2.936432 -5.310017 0.962616 0
M  V30 4 N -2.952209 -4.385772 1.941480 0
M  V30 5 O -2.284554 -3.332546 1.577143 0
M  V30 6 C -1.797821 -3.485014 0.370765 0
M  V30 7 C -1.038719 -2.761741 -0.528220 0
M  V30 8 C -0.599428 -1.420945 -0.105764 0
M  V30 9 C 0.589998 -1.175707 0.559652 0
M  V30 10 C 0.904129 0.128768 0.910560 0
M  V30 11 C 0.022556 1.120363 0.583162 0
M  V30 12 C 0.400701 2.393192 0.963482 0
M  V30 13 N 1.582645 2.786981 1.645989 0
M  V30 14 C 2.160887 2.464722 2.926502 0
M  V30 15 C 3.627040 2.154576 2.892164 0
M  V30 16 O 4.331930 2.784376 1.915634 0
M  V30 17 C 3.729451 2.940841 0.698332 0
M  V30 18 C 2.425395 3.708733 0.953756 0 CFG=2
M  V30 19 C 2.767247 4.886926 1.836680 0
M  V30 20 N -0.417082 3.423403 0.675307 0
M  V30 21 N -1.568916 3.240866 0.038686 0
M  V30 22 C -1.972193 2.014246 -0.348434 0
M  V30 23 C -1.171453 0.921786 -0.078091 0
M  V30 24 C -1.479073 -0.394549 -0.427220 0
M  V30 25 C -0.679598 -3.222689 -1.774501 0
M  V30 26 C 0.141913 -2.397052 -2.703497 0
M  V30 27 C -1.111142 -4.488916 -2.137503 0
M  V30 28 C -1.872764 -5.265653 -1.287732 0
M  V30 29 C -2.194579 -4.747417 -0.063410 0
M  V30 30 H -4.213580 -8.091488 2.360776 0
M  V30 31 H -3.870543 -6.450707 3.114749 0
M  V30 32 H -5.386983 -6.690751 2.201821 0
M  V30 33 H -3.532164 -7.259092 0.256017 0
M  V30 34 H 1.215462 -2.020079 0.772023 0
M  V30 35 H 1.833689 0.315845 1.429930 0
M  V30 36 H 1.568334 1.657670 3.401800 0
M  V30 37 H 2.029330 3.354238 3.577091 0
M  V30 38 H 4.093166 2.396143 3.873909 0
M  V30 39 H 3.724634 1.049341 2.775724 0
M  V30 40 H 4.360473 3.677844 0.123780 0
M  V30 41 H 3.582429 2.037804 0.103594 0
M  V30 42 H 2.022019 4.109883 0.008704 0
M  V30 43 H 3.323514 5.655924 1.234764 0
M  V30 44 H 1.846739 5.323661 2.271817 0
M  V30 45 H 3.444444 4.600606 2.645662 0
M  V30 46 H -2.903425 1.812906 -0.870717 0
M  V30 47 H -2.418488 -0.537155 -0.945547 0
M  V30 48 H -0.166526 -1.334222 -2.735426 0
M  V30 49 H -0.033623 -2.797342 -3.742957 0
M  V30 50 H 1.191910 -2.575082 -2.462500 0
M  V30 51 H -0.849120 -4.883693 -3.106611 0
M  V30 52 H -2.200663 -6.257444 -1.593847 0
M  V30 END ATOM
M  V30 BEGIN BOND
M  V30 1 1 1 2
M  V30 2 1 2 3
M  V30 3 2 3 4
M  V30 4 1 4 5
M  V30 5 1 5 6
M  V30 6 2 6 7
M  V30 7 1 7 8
M  V30 8 2 8 9
M  V30 9 1 9 10
M  V30 10 2 10 11
M  V30 11 1 11 12
M  V30 12 1 12 13
M  V30 13 1 13 14
M  V30 14 1 14 15
M  V30 15 1 15 16
M  V30 16 1 16 17
M  V30 17 1 17 18
M  V30 18 1 18 19
M  V30 19 2 12 20
M  V30 20 1 20 21
M  V30 21 2 21 22
M  V30 22 1 22 23
M  V30 23 2 23 24
M  V30 24 1 7 25
M  V30 25 1 25 26
M  V30 26 2 25 27
M  V30 27 1 27 28
M  V30 28 2 28 29
M  V30 29 1 29 3
M  V30 30 1 29 6
M  V30 31 1 24 8
M  V30 32 1 23 11
M  V30 33 1 18 13
M  V30 34 1 1 30
M  V30 35 1 1 31
M  V30 36 1 1 32
M  V30 37 1 2 33
M  V30 38 1 9 34
M  V30 39 1 10 35
M  V30 40 1 14 36
M  V30 41 1 14 37
M  V30 42 1 15 38
M  V30 43 1 15 39
M  V30 44 1 17 40
M  V30 45 1 17 41
M  V30 46 1 18 42 CFG=3
M  V30 47 1 19 43
M  V30 48 1 19 44
M  V30 49 1 19 45
M  V30 50 1 22 46
M  V30 51 1 24 47
M  V30 52 1 26 48
M  V30 53 1 26 49
M  V30 54 1 26 50
M  V30 55 1 27 51
M  V30 56 1 28 52
M  V30 END BOND
M  V30 END CTAB
M  END
>  <Dataset>  (605) 
ChEMBL_Kinases

>  <Ligand_Instance>  (605) 
nan

>  <PDB_ID>  (605) 
nan

>  <Standardized_SMILES>  (605) 
CNc1noc2c(-c3ccc4c(N5CCOC[C@@H]5C)nncc4c3)c(C)ccc12

>  <Name>  (605) 
nan

>  <Pocket>  (605) 
nan

>  <ATP_Site>  (605) 
nan

>  <Peripheral>  (605) 
nan

>  <Num_H_Atoms_ProtBoundConf>  (605) 
nan

>  <Num_Resolved_Atoms>  (605) 
nan

>  <Num_Not_Resolved_Atoms>  (605) 
nan

$$$$
CHEMBL523194
     RDKit          3D

  0  0  0  0  0  0  0  0  0  0999 V3000
M  V30 BEGIN CTAB
M  V30 COUNTS 62 66 0 0 0
M  V30 BEGIN ATOM
M  V30 1 C 3.886134 -3.559858 3.768858 0
M  V30 2 N 3.158553 -2.453548 3.230931 0
M  V30 3 C 3.452348 -1.176647 3.785689 0
M  V30 4 C 4.644553 -0.468215 3.236131 0
M  V30 5 N 4.635812 -0.471943 1.760822 0
M  V30 6 C 3.642118 0.478841 1.287646 0
M  V30 7 C 3.620414 0.537349 -0.192819 0
M  V30 8 O 2.724188 1.437482 -0.771254 0
M  V30 9 C 1.366896 1.414974 -0.678227 0
M  V30 10 C 0.890090 2.522090 -1.400683 0
M  V30 11 C -0.476704 2.815472 -1.523608 0
M  V30 12 C -1.425226 1.985452 -0.909587 0
M  V30 13 C -2.826371 2.263655 -1.008436 0
M  V30 14 C -3.354724 3.518456 -0.708918 0
M  V30 15 N -4.675108 3.743179 -0.806914 0
M  V30 16 C -5.571317 2.819015 -1.186782 0
M  V30 17 C -5.064623 1.558760 -1.490512 0
M  V30 18 C -6.052374 0.571401 -1.899424 0
M  V30 19 N -6.837053 -0.208064 -2.203247 0
M  V30 20 C -3.704807 1.273594 -1.405283 0
M  V30 21 N -3.388753 -0.041726 -1.750627 0
M  V30 22 C -3.314930 -1.380542 -1.276848 0
M  V30 23 C -2.809784 -2.340871 -2.126319 0
M  V30 24 C -2.774135 -3.607306 -1.597126 0
M  V30 25 C -3.199771 -3.916752 -0.331930 0
M  V30 26 N -3.202608 -5.138558 0.275708 0
M  V30 27 C -3.714419 -4.952433 1.522992 0
M  V30 28 C -4.031070 -3.621502 1.698124 0
M  V30 29 C -3.715632 -2.946984 0.541455 0
M  V30 30 C -3.742559 -1.682443 -0.009365 0
M  V30 31 C -0.929175 0.906944 -0.207009 0
M  V30 32 C 0.409403 0.622232 -0.089057 0
M  V30 33 C 4.402843 -1.826943 1.297301 0
M  V30 34 C 3.109245 -2.385180 1.802642 0
M  V30 35 H 4.591643 -3.191112 4.536016 0
M  V30 36 H 4.371963 -4.192210 3.005243 0
M  V30 37 H 3.150759 -4.198250 4.321310 0
M  V30 38 H 2.562927 -0.519841 3.661059 0
M  V30 39 H 3.622671 -1.269541 4.889266 0
M  V30 40 H 4.563987 0.598710 3.525726 0
M  V30 41 H 5.619866 -0.837696 3.559869 0
M  V30 42 H 2.696501 0.138040 1.740138 0
M  V30 43 H 3.860246 1.473113 1.750444 0
M  V30 44 H 3.337507 -0.495590 -0.552092 0
M  V30 45 H 4.641769 0.701641 -0.586867 0
M  V30 46 H 1.453782 3.294080 -1.953636 0
M  V30 47 H -0.899310 3.641216 -2.059527 0
M  V30 48 H -2.714995 4.337001 -0.392052 0
M  V30 49 H -6.637033 3.052022 -1.251107 0
M  V30 50 H -3.122904 0.179804 -2.759164 0
M  V30 51 H -2.484676 -2.069796 -3.110658 0
M  V30 52 H -2.374162 -4.389401 -2.255062 0
M  V30 53 H -2.896283 -6.060097 -0.072931 0
M  V30 54 H -3.874771 -5.692867 2.307405 0
M  V30 55 H -4.452369 -3.060797 2.523279 0
M  V30 56 H -4.139911 -0.906025 0.651243 0
M  V30 57 H -1.566211 0.208255 0.310900 0
M  V30 58 H 0.839723 -0.204130 0.432141 0
M  V30 59 H 5.203752 -2.507530 1.699412 0
M  V30 60 H 4.465075 -1.867248 0.222676 0
M  V30 61 H 3.037989 -3.426387 1.403175 0
M  V30 62 H 2.209829 -1.846982 1.503175 0
M  V30 END ATOM
M  V30 BEGIN BOND
M  V30 1 1 1 2
M  V30 2 1 2 3
M  V30 3 1 3 4
M  V30 4 1 4 5
M  V30 5 1 5 6
M  V30 6 1 6 7
M  V30 7 1 7 8
M  V30 8 1 8 9
M  V30 9 2 9 10
M  V30 10 1 10 11
M  V30 11 2 11 12
M  V30 12 1 12 13
M  V30 13 2 13 14
M  V30 14 1 14 15
M  V30 15 2 15 16
M  V30 16 1 16 17
M  V30 17 1 17 18
M  V30 18 3 18 19
M  V30 19 2 17 20
M  V30 20 1 20 21
M  V30 21 1 21 22
M  V30 22 2 22 23
M  V30 23 1 23 24
M  V30 24 2 24 25
M  V30 25 1 25 26
M  V30 26 1 26 27
M  V30 27 2 27 28
M  V30 28 1 28 29
M  V30 29 2 29 30
M  V30 30 1 12 31
M  V30 31 2 31 32
M  V30 32 1 5 33
M  V30 33 1 33 34
M  V30 34 1 34 2
M  V30 35 1 32 9
M  V30 36 1 20 13
M  V30 37 1 30 22
M  V30 38 1 29 25
M  V30 39 1 1 35
M  V30 40 1 1 36
M  V30 41 1 1 37
M  V30 42 1 3 38
M  V30 43 1 3 39
M  V30 44 1 4 40
M  V30 45 1 4 41
M  V30 46 1 6 42
M  V30 47 1 6 43
M  V30 48 1 7 44
M  V30 49 1 7 45
M  V30 50 1 10 46
M  V30 51 1 11 47
M  V30 52 1 14 48
M  V30 53 1 16 49
M  V30 54 1 21 50
M  V30 55 1 23 51
M  V30 56 1 24 52
M  V30 57 1 26 53
M  V30 58 1 27 54
M  V30 59 1 28 55
M  V30 60 1 30 56
M  V30 61 1 31 57
M  V30 62 1 32 58
M  V30 63 1 33 59
M  V30 64 1 33 60
M  V30 65 1 34 61
M  V30 66 1 34 62
M  V30 END BOND
M  V30 END CTAB
M  END
>  <Dataset>  (606) 
ChEMBL_Kinases

>  <Ligand_Instance>  (606) 
nan

>  <PDB_ID>  (606) 
nan

>  <Standardized_SMILES>  (606) 
CN1CCN(CCOc2ccc(-c3cncc(C#N)c3Nc3ccc4[nH]ccc4c3)cc2)CC1

>  <Name>  (606) 
nan

>  <Pocket>  (606) 
nan

>  <ATP_Site>  (606) 
nan

>  <Peripheral>  (606) 
nan

>  <Num_H_Atoms_ProtBoundConf>  (606) 
nan

>  <Num_Resolved_Atoms>  (606) 
nan

>  <Num_Not_Resolved_Atoms>  (606) 
nan

$$$$
CHEMBL523057
     RDKit          3D

  0  0  0  0  0  0  0  0  0  0999 V3000
M  V30 BEGIN CTAB
M  V30 COUNTS 47 50 0 0 0
M  V30 BEGIN ATOM
M  V30 1 C 1.028919 -3.832124 1.223986 0
M  V30 2 C 0.902406 -2.929801 0.001665 0
M  V30 3 N 1.167575 -1.546207 0.344739 0
M  V30 4 C 2.376053 -0.960319 0.299426 0
M  V30 5 C 3.665411 -1.517026 -0.081706 0
M  V30 6 N 4.026779 -2.744396 -0.490068 0
M  V30 7 O 5.299739 -2.786163 -0.723035 0
M  V30 8 N 5.851854 -1.643059 -0.497138 0
M  V30 9 C 4.848964 -0.816278 -0.090084 0
M  V30 10 N 5.073303 0.538413 0.252355 0
M  V30 11 N 2.233428 0.325818 0.686818 0
M  V30 12 C 0.934122 0.526740 0.969851 0
M  V30 13 C 0.294728 1.667376 1.403417 0
M  V30 14 C 0.944579 2.949213 1.651305 0
M  V30 15 C 1.886084 3.648064 0.888321 0
M  V30 16 C 2.179473 4.813147 1.568312 0
M  V30 17 N 1.460163 4.866974 2.720645 0
M  V30 18 C 0.717212 3.745295 2.770307 0
M  V30 19 N -1.032225 1.620159 1.622316 0
M  V30 20 C -1.734956 0.490499 1.426754 0
M  V30 21 C -1.165859 -0.685383 0.995029 0
M  V30 22 O -1.677845 -1.912519 0.739956 0
M  V30 23 C -2.938234 -2.446965 0.799369 0
M  V30 24 C -3.913158 -1.802954 -0.136420 0
M  V30 25 C -5.291876 -2.426593 -0.041888 0
M  V30 26 N -5.772743 -2.269945 1.298321 0
M  V30 27 C 0.215948 -0.658015 0.761047 0
M  V30 28 H 2.030394 -4.239088 1.373062 0
M  V30 29 H 0.782427 -3.260570 2.158126 0
M  V30 30 H 0.313423 -4.663086 1.110378 0
M  V30 31 H -0.071380 -3.033066 -0.486152 0
M  V30 32 H 1.723368 -3.280756 -0.683553 0
M  V30 33 H 6.011473 0.884544 0.549531 0
M  V30 34 H 4.360187 1.300388 0.245192 0
M  V30 35 H 2.200046 3.193886 -0.031895 0
M  V30 36 H 2.906881 5.521238 1.141749 0
M  V30 37 H 1.517743 5.658302 3.399207 0
M  V30 38 H 0.024071 3.472505 3.566207 0
M  V30 39 H -2.775659 0.463467 1.612788 0
M  V30 40 H -3.324618 -2.376252 1.861947 0
M  V30 41 H -2.956197 -3.553348 0.590035 0
M  V30 42 H -4.042053 -0.745310 0.109236 0
M  V30 43 H -3.489701 -1.928375 -1.170192 0
M  V30 44 H -5.968073 -1.834261 -0.698423 0
M  V30 45 H -5.328281 -3.465558 -0.408468 0
M  V30 46 H -5.312101 -2.974313 1.916589 0
M  V30 47 H -5.591705 -1.298572 1.602630 0
M  V30 END ATOM
M  V30 BEGIN BOND
M  V30 1 1 1 2
M  V30 2 1 2 3
M  V30 3 1 3 4
M  V30 4 1 4 5
M  V30 5 2 5 6
M  V30 6 1 6 7
M  V30 7 1 7 8
M  V30 8 2 8 9
M  V30 9 1 9 10
M  V30 10 2 4 11
M  V30 11 1 11 12
M  V30 12 2 12 13
M  V30 13 1 13 14
M  V30 14 1 14 15
M  V30 15 2 15 16
M  V30 16 1 16 17
M  V30 17 1 17 18
M  V30 18 1 13 19
M  V30 19 2 19 20
M  V30 20 1 20 21
M  V30 21 1 21 22
M  V30 22 1 22 23
M  V30 23 1 23 24
M  V30 24 1 24 25
M  V30 25 1 25 26
M  V30 26 2 21 27
M  V30 27 1 27 3
M  V30 28 1 9 5
M  V30 29 1 27 12
M  V30 30 2 18 14
M  V30 31 1 1 28
M  V30 32 1 1 29
M  V30 33 1 1 30
M  V30 34 1 2 31
M  V30 35 1 2 32
M  V30 36 1 10 33
M  V30 37 1 10 34
M  V30 38 1 15 35
M  V30 39 1 16 36
M  V30 40 1 17 37
M  V30 41 1 18 38
M  V30 42 1 20 39
M  V30 43 1 23 40
M  V30 44 1 23 41
M  V30 45 1 24 42
M  V30 46 1 24 43
M  V30 47 1 25 44
M  V30 48 1 25 45
M  V30 49 1 26 46
M  V30 50 1 26 47
M  V30 END BOND
M  V30 END CTAB
M  END
>  <Dataset>  (607) 
ChEMBL_Kinases

>  <Ligand_Instance>  (607) 
nan

>  <PDB_ID>  (607) 
nan

>  <Standardized_SMILES>  (607) 
CCn1c(-c2nonc2N)nc2c(-c3cc[nH]c3)ncc(OCCCN)c21

>  <Name>  (607) 
nan

>  <Pocket>  (607) 
nan

>  <ATP_Site>  (607) 
nan

>  <Peripheral>  (607) 
nan

>  <Num_H_Atoms_ProtBoundConf>  (607) 
nan

>  <Num_Resolved_Atoms>  (607) 
nan

>  <Num_Not_Resolved_Atoms>  (607) 
nan

$$$$
CHEMBL523053
     RDKit          3D

  0  0  0  0  0  0  0  0  0  0999 V3000
M  V30 BEGIN CTAB
M  V30 COUNTS 58 58 0 0 0
M  V30 BEGIN ATOM
M  V30 1 C 3.489502 -2.710746 6.489015 0
M  V30 2 C 2.075582 -2.378922 6.209718 0
M  V30 3 C 1.781570 -1.503412 5.068384 0
M  V30 4 C 2.145131 -1.909931 3.689483 0
M  V30 5 C 3.611345 -2.061126 3.477197 0
M  V30 6 C 4.289544 -0.726477 3.701411 0
M  V30 7 O 1.728239 -0.904779 2.758769 0
M  V30 8 C 0.796601 -1.171143 1.747739 0
M  V30 9 O 0.363801 -2.353667 1.728556 0
M  V30 10 C 0.411135 -0.080815 0.818597 0
M  V30 11 C 0.974145 1.172670 0.964598 0
M  V30 12 C 0.553418 2.138194 0.045923 0
M  V30 13 C 1.131055 3.505728 0.161004 0
M  V30 14 O 0.343598 4.301621 1.009323 0
M  V30 15 C -0.368453 1.811720 -0.927695 0
M  V30 16 C -0.899941 0.542426 -1.028923 0
M  V30 17 C -1.871360 0.266449 -2.083854 0
M  V30 18 O -2.207699 1.168161 -2.873562 0
M  V30 19 O -2.421964 -1.011770 -2.204332 0
M  V30 20 C -3.344978 -1.230078 -3.225365 0
M  V30 21 C -4.698961 -1.669295 -2.715946 0
M  V30 22 C -5.325306 -0.653715 -1.801433 0
M  V30 23 C -2.822157 -2.313919 -4.121515 0
M  V30 24 C -1.509461 -2.013789 -4.769621 0
M  V30 25 C -1.495301 -0.804570 -5.643988 0
M  V30 26 C -0.511073 -0.439480 -0.141725 0
M  V30 27 H 3.835736 -3.703859 6.110250 0
M  V30 28 H 3.605693 -2.874696 7.631827 0
M  V30 29 H 4.172325 -1.898003 6.213316 0
M  V30 30 H 1.412410 -3.296979 6.233546 0
M  V30 31 H 1.705873 -1.819113 7.140009 0
M  V30 32 H 0.642715 -1.316382 5.015082 0
M  V30 33 H 2.149009 -0.467725 5.321511 0
M  V30 34 H 1.609274 -2.874510 3.452989 0
M  V30 35 H 4.100897 -2.882978 3.993484 0
M  V30 36 H 3.745119 -2.241167 2.351320 0
M  V30 37 H 3.575182 0.048674 4.036202 0
M  V30 38 H 5.161231 -0.776173 4.384596 0
M  V30 39 H 4.720535 -0.300249 2.741082 0
M  V30 40 H 1.690130 1.348592 1.753822 0
M  V30 41 H 1.323640 3.972412 -0.810713 0
M  V30 42 H 2.128001 3.449697 0.676381 0
M  V30 43 H 0.074922 3.699710 1.758220 0
M  V30 44 H -0.678775 2.585048 -1.631345 0
M  V30 45 H -3.487486 -0.294190 -3.795791 0
M  V30 46 H -4.606803 -2.678174 -2.234297 0
M  V30 47 H -5.381831 -1.801051 -3.579694 0
M  V30 48 H -5.974966 -1.145615 -1.019528 0
M  V30 49 H -5.986188 0.052582 -2.318261 0
M  V30 50 H -4.507685 -0.191223 -1.213318 0
M  V30 51 H -2.672893 -3.211966 -3.489290 0
M  V30 52 H -3.602575 -2.599446 -4.884405 0
M  V30 53 H -1.254916 -2.882128 -5.401142 0
M  V30 54 H -0.741560 -1.993336 -3.969519 0
M  V30 55 H -1.479685 -1.077431 -6.739173 0
M  V30 56 H -2.327598 -0.121588 -5.465055 0
M  V30 57 H -0.508200 -0.276112 -5.503203 0
M  V30 58 H -0.914933 -1.439809 -0.203396 0
M  V30 END ATOM
M  V30 BEGIN BOND
M  V30 1 1 1 2
M  V30 2 1 2 3
M  V30 3 1 3 4
M  V30 4 1 4 5
M  V30 5 1 5 6
M  V30 6 1 4 7
M  V30 7 1 7 8
M  V30 8 2 8 9
M  V30 9 1 8 10
M  V30 10 2 10 11
M  V30 11 1 11 12
M  V30 12 1 12 13
M  V30 13 1 13 14
M  V30 14 2 12 15
M  V30 15 1 15 16
M  V30 16 1 16 17
M  V30 17 2 17 18
M  V30 18 1 17 19
M  V30 19 1 19 20
M  V30 20 1 20 21
M  V30 21 1 21 22
M  V30 22 1 20 23
M  V30 23 1 23 24
M  V30 24 1 24 25
M  V30 25 2 16 26
M  V30 26 1 26 10
M  V30 27 1 1 27
M  V30 28 1 1 28
M  V30 29 1 1 29
M  V30 30 1 2 30
M  V30 31 1 2 31
M  V30 32 1 3 32
M  V30 33 1 3 33
M  V30 34 1 4 34
M  V30 35 1 5 35
M  V30 36 1 5 36
M  V30 37 1 6 37
M  V30 38 1 6 38
M  V30 39 1 6 39
M  V30 40 1 11 40
M  V30 41 1 13 41
M  V30 42 1 13 42
M  V30 43 1 14 43
M  V30 44 1 15 44
M  V30 45 1 20 45
M  V30 46 1 21 46
M  V30 47 1 21 47
M  V30 48 1 22 48
M  V30 49 1 22 49
M  V30 50 1 22 50
M  V30 51 1 23 51
M  V30 52 1 23 52
M  V30 53 1 24 53
M  V30 54 1 24 54
M  V30 55 1 25 55
M  V30 56 1 25 56
M  V30 57 1 25 57
M  V30 58 1 26 58
M  V30 END BOND
M  V30 END CTAB
M  END
>  <Dataset>  (608) 
ChEMBL_Kinases

>  <Ligand_Instance>  (608) 
nan

>  <PDB_ID>  (608) 
nan

>  <Standardized_SMILES>  (608) 
CCCC(CC)OC(=O)c1cc(CO)cc(C(=O)OC(CC)CCC)c1

>  <Name>  (608) 
nan

>  <Pocket>  (608) 
nan

>  <ATP_Site>  (608) 
nan

>  <Peripheral>  (608) 
nan

>  <Num_H_Atoms_ProtBoundConf>  (608) 
nan

>  <Num_Resolved_Atoms>  (608) 
nan

>  <Num_Not_Resolved_Atoms>  (608) 
nan

$$$$
CHEMBL1969102
     RDKit          3D

  0  0  0  0  0  0  0  0  0  0999 V3000
M  V30 BEGIN CTAB
M  V30 COUNTS 52 56 0 0 0
M  V30 BEGIN ATOM
M  V30 1 C 3.340361 -2.725722 6.525346 0
M  V30 2 C 4.426296 -2.461333 5.547387 0
M  V30 3 C 5.735698 -2.677047 5.917770 0
M  V30 4 C 6.711742 -2.419884 4.982200 0
M  V30 5 C 6.403293 -1.964063 3.720838 0
M  V30 6 C 5.127725 -1.740994 3.322546 0
M  V30 7 N 4.865019 -1.270634 2.010170 0
M  V30 8 C 3.668860 -0.965143 1.357206 0
M  V30 9 O 2.589996 -1.107842 1.980571 0
M  V30 10 N 3.545164 -0.500388 0.034107 0
M  V30 11 C 2.210026 -0.252194 -0.425775 0
M  V30 12 C 1.509356 -1.273494 -1.033294 0
M  V30 13 C 0.231903 -0.969721 -1.452156 0
M  V30 14 C -0.379217 0.242823 -1.312529 0
M  V30 15 C -1.723971 0.595353 -1.720958 0
M  V30 16 C -1.777963 1.709281 -2.566386 0
M  V30 17 S -3.569271 1.887707 -2.943572 0
M  V30 18 C -4.081296 0.528850 -1.989673 0
M  V30 19 C -5.318380 -0.027558 -1.730107 0
M  V30 20 C -6.440547 0.629285 -2.379307 0
M  V30 21 C -7.628281 0.936115 -1.755448 0
M  V30 22 N -8.433185 1.537682 -2.661349 0
M  V30 23 N -7.785197 1.615492 -3.829370 0
M  V30 24 C -6.566172 1.065540 -3.676319 0
M  V30 25 C -5.490403 -1.125864 -0.916459 0
M  V30 26 N -4.336857 -1.583202 -0.414693 0
M  V30 27 C -3.125822 -1.074881 -0.641338 0
M  V30 28 N -2.159720 -1.828433 0.079295 0
M  V30 29 C -2.934531 0.019531 -1.450690 0
M  V30 30 C 0.421086 1.205213 -0.683890 0
M  V30 31 C 1.707473 1.016177 -0.225228 0
M  V30 32 C 4.170040 -2.005270 4.275159 0
M  V30 33 H 3.283696 -1.943266 7.292881 0
M  V30 34 H 2.366322 -2.716031 5.958546 0
M  V30 35 H 3.523525 -3.737175 6.934119 0
M  V30 36 H 5.965330 -3.035632 6.912573 0
M  V30 37 H 7.753159 -2.572192 5.220927 0
M  V30 38 H 7.213658 -1.778703 3.025685 0
M  V30 39 H 5.690728 -1.106330 1.373326 0
M  V30 40 H 4.434162 -0.368590 -0.520760 0
M  V30 41 H 1.910775 -2.264790 -1.186565 0
M  V30 42 H -0.313175 -1.765229 -1.939588 0
M  V30 43 H -1.052175 2.387835 -2.978412 0
M  V30 44 H -7.963065 0.768028 -0.720339 0
M  V30 45 H -8.079842 2.009426 -4.747356 0
M  V30 46 H -5.789689 0.962970 -4.415022 0
M  V30 47 H -6.478565 -1.484661 -0.774622 0
M  V30 48 H -1.763860 -2.787219 -0.101370 0
M  V30 49 H -1.606351 -1.641276 0.945152 0
M  V30 50 H -0.006067 2.200585 -0.539753 0
M  V30 51 H 2.237534 1.819862 0.244019 0
M  V30 52 H 3.125018 -1.859538 4.056192 0
M  V30 END ATOM
M  V30 BEGIN BOND
M  V30 1 1 1 2
M  V30 2 2 2 3
M  V30 3 1 3 4
M  V30 4 2 4 5
M  V30 5 1 5 6
M  V30 6 1 6 7
M  V30 7 1 7 8
M  V30 8 2 8 9
M  V30 9 1 8 10
M  V30 10 1 10 11
M  V30 11 2 11 12
M  V30 12 1 12 13
M  V30 13 2 13 14
M  V30 14 1 14 15
M  V30 15 2 15 16
M  V30 16 1 16 17
M  V30 17 1 17 18
M  V30 18 2 18 19
M  V30 19 1 19 20
M  V30 20 1 20 21
M  V30 21 2 21 22
M  V30 22 1 22 23
M  V30 23 1 23 24
M  V30 24 1 19 25
M  V30 25 2 25 26
M  V30 26 1 26 27
M  V30 27 1 27 28
M  V30 28 2 27 29
M  V30 29 1 14 30
M  V30 30 2 30 31
M  V30 31 2 6 32
M  V30 32 1 32 2
M  V30 33 1 31 11
M  V30 34 1 29 15
M  V30 35 1 29 18
M  V30 36 2 24 20
M  V30 37 1 1 33
M  V30 38 1 1 34
M  V30 39 1 1 35
M  V30 40 1 3 36
M  V30 41 1 4 37
M  V30 42 1 5 38
M  V30 43 1 7 39
M  V30 44 1 10 40
M  V30 45 1 12 41
M  V30 46 1 13 42
M  V30 47 1 16 43
M  V30 48 1 21 44
M  V30 49 1 23 45
M  V30 50 1 24 46
M  V30 51 1 25 47
M  V30 52 1 28 48
M  V30 53 1 28 49
M  V30 54 1 30 50
M  V30 55 1 31 51
M  V30 56 1 32 52
M  V30 END BOND
M  V30 END CTAB
M  END
>  <Dataset>  (609) 
ChEMBL_Kinases

>  <Ligand_Instance>  (609) 
nan

>  <PDB_ID>  (609) 
nan

>  <Standardized_SMILES>  (609) 
Cc1cccc(NC(=O)Nc2ccc(-c3csc4c(-c5cn[nH]c5)cnc(N)c34)cc2)c1

>  <Name>  (609) 
nan

>  <Pocket>  (609) 
nan

>  <ATP_Site>  (609) 
nan

>  <Peripheral>  (609) 
nan

>  <Num_H_Atoms_ProtBoundConf>  (609) 
nan

>  <Num_Resolved_Atoms>  (609) 
nan

>  <Num_Not_Resolved_Atoms>  (609) 
nan

$$$$
CHEMBL522891
     RDKit          3D

  0  0  0  0  0  0  0  0  0  0999 V3000
M  V30 BEGIN CTAB
M  V30 COUNTS 36 39 0 0 0
M  V30 BEGIN ATOM
M  V30 1 O -1.734941 -1.298085 -0.972413 0
M  V30 2 C -1.554355 -1.588890 0.253393 0
M  V30 3 N -0.427392 -2.387525 0.480104 0
M  V30 4 C 0.408732 -2.808323 -0.606270 0
M  V30 5 C 0.262627 -3.957257 -1.346661 0
M  V30 6 N 1.231017 -4.015361 -2.278282 0
M  V30 7 N 1.996711 -2.933827 -2.156952 0
M  V30 8 C 1.516224 -2.186796 -1.148195 0
M  V30 9 C 2.066128 -0.917583 -0.686294 0
M  V30 10 N 1.573673 -0.175155 0.329952 0
M  V30 11 C 2.334552 0.937670 0.479499 0
M  V30 12 C 2.244363 1.996982 1.368238 0
M  V30 13 C 3.192116 3.019767 1.278010 0
M  V30 14 C 4.193516 2.977021 0.327795 0
M  V30 15 C 4.263602 1.908303 -0.549677 0
M  V30 16 C 3.333146 0.867863 -0.488732 0
M  V30 17 N 3.136772 -0.270856 -1.175297 0
M  V30 18 C -2.461314 -1.113379 1.292468 0
M  V30 19 C -2.297294 -1.408181 2.630063 0
M  V30 20 C -3.181205 -0.937689 3.591010 0
M  V30 21 C -4.242692 -0.156409 3.165024 0
M  V30 22 C -4.445061 0.163557 1.834411 0
M  V30 23 C -3.532865 -0.331561 0.912629 0
M  V30 24 H -0.209971 -2.672639 1.481098 0
M  V30 25 H -0.509583 -4.694676 -1.200175 0
M  V30 26 H 1.323713 -4.800354 -2.960577 0
M  V30 27 H 1.454561 2.037141 2.122577 0
M  V30 28 H 3.110975 3.833933 1.971918 0
M  V30 29 H 4.937766 3.771450 0.250272 0
M  V30 30 H 5.037575 1.848129 -1.304740 0
M  V30 31 H 3.703949 -0.617616 -1.958926 0
M  V30 32 H -1.469186 -2.015444 2.946002 0
M  V30 33 H -3.088448 -1.143911 4.635998 0
M  V30 34 H -4.978660 0.250068 3.857471 0
M  V30 35 H -5.281812 0.774661 1.533416 0
M  V30 36 H -3.693270 -0.081901 -0.113174 0
M  V30 END ATOM
M  V30 BEGIN BOND
M  V30 1 2 1 2
M  V30 2 1 2 3
M  V30 3 1 3 4
M  V30 4 2 4 5
M  V30 5 1 5 6
M  V30 6 1 6 7
M  V30 7 2 7 8
M  V30 8 1 8 9
M  V30 9 2 9 10
M  V30 10 1 10 11
M  V30 11 2 11 12
M  V30 12 1 12 13
M  V30 13 2 13 14
M  V30 14 1 14 15
M  V30 15 2 15 16
M  V30 16 1 16 17
M  V30 17 1 2 18
M  V30 18 2 18 19
M  V30 19 1 19 20
M  V30 20 2 20 21
M  V30 21 1 21 22
M  V30 22 2 22 23
M  V30 23 1 8 4
M  V30 24 1 17 9
M  V30 25 1 23 18
M  V30 26 1 16 11
M  V30 27 1 3 24
M  V30 28 1 5 25
M  V30 29 1 6 26
M  V30 30 1 12 27
M  V30 31 1 13 28
M  V30 32 1 14 29
M  V30 33 1 15 30
M  V30 34 1 17 31
M  V30 35 1 19 32
M  V30 36 1 20 33
M  V30 37 1 21 34
M  V30 38 1 22 35
M  V30 39 1 23 36
M  V30 END BOND
M  V30 END CTAB
M  END
>  <Dataset>  (610) 
ChEMBL_Kinases

>  <Ligand_Instance>  (610) 
nan

>  <PDB_ID>  (610) 
nan

>  <Standardized_SMILES>  (610) 
O=C(Nc1c[nH]nc1-c1nc2ccccc2[nH]1)c1ccccc1

>  <Name>  (610) 
nan

>  <Pocket>  (610) 
nan

>  <ATP_Site>  (610) 
nan

>  <Peripheral>  (610) 
nan

>  <Num_H_Atoms_ProtBoundConf>  (610) 
nan

>  <Num_Resolved_Atoms>  (610) 
nan

>  <Num_Not_Resolved_Atoms>  (610) 
nan

$$$$
CHEMBL1964276
     RDKit          3D

  0  0  0  0  0  0  0  0  0  0999 V3000
M  V30 BEGIN CTAB
M  V30 COUNTS 62 67 0 0 0
M  V30 BEGIN ATOM
M  V30 1 O 3.753493 0.009235 3.165866 0
M  V30 2 C 3.833008 1.082184 2.565518 0
M  V30 3 N 4.947228 1.900224 2.767650 0
M  V30 4 C 6.060766 1.675954 3.601570 0
M  V30 5 C 6.309152 0.596071 4.414098 0
M  V30 6 C 7.416585 0.422814 5.213076 0
M  V30 7 C 8.377949 1.388833 5.227509 0
M  V30 8 C 8.192282 2.492151 4.440011 0
M  V30 9 C 7.067932 2.616824 3.659988 0
M  V30 10 N 2.785152 1.422358 1.703131 0
M  V30 11 C 1.601991 0.721946 1.386259 0
M  V30 12 C 0.690894 1.254328 0.496839 0
M  V30 13 C -0.479363 0.629275 0.142562 0
M  V30 14 C -0.817365 -0.597886 0.670443 0
M  V30 15 C -2.049578 -1.292083 0.319823 0
M  V30 16 N -3.317315 -0.839086 0.535560 0
M  V30 17 N -4.184679 -1.750799 0.080476 0
M  V30 18 C -5.645508 -1.698471 0.097553 0
M  V30 19 C -6.158156 -1.052951 -1.166840 0
M  V30 20 C -7.663896 -0.983911 -1.179728 0
M  V30 21 C -7.919998 0.191612 -2.096830 0
M  V30 22 C -6.555471 0.796956 -2.279552 0
M  V30 23 O -5.703984 0.238690 -1.350785 0
M  V30 24 C -3.494921 -2.805856 -0.435833 0
M  V30 25 C -2.170459 -2.525084 -0.289225 0
M  V30 26 C -1.085313 -3.401410 -0.714951 0
M  V30 27 C -0.962782 -4.662920 -0.165642 0
M  V30 28 C 0.105507 -5.407836 -0.645585 0
M  V30 29 N 0.997455 -4.997223 -1.576909 0
M  V30 30 C 0.869450 -3.768983 -2.104704 0
M  V30 31 N 1.611860 -3.155978 -3.019311 0
M  V30 32 C 1.067565 -1.924105 -3.212854 0
M  V30 33 C -0.029934 -1.806557 -2.386974 0
M  V30 34 C -0.165158 -2.981261 -1.673954 0
M  V30 35 C 0.054330 -1.180724 1.565572 0
M  V30 36 C 1.209656 -0.500228 1.877169 0
M  V30 37 H 4.947126 2.794531 2.225102 0
M  V30 38 H 5.589093 -0.204922 4.450549 0
M  V30 39 H 7.544164 -0.443389 5.819940 0
M  V30 40 H 9.270000 1.321977 5.826864 0
M  V30 41 H 8.947944 3.266247 4.442271 0
M  V30 42 H 7.006701 3.539232 3.060570 0
M  V30 43 H 2.898992 2.354962 1.209705 0
M  V30 44 H 0.877685 2.224682 0.029344 0
M  V30 45 H -1.156084 1.099055 -0.562783 0
M  V30 46 H -6.042589 -2.723341 0.131421 0
M  V30 47 H -5.954022 -1.112585 1.004071 0
M  V30 48 H -5.774070 -1.684258 -2.013136 0
M  V30 49 H -8.070308 -0.756657 -0.189507 0
M  V30 50 H -8.140325 -1.909064 -1.551838 0
M  V30 51 H -8.353131 -0.171734 -3.073247 0
M  V30 52 H -8.637425 0.891670 -1.641502 0
M  V30 53 H -6.588508 1.893685 -2.079429 0
M  V30 54 H -6.228500 0.624631 -3.336441 0
M  V30 55 H -3.950955 -3.688849 -0.874269 0
M  V30 56 H -1.628938 -5.057409 0.574950 0
M  V30 57 H 0.225788 -6.403335 -0.231165 0
M  V30 58 H 2.449893 -3.509598 -3.514271 0
M  V30 59 H 1.455360 -1.174336 -3.911350 0
M  V30 60 H -0.677696 -0.954779 -2.301700 0
M  V30 61 H -0.199367 -2.126502 1.976581 0
M  V30 62 H 1.839614 -1.018258 2.581987 0
M  V30 END ATOM
M  V30 BEGIN BOND
M  V30 1 2 1 2
M  V30 2 1 2 3
M  V30 3 1 3 4
M  V30 4 2 4 5
M  V30 5 1 5 6
M  V30 6 2 6 7
M  V30 7 1 7 8
M  V30 8 2 8 9
M  V30 9 1 2 10
M  V30 10 1 10 11
M  V30 11 2 11 12
M  V30 12 1 12 13
M  V30 13 2 13 14
M  V30 14 1 14 15
M  V30 15 2 15 16
M  V30 16 1 16 17
M  V30 17 1 17 18
M  V30 18 1 18 19
M  V30 19 1 19 20
M  V30 20 1 20 21
M  V30 21 1 21 22
M  V30 22 1 22 23
M  V30 23 1 17 24
M  V30 24 2 24 25
M  V30 25 1 25 26
M  V30 26 2 26 27
M  V30 27 1 27 28
M  V30 28 2 28 29
M  V30 29 1 29 30
M  V30 30 1 30 31
M  V30 31 1 31 32
M  V30 32 2 32 33
M  V30 33 1 33 34
M  V30 34 1 14 35
M  V30 35 2 35 36
M  V30 36 1 9 4
M  V30 37 1 36 11
M  V30 38 1 25 15
M  V30 39 1 34 26
M  V30 40 1 23 19
M  V30 41 2 34 30
M  V30 42 1 3 37
M  V30 43 1 5 38
M  V30 44 1 6 39
M  V30 45 1 7 40
M  V30 46 1 8 41
M  V30 47 1 9 42
M  V30 48 1 10 43
M  V30 49 1 12 44
M  V30 50 1 13 45
M  V30 51 1 18 46
M  V30 52 1 18 47
M  V30 53 1 19 48
M  V30 54 1 20 49
M  V30 55 1 20 50
M  V30 56 1 21 51
M  V30 57 1 21 52
M  V30 58 1 22 53
M  V30 59 1 22 54
M  V30 60 1 24 55
M  V30 61 1 27 56
M  V30 62 1 28 57
M  V30 63 1 31 58
M  V30 64 1 32 59
M  V30 65 1 33 60
M  V30 66 1 35 61
M  V30 67 1 36 62
M  V30 END BOND
M  V30 END CTAB
M  END
>  <Dataset>  (611) 
ChEMBL_Kinases

>  <Ligand_Instance>  (611) 
nan

>  <PDB_ID>  (611) 
nan

>  <Standardized_SMILES>  (611) 
O=C(Nc1ccccc1)Nc1ccc(-c2nn(CC3CCCO3)cc2-c2ccnc3[nH]ccc23)cc1

>  <Name>  (611) 
nan

>  <Pocket>  (611) 
nan

>  <ATP_Site>  (611) 
nan

>  <Peripheral>  (611) 
nan

>  <Num_H_Atoms_ProtBoundConf>  (611) 
nan

>  <Num_Resolved_Atoms>  (611) 
nan

>  <Num_Not_Resolved_Atoms>  (611) 
nan

$$$$
CHEMBL4748329
     RDKit          3D

  0  0  0  0  0  0  0  0  0  0999 V3000
M  V30 BEGIN CTAB
M  V30 COUNTS 67 73 0 0 0
M  V30 BEGIN ATOM
M  V30 1 O 3.786514 -2.747518 -1.158415 0
M  V30 2 C 4.961613 -3.015634 -0.770980 0
M  V30 3 C 5.851097 -4.200179 -0.992860 0
M  V30 4 C 5.152400 -5.239740 -1.839990 0
M  V30 5 C 3.892267 -5.742952 -1.210804 0
M  V30 6 C 3.494789 -7.018904 -1.932765 0
M  V30 7 N 3.585115 -6.817519 -3.352327 0
M  V30 8 C 3.611665 -5.413334 -3.734859 0
M  V30 9 C 4.830616 -4.694472 -3.213350 0
M  V30 10 N 5.438471 -1.930250 0.013228 0
M  V30 11 C 4.436083 -0.896418 0.105098 0
M  V30 12 C 4.455587 0.102613 -0.874009 0
M  V30 13 N 3.555121 1.097877 -0.857573 0
M  V30 14 C 2.627422 1.113666 0.127504 0
M  V30 15 C 2.572782 0.157621 1.103236 0
M  V30 16 C 1.596302 0.125144 2.185952 0
M  V30 17 C 1.913502 -0.403756 3.420526 0
M  V30 18 N 0.996653 -0.423728 4.405262 0
M  V30 19 C -0.233188 0.072982 4.187146 0
M  V30 20 N -1.326030 0.191956 4.940672 0
M  V30 21 N -2.299894 0.757686 4.260978 0
M  V30 22 C -1.921471 1.058383 2.995081 0
M  V30 23 C -2.752773 1.686005 1.989596 0
M  V30 24 C -4.064868 2.048612 2.246106 0
M  V30 25 C -4.659873 2.625386 1.151341 0
M  V30 26 C -5.912433 3.140126 0.895557 0
M  V30 27 C -6.937611 3.149223 1.927090 0
M  V30 28 C -8.158732 2.674401 1.438708 0
M  V30 29 C -9.280460 2.600109 2.255498 0
M  V30 30 N -9.193747 2.994025 3.549659 0
M  V30 31 C -8.018935 3.451593 4.021867 0
M  V30 32 C -6.893887 3.534413 3.231410 0
M  V30 33 C -6.200832 3.662889 -0.356981 0
M  V30 34 C -5.203374 3.644856 -1.309554 0
M  V30 35 N -3.980166 3.133171 -1.032405 0
M  V30 36 C -3.687105 2.623311 0.176902 0
M  V30 37 N -2.597961 2.064413 0.721737 0
M  V30 38 C -0.621628 0.615644 2.984124 0
M  V30 39 C 0.330201 0.625957 1.992412 0
M  V30 40 C 3.496992 -0.875034 1.097137 0
M  V30 41 H 6.208787 -4.618632 -0.040793 0
M  V30 42 H 6.747169 -3.877150 -1.568640 0
M  V30 43 H 5.849157 -6.102234 -1.928233 0
M  V30 44 H 4.030830 -5.926091 -0.119962 0
M  V30 45 H 3.075100 -5.005573 -1.341685 0
M  V30 46 H 4.271660 -7.765234 -1.663472 0
M  V30 47 H 2.479901 -7.370211 -1.655653 0
M  V30 48 H 2.798498 -7.256142 -3.879812 0
M  V30 49 H 2.678638 -4.943771 -3.340929 0
M  V30 50 H 3.585137 -5.397622 -4.850362 0
M  V30 51 H 4.629685 -3.607671 -3.159847 0
M  V30 52 H 5.712846 -4.926534 -3.847547 0
M  V30 53 H 6.402828 -1.902511 0.461562 0
M  V30 54 H 5.211267 0.064121 -1.651860 0
M  V30 55 H 1.889970 1.907683 0.161220 0
M  V30 56 H 2.892423 -0.812691 3.633747 0
M  V30 57 H -1.474970 -0.094518 5.932828 0
M  V30 58 H -4.627229 1.925024 3.168930 0
M  V30 59 H -8.353161 2.330028 0.421153 0
M  V30 60 H -10.242520 2.234093 1.898980 0
M  V30 61 H -7.860136 3.787865 5.045251 0
M  V30 62 H -5.917210 3.892488 3.533081 0
M  V30 63 H -7.165778 4.074532 -0.599128 0
M  V30 64 H -5.332033 4.032497 -2.324081 0
M  V30 65 H -1.746602 1.960941 0.168039 0
M  V30 66 H 0.115332 1.028337 1.026366 0
M  V30 67 H 3.510951 -1.663862 1.838665 0
M  V30 END ATOM
M  V30 BEGIN BOND
M  V30 1 2 1 2
M  V30 2 1 2 3
M  V30 3 1 3 4
M  V30 4 1 4 5
M  V30 5 1 5 6
M  V30 6 1 6 7
M  V30 7 1 7 8
M  V30 8 1 8 9
M  V30 9 1 2 10
M  V30 10 1 10 11
M  V30 11 2 11 12
M  V30 12 1 12 13
M  V30 13 2 13 14
M  V30 14 1 14 15
M  V30 15 1 15 16
M  V30 16 2 16 17
M  V30 17 1 17 18
M  V30 18 2 18 19
M  V30 19 1 19 20
M  V30 20 1 20 21
M  V30 21 2 21 22
M  V30 22 1 22 23
M  V30 23 2 23 24
M  V30 24 1 24 25
M  V30 25 2 25 26
M  V30 26 1 26 27
M  V30 27 2 27 28
M  V30 28 1 28 29
M  V30 29 2 29 30
M  V30 30 1 30 31
M  V30 31 2 31 32
M  V30 32 1 26 33
M  V30 33 2 33 34
M  V30 34 1 34 35
M  V30 35 2 35 36
M  V30 36 1 36 37
M  V30 37 1 22 38
M  V30 38 2 38 39
M  V30 39 2 15 40
M  V30 40 1 9 4
M  V30 41 1 40 11
M  V30 42 1 39 16
M  V30 43 1 38 19
M  V30 44 1 37 23
M  V30 45 1 36 25
M  V30 46 1 32 27
M  V30 47 1 3 41
M  V30 48 1 3 42
M  V30 49 1 4 43
M  V30 50 1 5 44
M  V30 51 1 5 45
M  V30 52 1 6 46
M  V30 53 1 6 47
M  V30 54 1 7 48
M  V30 55 1 8 49
M  V30 56 1 8 50
M  V30 57 1 9 51
M  V30 58 1 9 52
M  V30 59 1 10 53
M  V30 60 1 12 54
M  V30 61 1 14 55
M  V30 62 1 17 56
M  V30 63 1 20 57
M  V30 64 1 24 58
M  V30 65 1 28 59
M  V30 66 1 29 60
M  V30 67 1 31 61
M  V30 68 1 32 62
M  V30 69 1 33 63
M  V30 70 1 34 64
M  V30 71 1 37 65
M  V30 72 1 39 66
M  V30 73 1 40 67
M  V30 END BOND
M  V30 END CTAB
M  END
>  <Dataset>  (612) 
ChEMBL_Kinases

>  <Ligand_Instance>  (612) 
nan

>  <PDB_ID>  (612) 
nan

>  <Standardized_SMILES>  (612) 
O=C(CC1CCNCC1)Nc1cncc(-c2cnc3[nH]nc(-c4cc5c(-c6ccncc6)ccnc5[nH]4)c3c2)c1

>  <Name>  (612) 
nan

>  <Pocket>  (612) 
nan

>  <ATP_Site>  (612) 
nan

>  <Peripheral>  (612) 
nan

>  <Num_H_Atoms_ProtBoundConf>  (612) 
nan

>  <Num_Resolved_Atoms>  (612) 
nan

>  <Num_Not_Resolved_Atoms>  (612) 
nan

$$$$
CHEMBL1964264
     RDKit          3D

  0  0  0  0  0  0  0  0  0  0999 V3000
M  V30 BEGIN CTAB
M  V30 COUNTS 65 69 0 0 0
M  V30 BEGIN ATOM
M  V30 1 C 1.373667 0.297764 6.016695 0
M  V30 2 C 0.740434 -0.029191 4.659173 0 CFG=1
M  V30 3 O 0.618731 -1.413603 4.605268 0
M  V30 4 C 1.223780 -2.221999 3.652698 0
M  V30 5 C 2.028531 -1.946738 2.597981 0
M  V30 6 C 2.478014 -2.917504 1.831830 0
M  V30 7 N 3.371884 -2.692887 0.646407 0
M  V30 8 C 4.658788 -2.982578 0.556128 0
M  V30 9 N 5.059497 -2.614896 -0.680510 0
M  V30 10 C 4.009227 -2.097547 -1.348370 0
M  V30 11 C 3.879276 -1.582850 -2.620713 0
M  V30 12 C 2.674963 -1.103406 -3.086366 0
M  V30 13 C 1.566039 -1.137968 -2.258447 0
M  V30 14 O 0.261721 -0.728046 -2.474409 0
M  V30 15 C -0.284279 -0.159103 -3.615844 0 CFG=1
M  V30 16 C -1.321091 -1.104964 -4.184577 0
M  V30 17 C -2.499147 -1.271445 -3.257682 0
M  V30 18 C -3.306460 0.030324 -3.210921 0
M  V30 19 N -2.976033 0.750592 -4.427359 0
M  V30 20 C -4.138049 1.410018 -4.990296 0
M  V30 21 C -1.945959 1.688518 -4.114563 0
M  V30 22 C -0.855725 1.165595 -3.238988 0
M  V30 23 C 1.696026 -1.659829 -0.967146 0
M  V30 24 C 2.910422 -2.143783 -0.496301 0
M  V30 25 S 1.833326 -4.369785 2.483236 0
M  V30 26 C 0.906034 -3.556900 3.876366 0
M  V30 27 C 0.129487 -4.361495 4.809676 0
M  V30 28 N -0.506283 -3.599875 5.796569 0
M  V30 29 O 0.052538 -5.592302 4.721612 0
M  V30 30 C -0.579507 0.684633 4.539816 0
M  V30 31 C -1.790938 0.160647 4.942603 0
M  V30 32 C -2.956649 0.890024 4.794058 0
M  V30 33 C -2.937592 2.153790 4.242148 0
M  V30 34 C -1.743549 2.679557 3.841095 0
M  V30 35 C -0.554005 1.959500 3.982096 0
M  V30 36 Cl 0.950663 2.686826 3.448577 0
M  V30 37 H 1.227999 -0.550461 6.737187 0
M  V30 38 H 0.861032 1.170523 6.486564 0
M  V30 39 H 2.430429 0.521007 5.833327 0
M  V30 40 H 1.390821 0.316238 3.839109 0
M  V30 41 H 2.264360 -0.879047 2.444425 0
M  V30 42 H 5.205669 -3.429673 1.372286 0
M  V30 43 H 4.700481 -1.525985 -3.316243 0
M  V30 44 H 2.442989 -0.678878 -4.052552 0
M  V30 45 H 0.527637 -0.068006 -4.373785 0
M  V30 46 H -1.729830 -0.685509 -5.136448 0
M  V30 47 H -0.892615 -2.088660 -4.433635 0
M  V30 48 H -3.170440 -2.020464 -3.742972 0
M  V30 49 H -2.241675 -1.644062 -2.257951 0
M  V30 50 H -4.394746 -0.183071 -3.276932 0
M  V30 51 H -3.095499 0.614822 -2.292249 0
M  V30 52 H -4.765073 0.637616 -5.488868 0
M  V30 53 H -4.694923 2.008442 -4.235582 0
M  V30 54 H -3.785927 2.102478 -5.780626 0
M  V30 55 H -2.434028 2.526587 -3.568969 0
M  V30 56 H -1.509919 2.169497 -5.033040 0
M  V30 57 H 0.004647 1.896547 -3.280183 0
M  V30 58 H -1.132981 1.145196 -2.165284 0
M  V30 59 H 0.915903 -1.747870 -0.216541 0
M  V30 60 H -1.537567 -3.482490 5.896153 0
M  V30 61 H -0.106951 -3.040891 6.569126 0
M  V30 62 H -1.793312 -0.815841 5.367444 0
M  V30 63 H -3.893989 0.442363 5.123996 0
M  V30 64 H -3.838339 2.739095 4.117880 0
M  V30 65 H -1.662997 3.673597 3.397619 0
M  V30 END ATOM
M  V30 BEGIN BOND
M  V30 1 1 1 2
M  V30 2 1 2 3
M  V30 3 1 3 4
M  V30 4 1 4 5
M  V30 5 2 5 6
M  V30 6 1 6 7
M  V30 7 1 7 8
M  V30 8 2 8 9
M  V30 9 1 9 10
M  V30 10 2 10 11
M  V30 11 1 11 12
M  V30 12 2 12 13
M  V30 13 1 13 14
M  V30 14 1 14 15
M  V30 15 1 15 16
M  V30 16 1 16 17
M  V30 17 1 17 18
M  V30 18 1 18 19
M  V30 19 1 19 20
M  V30 20 1 19 21
M  V30 21 1 21 22
M  V30 22 1 13 23
M  V30 23 2 23 24
M  V30 24 1 6 25
M  V30 25 1 25 26
M  V30 26 1 26 27
M  V30 27 1 27 28
M  V30 28 2 27 29
M  V30 29 1 2 30
M  V30 30 2 30 31
M  V30 31 1 31 32
M  V30 32 2 32 33
M  V30 33 1 33 34
M  V30 34 2 34 35
M  V30 35 1 35 36
M  V30 36 2 26 4
M  V30 37 1 35 30
M  V30 38 1 24 7
M  V30 39 1 24 10
M  V30 40 1 22 15
M  V30 41 1 1 37
M  V30 42 1 1 38
M  V30 43 1 1 39
M  V30 44 1 2 40 CFG=3
M  V30 45 1 5 41
M  V30 46 1 8 42
M  V30 47 1 11 43
M  V30 48 1 12 44
M  V30 49 1 15 45 CFG=3
M  V30 50 1 16 46
M  V30 51 1 16 47
M  V30 52 1 17 48
M  V30 53 1 17 49
M  V30 54 1 18 50
M  V30 55 1 18 51
M  V30 56 1 20 52
M  V30 57 1 20 53
M  V30 58 1 20 54
M  V30 59 1 21 55
M  V30 60 1 21 56
M  V30 61 1 22 57
M  V30 62 1 22 58
M  V30 63 1 23 59
M  V30 64 1 28 60
M  V30 65 1 28 61
M  V30 66 1 31 62
M  V30 67 1 32 63
M  V30 68 1 33 64
M  V30 69 1 34 65
M  V30 END BOND
M  V30 END CTAB
M  END
>  <Dataset>  (613) 
ChEMBL_Kinases

>  <Ligand_Instance>  (613) 
nan

>  <PDB_ID>  (613) 
nan

>  <Standardized_SMILES>  (613) 
C[C@@H](Oc1cc(-n2cnc3ccc(O[C@H]4CCCN(C)CC4)cc32)sc1C(N)=O)c1ccccc1Cl

>  <Name>  (613) 
nan

>  <Pocket>  (613) 
nan

>  <ATP_Site>  (613) 
nan

>  <Peripheral>  (613) 
nan

>  <Num_H_Atoms_ProtBoundConf>  (613) 
nan

>  <Num_Resolved_Atoms>  (613) 
nan

>  <Num_Not_Resolved_Atoms>  (613) 
nan

$$$$
CHEMBL1964263
     RDKit          3D

  0  0  0  0  0  0  0  0  0  0999 V3000
M  V30 BEGIN CTAB
M  V30 COUNTS 62 66 0 0 0
M  V30 BEGIN ATOM
M  V30 1 C 2.083402 -0.340888 5.421294 0
M  V30 2 C 1.234238 -0.451142 4.188932 0 CFG=1
M  V30 3 O 1.685659 -1.558770 3.442213 0
M  V30 4 C 2.119631 -1.480168 2.131829 0
M  V30 5 C 2.221689 -0.411615 1.280537 0
M  V30 6 C 2.673786 -0.580373 0.044911 0
M  V30 7 N 2.851722 0.418865 -0.991717 0
M  V30 8 C 3.943480 1.168676 -1.105581 0
M  V30 9 N 3.785829 1.993592 -2.172797 0
M  V30 10 C 2.583323 1.767752 -2.744144 0
M  V30 11 C 1.889077 2.280965 -3.821423 0
M  V30 12 C 0.636403 1.773751 -4.100787 0
M  V30 13 C 0.036579 0.765426 -3.345630 0
M  V30 14 O -1.204558 0.407813 -3.790623 0
M  V30 15 C -2.054718 -0.564593 -3.250417 0
M  V30 16 C -2.414456 -1.601169 -4.298373 0
M  V30 17 C -3.426222 -2.563769 -3.666793 0
M  V30 18 N -4.658474 -1.833139 -3.516656 0
M  V30 19 C -4.460875 -0.803116 -2.527510 0
M  V30 20 C -3.322245 0.118034 -2.810901 0
M  V30 21 C 0.765906 0.280785 -2.277257 0
M  V30 22 C 2.019417 0.778231 -1.985966 0
M  V30 23 S 3.020602 -2.272239 -0.095035 0
M  V30 24 C 2.509370 -2.734809 1.640202 0
M  V30 25 C 2.583096 -4.082565 2.121825 0
M  V30 26 N 3.052923 -5.113543 1.277336 0
M  V30 27 O 2.204122 -4.218296 3.303885 0
M  V30 28 C -0.156222 -0.747274 4.609777 0
M  V30 29 C -0.548332 -2.078854 4.787214 0
M  V30 30 C -1.809737 -2.446528 5.176090 0
M  V30 31 C -2.756756 -1.475377 5.410128 0
M  V30 32 C -2.358210 -0.167311 5.231837 0
M  V30 33 C -1.085532 0.249889 4.837312 0
M  V30 34 C -0.742069 1.660893 4.668304 0
M  V30 35 F -1.888476 2.413641 4.970429 0
M  V30 36 F -0.506313 1.950244 3.328543 0
M  V30 37 F 0.223670 2.147453 5.492018 0
M  V30 38 H 2.530756 -1.330285 5.626759 0
M  V30 39 H 2.882315 0.422910 5.338504 0
M  V30 40 H 1.430889 -0.120466 6.300744 0
M  V30 41 H 1.298590 0.438873 3.537547 0
M  V30 42 H 1.929167 0.568659 1.629815 0
M  V30 43 H 4.852496 1.207632 -0.520638 0
M  V30 44 H 2.363132 3.056192 -4.392907 0
M  V30 45 H 0.170376 2.249941 -4.976815 0
M  V30 46 H -1.596733 -1.058824 -2.357320 0
M  V30 47 H -1.529809 -2.151069 -4.633420 0
M  V30 48 H -2.950108 -1.078091 -5.109613 0
M  V30 49 H -3.046532 -2.944585 -2.693008 0
M  V30 50 H -3.571927 -3.393296 -4.387847 0
M  V30 51 H -5.447206 -2.425733 -3.187988 0
M  V30 52 H -5.392769 -0.168592 -2.564496 0
M  V30 53 H -4.436617 -1.228952 -1.516764 0
M  V30 54 H -3.608146 0.841887 -3.603008 0
M  V30 55 H -3.165725 0.731214 -1.895615 0
M  V30 56 H 0.259360 -0.497521 -1.724556 0
M  V30 57 H 2.559860 -5.561765 0.459784 0
M  V30 58 H 2.615236 -5.583517 0.471324 0
M  V30 59 H 0.211460 -2.836809 4.598531 0
M  V30 60 H -2.036065 -3.491150 5.291346 0
M  V30 61 H -3.744742 -1.732035 5.713410 0
M  V30 62 H -3.109176 0.612674 5.416932 0
M  V30 END ATOM
M  V30 BEGIN BOND
M  V30 1 1 1 2
M  V30 2 1 2 3
M  V30 3 1 3 4
M  V30 4 1 4 5
M  V30 5 2 5 6
M  V30 6 1 6 7
M  V30 7 1 7 8
M  V30 8 2 8 9
M  V30 9 1 9 10
M  V30 10 2 10 11
M  V30 11 1 11 12
M  V30 12 2 12 13
M  V30 13 1 13 14
M  V30 14 1 14 15
M  V30 15 1 15 16
M  V30 16 1 16 17
M  V30 17 1 17 18
M  V30 18 1 18 19
M  V30 19 1 19 20
M  V30 20 1 13 21
M  V30 21 2 21 22
M  V30 22 1 6 23
M  V30 23 1 23 24
M  V30 24 1 24 25
M  V30 25 1 25 26
M  V30 26 2 25 27
M  V30 27 1 2 28
M  V30 28 2 28 29
M  V30 29 1 29 30
M  V30 30 2 30 31
M  V30 31 1 31 32
M  V30 32 2 32 33
M  V30 33 1 33 34
M  V30 34 1 34 35
M  V30 35 1 34 36
M  V30 36 1 34 37
M  V30 37 2 24 4
M  V30 38 1 33 28
M  V30 39 1 22 7
M  V30 40 1 22 10
M  V30 41 1 20 15
M  V30 42 1 1 38
M  V30 43 1 1 39
M  V30 44 1 1 40
M  V30 45 1 2 41 CFG=3
M  V30 46 1 5 42
M  V30 47 1 8 43
M  V30 48 1 11 44
M  V30 49 1 12 45
M  V30 50 1 15 46
M  V30 51 1 16 47
M  V30 52 1 16 48
M  V30 53 1 17 49
M  V30 54 1 17 50
M  V30 55 1 18 51
M  V30 56 1 19 52
M  V30 57 1 19 53
M  V30 58 1 20 54
M  V30 59 1 20 55
M  V30 60 1 21 56
M  V30 61 1 26 57
M  V30 62 1 26 58
M  V30 63 1 29 59
M  V30 64 1 30 60
M  V30 65 1 31 61
M  V30 66 1 32 62
M  V30 END BOND
M  V30 END CTAB
M  END
>  <Dataset>  (614) 
ChEMBL_Kinases

>  <Ligand_Instance>  (614) 
nan

>  <PDB_ID>  (614) 
nan

>  <Standardized_SMILES>  (614) 
C[C@@H](Oc1cc(-n2cnc3ccc(OC4CCNCC4)cc32)sc1C(N)=O)c1ccccc1C(F)(F)F

>  <Name>  (614) 
nan

>  <Pocket>  (614) 
nan

>  <ATP_Site>  (614) 
nan

>  <Peripheral>  (614) 
nan

>  <Num_H_Atoms_ProtBoundConf>  (614) 
nan

>  <Num_Resolved_Atoms>  (614) 
nan

>  <Num_Not_Resolved_Atoms>  (614) 
nan

$$$$
CHEMBL1964262
     RDKit          3D

  0  0  0  0  0  0  0  0  0  0999 V3000
M  V30 BEGIN CTAB
M  V30 COUNTS 66 70 0 0 0
M  V30 BEGIN ATOM
M  V30 1 C 3.910293 -1.349138 4.519545 0
M  V30 2 C 2.708154 -0.897706 3.707153 0 CFG=1
M  V30 3 O 1.963296 -1.964738 3.195832 0
M  V30 4 C 1.803094 -2.212979 1.846120 0
M  V30 5 C 2.226334 -1.631459 0.688359 0
M  V30 6 C 1.908528 -2.100572 -0.522254 0
M  V30 7 N 2.324851 -1.529124 -1.739949 0
M  V30 8 C 3.353069 -1.785017 -2.570428 0
M  V30 9 N 3.346980 -0.961533 -3.631560 0
M  V30 10 C 2.286673 -0.131410 -3.509769 0
M  V30 11 C 1.824111 0.895953 -4.318310 0
M  V30 12 C 0.668375 1.566149 -3.880729 0
M  V30 13 C -0.009070 1.236373 -2.688069 0
M  V30 14 O -1.032151 2.054132 -2.584846 0
M  V30 15 C -2.108651 2.469153 -1.935421 0
M  V30 16 C -3.256002 1.503069 -1.859873 0 CFG=2
M  V30 17 O -4.307062 2.068273 -1.104688 0
M  V30 18 C -2.854085 0.216330 -1.230298 0
M  V30 19 N -3.995318 -0.707313 -1.130770 0
M  V30 20 C -4.439158 -1.163366 -2.430873 0
M  V30 21 C -3.302683 -2.018912 -2.941129 0
M  V30 22 C -2.743211 -2.623393 -1.694541 0
M  V30 23 C -3.440488 -1.920199 -0.543814 0
M  V30 24 C 0.571981 0.198499 -1.998746 0
M  V30 25 C 1.693131 -0.511107 -2.346396 0
M  V30 26 S 0.898404 -3.526285 -0.167102 0
M  V30 27 C 1.001374 -3.352023 1.645413 0
M  V30 28 C 0.290452 -4.345197 2.495536 0
M  V30 29 N 0.430584 -4.123405 3.887503 0
M  V30 30 O -0.376201 -5.297516 2.026357 0
M  V30 31 C 1.886626 0.058458 4.523554 0
M  V30 32 C 0.895015 -0.468207 5.325909 0
M  V30 33 C 0.096835 0.344658 6.106897 0
M  V30 34 C 0.361526 1.691570 6.024897 0
M  V30 35 C 1.328511 2.269450 5.249730 0
M  V30 36 C 2.130121 1.435494 4.463187 0
M  V30 37 Cl 3.412650 1.996575 3.411743 0
M  V30 38 H 4.596319 -0.482196 4.598434 0
M  V30 39 H 4.448756 -2.125189 3.938000 0
M  V30 40 H 3.609594 -1.745139 5.516244 0
M  V30 41 H 3.112802 -0.310713 2.857339 0
M  V30 42 H 2.851547 -0.742632 0.880446 0
M  V30 43 H 4.079715 -2.568918 -2.375271 0
M  V30 44 H 2.389607 1.082600 -5.199493 0
M  V30 45 H 0.440332 2.344048 -4.629763 0
M  V30 46 H -2.543646 3.418907 -2.435526 0
M  V30 47 H -1.926770 2.822047 -0.864658 0
M  V30 48 H -3.693359 1.369545 -2.882717 0
M  V30 49 H -4.784360 1.368696 -0.585525 0
M  V30 50 H -2.492281 0.383890 -0.208754 0
M  V30 51 H -2.146104 -0.332885 -1.897916 0
M  V30 52 H -5.292758 -1.853503 -2.226205 0
M  V30 53 H -4.736650 -0.364313 -3.121579 0
M  V30 54 H -3.671736 -2.859323 -3.571616 0
M  V30 55 H -2.573988 -1.442346 -3.547655 0
M  V30 56 H -2.921554 -3.719544 -1.592686 0
M  V30 57 H -1.632450 -2.469976 -1.681016 0
M  V30 58 H -2.661679 -1.660171 0.198272 0
M  V30 59 H -4.228913 -2.562440 -0.097930 0
M  V30 60 H 0.024149 -0.003969 -1.091691 0
M  V30 61 H 0.062533 -3.800826 4.819355 0
M  V30 62 H 0.470421 -3.939133 4.898423 0
M  V30 63 H 0.710650 -1.533392 5.369362 0
M  V30 64 H -0.697098 0.029825 6.760937 0
M  V30 65 H -0.221646 2.417642 6.610603 0
M  V30 66 H 1.528458 3.321570 5.191655 0
M  V30 END ATOM
M  V30 BEGIN BOND
M  V30 1 1 1 2
M  V30 2 1 2 3
M  V30 3 1 3 4
M  V30 4 1 4 5
M  V30 5 2 5 6
M  V30 6 1 6 7
M  V30 7 1 7 8
M  V30 8 2 8 9
M  V30 9 1 9 10
M  V30 10 2 10 11
M  V30 11 1 11 12
M  V30 12 2 12 13
M  V30 13 1 13 14
M  V30 14 1 14 15
M  V30 15 1 15 16
M  V30 16 1 16 17
M  V30 17 1 16 18
M  V30 18 1 18 19
M  V30 19 1 19 20
M  V30 20 1 20 21
M  V30 21 1 21 22
M  V30 22 1 22 23
M  V30 23 1 13 24
M  V30 24 2 24 25
M  V30 25 1 6 26
M  V30 26 1 26 27
M  V30 27 1 27 28
M  V30 28 1 28 29
M  V30 29 2 28 30
M  V30 30 1 2 31
M  V30 31 2 31 32
M  V30 32 1 32 33
M  V30 33 2 33 34
M  V30 34 1 34 35
M  V30 35 2 35 36
M  V30 36 1 36 37
M  V30 37 2 27 4
M  V30 38 1 36 31
M  V30 39 1 25 7
M  V30 40 1 25 10
M  V30 41 1 23 19
M  V30 42 1 1 38
M  V30 43 1 1 39
M  V30 44 1 1 40
M  V30 45 1 2 41 CFG=3
M  V30 46 1 5 42
M  V30 47 1 8 43
M  V30 48 1 11 44
M  V30 49 1 12 45
M  V30 50 1 15 46
M  V30 51 1 15 47
M  V30 52 1 16 48 CFG=3
M  V30 53 1 17 49
M  V30 54 1 18 50
M  V30 55 1 18 51
M  V30 56 1 20 52
M  V30 57 1 20 53
M  V30 58 1 21 54
M  V30 59 1 21 55
M  V30 60 1 22 56
M  V30 61 1 22 57
M  V30 62 1 23 58
M  V30 63 1 23 59
M  V30 64 1 24 60
M  V30 65 1 29 61
M  V30 66 1 29 62
M  V30 67 1 32 63
M  V30 68 1 33 64
M  V30 69 1 34 65
M  V30 70 1 35 66
M  V30 END BOND
M  V30 END CTAB
M  END
>  <Dataset>  (615) 
ChEMBL_Kinases

>  <Ligand_Instance>  (615) 
nan

>  <PDB_ID>  (615) 
nan

>  <Standardized_SMILES>  (615) 
C[C@@H](Oc1cc(-n2cnc3ccc(OC[C@H](O)CN4CCCC4)cc32)sc1C(N)=O)c1ccccc1Cl

>  <Name>  (615) 
nan

>  <Pocket>  (615) 
nan

>  <ATP_Site>  (615) 
nan

>  <Peripheral>  (615) 
nan

>  <Num_H_Atoms_ProtBoundConf>  (615) 
nan

>  <Num_Resolved_Atoms>  (615) 
nan

>  <Num_Not_Resolved_Atoms>  (615) 
nan

$$$$
CHEMBL522709
     RDKit          3D

  0  0  0  0  0  0  0  0  0  0999 V3000
M  V30 BEGIN CTAB
M  V30 COUNTS 50 53 0 0 0
M  V30 BEGIN ATOM
M  V30 1 C 4.662618 -3.550468 2.940244 0
M  V30 2 O 5.751006 -2.771749 2.497443 0
M  V30 3 C 5.466205 -1.796913 1.524012 0
M  V30 4 C 6.520202 -1.017141 1.071493 0
M  V30 5 C 6.299735 -0.039151 0.111520 0
M  V30 6 C 5.013529 0.154599 -0.394792 0
M  V30 7 N 4.521588 1.016628 -1.316668 0
M  V30 8 C 3.195046 0.783662 -1.438867 0
M  V30 9 N 2.862952 -0.209344 -0.605599 0
M  V30 10 C 1.559329 -0.820296 -0.372655 0
M  V30 11 C 0.462012 -0.367774 0.185194 0
M  V30 12 C -0.665908 -1.131791 0.298617 0
M  V30 13 O -1.899712 -0.826905 0.850162 0
M  V30 14 C -2.233417 0.379542 1.445728 0 CFG=2
M  V30 15 C -2.480489 0.287865 2.950571 0
M  V30 16 C -3.215293 1.225850 0.768488 0
M  V30 17 C -2.942671 2.580031 0.511440 0
M  V30 18 C -3.740041 3.518858 -0.105275 0
M  V30 19 C -4.969720 3.068387 -0.526106 0
M  V30 20 C -5.323539 1.758174 -0.317451 0
M  V30 21 C -4.464550 0.849969 0.318063 0
M  V30 22 C -4.906083 -0.529719 0.505329 0
M  V30 23 F -4.165205 -1.496524 -0.095406 0
M  V30 24 F -5.134560 -0.823005 1.861954 0
M  V30 25 F -6.178691 -0.689891 -0.047541 0
M  V30 26 C -0.540103 -2.419724 -0.227550 0
M  V30 27 C -1.332873 -3.641588 -0.393146 0
M  V30 28 N -0.855168 -4.804211 -1.023935 0
M  V30 29 O -2.475108 -3.994332 -0.090175 0
M  V30 30 S 1.213241 -2.451888 -0.860679 0
M  V30 31 C 3.964309 -0.622750 0.056701 0
M  V30 32 C 4.200164 -1.591067 1.011650 0
M  V30 33 H 3.853836 -2.943921 3.386162 0
M  V30 34 H 5.006839 -4.255538 3.725829 0
M  V30 35 H 4.215939 -4.152982 2.118437 0
M  V30 36 H 7.527376 -1.179993 1.478253 0
M  V30 37 H 7.133436 0.574002 -0.243054 0
M  V30 38 H 2.455431 1.275113 -2.081254 0
M  V30 39 H 0.502758 0.649601 0.550825 0
M  V30 40 H -1.256564 0.966739 1.413759 0
M  V30 41 H -2.820943 -0.729049 3.237177 0
M  V30 42 H -3.177380 1.098801 3.249620 0
M  V30 43 H -1.558436 0.439747 3.549364 0
M  V30 44 H -1.961145 2.956760 0.842999 0
M  V30 45 H -3.393879 4.532815 -0.234615 0
M  V30 46 H -5.655373 3.740301 -1.018580 0
M  V30 47 H -6.309231 1.397795 -0.654978 0
M  V30 48 H -0.589554 -5.074962 -1.993025 0
M  V30 49 H -0.636600 -5.747485 -0.635571 0
M  V30 50 H 3.396203 -2.216514 1.385154 0
M  V30 END ATOM
M  V30 BEGIN BOND
M  V30 1 1 1 2
M  V30 2 1 2 3
M  V30 3 2 3 4
M  V30 4 1 4 5
M  V30 5 2 5 6
M  V30 6 1 6 7
M  V30 7 2 7 8
M  V30 8 1 8 9
M  V30 9 1 9 10
M  V30 10 2 10 11
M  V30 11 1 11 12
M  V30 12 1 12 13
M  V30 13 1 13 14
M  V30 14 1 14 15
M  V30 15 1 14 16
M  V30 16 2 16 17
M  V30 17 1 17 18
M  V30 18 2 18 19
M  V30 19 1 19 20
M  V30 20 2 20 21
M  V30 21 1 21 22
M  V30 22 1 22 23
M  V30 23 1 22 24
M  V30 24 1 22 25
M  V30 25 2 12 26
M  V30 26 1 26 27
M  V30 27 1 27 28
M  V30 28 2 27 29
M  V30 29 1 26 30
M  V30 30 1 9 31
M  V30 31 2 31 32
M  V30 32 1 32 3
M  V30 33 1 31 6
M  V30 34 1 30 10
M  V30 35 1 21 16
M  V30 36 1 1 33
M  V30 37 1 1 34
M  V30 38 1 1 35
M  V30 39 1 4 36
M  V30 40 1 5 37
M  V30 41 1 8 38
M  V30 42 1 11 39
M  V30 43 1 14 40 CFG=1
M  V30 44 1 15 41
M  V30 45 1 15 42
M  V30 46 1 15 43
M  V30 47 1 17 44
M  V30 48 1 18 45
M  V30 49 1 19 46
M  V30 50 1 20 47
M  V30 51 1 28 48
M  V30 52 1 28 49
M  V30 53 1 32 50
M  V30 END BOND
M  V30 END CTAB
M  END
>  <Dataset>  (616) 
ChEMBL_Kinases

>  <Ligand_Instance>  (616) 
nan

>  <PDB_ID>  (616) 
nan

>  <Standardized_SMILES>  (616) 
COc1ccc2ncn(-c3cc(O[C@H](C)c4ccccc4C(F)(F)F)c(C(N)=O)s3)c2c1

>  <Name>  (616) 
GSK-317315A

>  <Pocket>  (616) 
nan

>  <ATP_Site>  (616) 
nan

>  <Peripheral>  (616) 
nan

>  <Num_H_Atoms_ProtBoundConf>  (616) 
nan

>  <Num_Resolved_Atoms>  (616) 
nan

>  <Num_Not_Resolved_Atoms>  (616) 
nan

$$$$
CHEMBL1964261
     RDKit          3D

  0  0  0  0  0  0  0  0  0  0999 V3000
M  V30 BEGIN CTAB
M  V30 COUNTS 61 64 0 0 0
M  V30 BEGIN ATOM
M  V30 1 C 2.641720 -2.011608 5.616253 0
M  V30 2 C 1.824375 -2.189065 4.333131 0 CFG=1
M  V30 3 O 2.537796 -3.030270 3.485996 0
M  V30 4 C 3.022800 -2.664017 2.240267 0
M  V30 5 C 2.902602 -1.450185 1.612478 0
M  V30 6 C 3.445862 -1.265368 0.378569 0
M  V30 7 N 3.398910 -0.069866 -0.386305 0
M  V30 8 C 4.454072 0.652822 -0.801388 0
M  V30 9 N 3.986120 1.695652 -1.484140 0
M  V30 10 C 2.650929 1.622780 -1.493769 0
M  V30 11 C 1.711669 2.456084 -2.061890 0
M  V30 12 C 0.370986 2.165242 -1.932371 0
M  V30 13 C -0.084759 1.077246 -1.260588 0
M  V30 14 O -1.321849 0.555092 -0.981851 0
M  V30 15 C -2.563330 1.026358 -1.344668 0
M  V30 16 C -2.869510 1.122605 -2.796944 0
M  V30 17 C -4.284019 1.661334 -2.931781 0
M  V30 18 N -4.706148 1.805020 -4.291096 0
M  V30 19 C -4.888826 0.583785 -5.012276 0
M  V30 20 C -5.938592 2.569020 -4.322707 0
M  V30 21 C 0.874536 0.235061 -0.685730 0
M  V30 22 C 2.242681 0.491540 -0.791785 0
M  V30 23 S 4.191281 -2.820453 -0.015811 0
M  V30 24 C 3.747109 -3.651812 1.481471 0
M  V30 25 C 4.053030 -5.035429 1.853251 0
M  V30 26 N 4.788508 -5.780923 0.906784 0
M  V30 27 O 3.653932 -5.445817 2.947877 0
M  V30 28 C 0.466655 -2.706376 4.658346 0
M  V30 29 C 0.143542 -4.065289 4.748577 0
M  V30 30 C -1.134054 -4.453922 5.055510 0
M  V30 31 C -2.140073 -3.560167 5.285232 0
M  V30 32 C -1.885412 -2.216828 5.211247 0
M  V30 33 C -0.597046 -1.841673 4.901849 0
M  V30 34 Cl -0.232707 -0.130812 4.795985 0
M  V30 35 H 3.430704 -1.253429 5.436632 0
M  V30 36 H 3.193815 -2.974197 5.813267 0
M  V30 37 H 2.005964 -1.810156 6.493943 0
M  V30 38 H 1.662085 -1.161902 3.953009 0
M  V30 39 H 2.365512 -0.644689 2.123730 0
M  V30 40 H 5.497329 0.430319 -0.615619 0
M  V30 41 H 1.961758 3.351034 -2.619645 0
M  V30 42 H -0.424281 2.760395 -2.334245 0
M  V30 43 H -3.337196 0.363809 -0.854297 0
M  V30 44 H -2.662169 2.065361 -0.923237 0
M  V30 45 H -2.929790 0.063854 -3.186891 0
M  V30 46 H -2.158898 1.632355 -3.432941 0
M  V30 47 H -5.000305 1.062212 -2.354354 0
M  V30 48 H -4.301444 2.677541 -2.479198 0
M  V30 49 H -5.317292 0.851597 -6.008043 0
M  V30 50 H -3.893583 0.105944 -5.229217 0
M  V30 51 H -5.578287 -0.133760 -4.554272 0
M  V30 52 H -6.819398 1.944076 -4.009032 0
M  V30 53 H -5.925860 3.448964 -3.650359 0
M  V30 54 H -6.145805 2.877994 -5.364307 0
M  V30 55 H 0.728103 -0.676892 -0.112245 0
M  V30 56 H 5.821688 -6.005311 0.798588 0
M  V30 57 H 4.509835 -6.324653 0.038424 0
M  V30 58 H 0.965601 -4.769361 4.559395 0
M  V30 59 H -1.360857 -5.527053 5.120390 0
M  V30 60 H -3.146749 -3.902707 5.528153 0
M  V30 61 H -2.631088 -1.441721 5.380083 0
M  V30 END ATOM
M  V30 BEGIN BOND
M  V30 1 1 1 2
M  V30 2 1 2 3
M  V30 3 1 3 4
M  V30 4 1 4 5
M  V30 5 2 5 6
M  V30 6 1 6 7
M  V30 7 1 7 8
M  V30 8 2 8 9
M  V30 9 1 9 10
M  V30 10 2 10 11
M  V30 11 1 11 12
M  V30 12 2 12 13
M  V30 13 1 13 14
M  V30 14 1 14 15
M  V30 15 1 15 16
M  V30 16 1 16 17
M  V30 17 1 17 18
M  V30 18 1 18 19
M  V30 19 1 18 20
M  V30 20 1 13 21
M  V30 21 2 21 22
M  V30 22 1 6 23
M  V30 23 1 23 24
M  V30 24 1 24 25
M  V30 25 1 25 26
M  V30 26 2 25 27
M  V30 27 1 2 28
M  V30 28 2 28 29
M  V30 29 1 29 30
M  V30 30 2 30 31
M  V30 31 1 31 32
M  V30 32 2 32 33
M  V30 33 1 33 34
M  V30 34 2 24 4
M  V30 35 1 33 28
M  V30 36 1 22 7
M  V30 37 1 22 10
M  V30 38 1 1 35
M  V30 39 1 1 36
M  V30 40 1 1 37
M  V30 41 1 2 38 CFG=3
M  V30 42 1 5 39
M  V30 43 1 8 40
M  V30 44 1 11 41
M  V30 45 1 12 42
M  V30 46 1 15 43
M  V30 47 1 15 44
M  V30 48 1 16 45
M  V30 49 1 16 46
M  V30 50 1 17 47
M  V30 51 1 17 48
M  V30 52 1 19 49
M  V30 53 1 19 50
M  V30 54 1 19 51
M  V30 55 1 20 52
M  V30 56 1 20 53
M  V30 57 1 20 54
M  V30 58 1 21 55
M  V30 59 1 26 56
M  V30 60 1 26 57
M  V30 61 1 29 58
M  V30 62 1 30 59
M  V30 63 1 31 60
M  V30 64 1 32 61
M  V30 END BOND
M  V30 END CTAB
M  END
>  <Dataset>  (617) 
ChEMBL_Kinases

>  <Ligand_Instance>  (617) 
nan

>  <PDB_ID>  (617) 
nan

>  <Standardized_SMILES>  (617) 
C[C@@H](Oc1cc(-n2cnc3ccc(OCCCN(C)C)cc32)sc1C(N)=O)c1ccccc1Cl

>  <Name>  (617) 
nan

>  <Pocket>  (617) 
nan

>  <ATP_Site>  (617) 
nan

>  <Peripheral>  (617) 
nan

>  <Num_H_Atoms_ProtBoundConf>  (617) 
nan

>  <Num_Resolved_Atoms>  (617) 
nan

>  <Num_Not_Resolved_Atoms>  (617) 
nan

$$$$
CHEMBL1964259
     RDKit          3D

  0  0  0  0  0  0  0  0  0  0999 V3000
M  V30 BEGIN CTAB
M  V30 COUNTS 51 54 0 0 0
M  V30 BEGIN ATOM
M  V30 1 O 2.957764 -1.019869 0.045915 0
M  V30 2 C 3.487579 0.067010 -0.317686 0
M  V30 3 N 4.213617 0.314711 -1.512415 0
M  V30 4 C 4.651751 1.663584 -1.560663 0
M  V30 5 C 5.365692 2.529324 -2.386520 0
M  V30 6 C 5.621312 3.837028 -2.122598 0
M  V30 7 C 5.172048 4.430841 -0.964281 0
M  V30 8 N 5.304289 5.660511 -0.517492 0
M  V30 9 C 4.933524 6.135159 0.429788 0
M  V30 10 S 4.044111 4.662823 1.237741 0
M  V30 11 C 4.463847 3.587313 -0.136509 0
M  V30 12 C 4.192323 2.238789 -0.394115 0
M  V30 13 C 3.449315 1.316321 0.453321 0
M  V30 14 C 2.895449 1.578829 1.617957 0
M  V30 15 N 2.235693 0.428909 2.184896 0
M  V30 16 C 0.867591 0.037516 2.181956 0
M  V30 17 C 0.549439 -1.141093 2.824405 0
M  V30 18 C -0.791768 -1.478630 2.794228 0
M  V30 19 C -1.749932 -0.696440 2.167538 0
M  V30 20 S -3.403406 -1.300611 2.241544 0
M  V30 21 O -4.301564 -0.099477 2.136212 0
M  V30 22 O -3.629092 -2.070542 3.508055 0
M  V30 23 N -3.747547 -2.324854 0.893645 0
M  V30 24 C -2.894195 -3.480991 0.875182 0
M  V30 25 C -3.229313 -4.334623 -0.306349 0
M  V30 26 O -4.383811 -4.832504 -0.505105 0
M  V30 27 C -5.255146 -5.625152 -0.002640 0
M  V30 28 C -5.877447 -5.258984 1.307416 0
M  V30 29 O -4.968546 -5.164384 2.313709 0
M  V30 30 C -1.381981 0.479961 1.534926 0
M  V30 31 C -0.045714 0.851485 1.544159 0
M  V30 32 H 4.433072 -0.345748 -2.285976 0
M  V30 33 H 5.718747 2.039560 -3.309748 0
M  V30 34 H 6.203934 4.349267 -2.905504 0
M  V30 35 H 5.028498 7.240270 0.875166 0
M  V30 36 H 2.936557 2.549629 2.086952 0
M  V30 37 H 2.989018 -0.110942 2.633175 0
M  V30 38 H 1.308298 -1.724991 3.299693 0
M  V30 39 H -1.069472 -2.413356 3.299390 0
M  V30 40 H -3.638799 -1.776687 0.016131 0
M  V30 41 H -1.828357 -3.079332 0.612968 0
M  V30 42 H -2.791665 -4.025750 1.801960 0
M  V30 43 H -2.927575 -3.669450 -1.217342 0
M  V30 44 H -2.400817 -5.145506 -0.327874 0
M  V30 45 H -4.885657 -6.730557 0.066949 0
M  V30 46 H -6.152735 -5.808969 -0.706187 0
M  V30 47 H -6.675644 -6.007234 1.577459 0
M  V30 48 H -6.360355 -4.259131 1.175743 0
M  V30 49 H -4.393592 -5.990291 2.345838 0
M  V30 50 H -2.197232 1.021648 1.074937 0
M  V30 51 H 0.205598 1.768902 1.044713 0
M  V30 END ATOM
M  V30 BEGIN BOND
M  V30 1 2 1 2
M  V30 2 1 2 3
M  V30 3 1 3 4
M  V30 4 2 4 5
M  V30 5 1 5 6
M  V30 6 2 6 7
M  V30 7 1 7 8
M  V30 8 2 8 9
M  V30 9 1 9 10
M  V30 10 1 10 11
M  V30 11 2 11 12
M  V30 12 1 12 13
M  V30 13 2 13 14
M  V30 14 1 14 15
M  V30 15 1 15 16
M  V30 16 2 16 17
M  V30 17 1 17 18
M  V30 18 2 18 19
M  V30 19 1 19 20
M  V30 20 2 20 21
M  V30 21 2 20 22
M  V30 22 1 20 23
M  V30 23 1 23 24
M  V30 24 1 24 25
M  V30 25 1 25 26
M  V30 26 1 26 27
M  V30 27 1 27 28
M  V30 28 1 28 29
M  V30 29 1 19 30
M  V30 30 2 30 31
M  V30 31 1 13 2
M  V30 32 1 31 16
M  V30 33 1 12 4
M  V30 34 1 11 7
M  V30 35 1 3 32
M  V30 36 1 5 33
M  V30 37 1 6 34
M  V30 38 1 9 35
M  V30 39 1 14 36
M  V30 40 1 15 37
M  V30 41 1 17 38
M  V30 42 1 18 39
M  V30 43 1 23 40
M  V30 44 1 24 41
M  V30 45 1 24 42
M  V30 46 1 25 43
M  V30 47 1 25 44
M  V30 48 1 27 45
M  V30 49 1 27 46
M  V30 50 1 28 47
M  V30 51 1 28 48
M  V30 52 1 29 49
M  V30 53 1 30 50
M  V30 54 1 31 51
M  V30 END BOND
M  V30 END CTAB
M  END
>  <Dataset>  (618) 
ChEMBL_Kinases

>  <Ligand_Instance>  (618) 
nan

>  <PDB_ID>  (618) 
nan

>  <Standardized_SMILES>  (618) 
O=C1Nc2ccc3ncsc3c2/C1=C/Nc1ccc(S(=O)(=O)NCCOCCO)cc1

>  <Name>  (618) 
nan

>  <Pocket>  (618) 
nan

>  <ATP_Site>  (618) 
nan

>  <Peripheral>  (618) 
nan

>  <Num_H_Atoms_ProtBoundConf>  (618) 
nan

>  <Num_Resolved_Atoms>  (618) 
nan

>  <Num_Not_Resolved_Atoms>  (618) 
nan

$$$$
CHEMBL522344
     RDKit          3D

  0  0  0  0  0  0  0  0  0  0999 V3000
M  V30 BEGIN CTAB
M  V30 COUNTS 69 73 0 0 0
M  V30 BEGIN ATOM
M  V30 1 C 1.038703 -1.519928 1.921841 0
M  V30 2 C 1.747195 -2.306267 0.901355 0
M  V30 3 C 3.123634 -2.374249 0.889425 0
M  V30 4 N 4.040073 -1.711014 1.718491 0
M  V30 5 C 4.590174 -0.500059 1.868469 0
M  V30 6 C 6.001569 -0.798231 1.968693 0
M  V30 7 C 6.627918 -2.125099 1.892710 0
M  V30 8 N 7.114634 -3.172401 1.852076 0
M  V30 9 C 7.026065 0.138815 2.171724 0
M  V30 10 N 6.749252 1.456013 2.294953 0
M  V30 11 C 5.475775 1.868509 2.216943 0
M  V30 12 C 4.539820 0.906060 2.017538 0
M  V30 13 C 3.142450 1.253393 1.755129 0
M  V30 14 C 2.242366 1.861079 2.595179 0
M  V30 15 C 0.958204 2.179731 2.212210 0
M  V30 16 C 0.491175 1.907848 0.956965 0
M  V30 17 O -0.665096 2.064684 0.257439 0
M  V30 18 C -1.867772 2.648131 0.755827 0
M  V30 19 C -2.964363 2.625250 -0.252011 0
M  V30 20 N -3.334205 1.257987 -0.671946 0
M  V30 21 C -4.355800 1.323688 -1.701065 0
M  V30 22 C -5.540296 0.453059 -1.478770 0
M  V30 23 N -5.306334 -0.805872 -0.859292 0
M  V30 24 C -5.097584 -1.921777 -1.729085 0
M  V30 25 C -4.905926 -3.243928 -0.968961 0
M  V30 26 O -6.057355 -3.506911 -0.202745 0
M  V30 27 C -4.389042 -0.748496 0.234279 0
M  V30 28 C -3.997661 0.693796 0.507088 0
M  V30 29 C 1.363316 1.291135 0.058170 0
M  V30 30 C 2.670053 0.969187 0.452774 0
M  V30 31 C 3.587955 -3.268957 -0.083040 0
M  V30 32 C 2.864902 -4.056173 -0.992811 0
M  V30 33 C 1.501339 -3.867207 -0.851927 0
M  V30 34 N 0.527351 -4.477948 -1.588578 0
M  V30 35 C -0.670440 -4.033984 -1.156797 0
M  V30 36 C -0.442356 -3.123340 -0.124711 0
M  V30 37 C 0.917513 -3.020945 0.062855 0
M  V30 38 H 0.234019 -0.891712 1.519981 0
M  V30 39 H 0.478137 -2.267564 2.575459 0
M  V30 40 H 1.692430 -0.996967 2.625250 0
M  V30 41 H 4.219738 -2.537802 2.348897 0
M  V30 42 H 8.098935 0.027127 2.259187 0
M  V30 43 H 5.071335 2.861756 2.291933 0
M  V30 44 H 2.564537 2.084860 3.581022 0
M  V30 45 H 0.203338 2.652621 2.809291 0
M  V30 46 H -1.588009 3.737355 0.903060 0
M  V30 47 H -2.120560 2.230003 1.723805 0
M  V30 48 H -2.681008 3.184325 -1.158011 0
M  V30 49 H -3.893265 3.125294 0.155487 0
M  V30 50 H -3.898296 1.123280 -2.709387 0
M  V30 51 H -4.685738 2.378850 -1.758027 0
M  V30 52 H -6.072781 0.306215 -2.437981 0
M  V30 53 H -6.241205 1.043960 -0.816264 0
M  V30 54 H -5.846476 -2.052067 -2.502316 0
M  V30 55 H -4.104346 -1.763973 -2.240600 0
M  V30 56 H -4.732087 -4.026912 -1.721977 0
M  V30 57 H -4.037632 -3.170630 -0.291086 0
M  V30 58 H -5.792064 -4.199688 0.439916 0
M  V30 59 H -3.440443 -1.258525 -0.036857 0
M  V30 60 H -4.858330 -1.175582 1.125803 0
M  V30 61 H -4.838473 1.356597 0.720123 0
M  V30 62 H -3.301990 0.681449 1.364610 0
M  V30 63 H 1.211269 0.983328 -0.993201 0
M  V30 64 H 3.398196 0.481332 -0.223282 0
M  V30 65 H 4.679618 -3.381166 -0.141642 0
M  V30 66 H 3.377381 -4.689673 -1.674307 0
M  V30 67 H 0.611965 -5.164067 -2.350512 0
M  V30 68 H -1.691628 -4.238368 -1.441886 0
M  V30 69 H -1.154932 -2.565011 0.457442 0
M  V30 END ATOM
M  V30 BEGIN BOND
M  V30 1 1 1 2
M  V30 2 2 2 3
M  V30 3 1 3 4
M  V30 4 1 4 5
M  V30 5 2 5 6
M  V30 6 1 6 7
M  V30 7 3 7 8
M  V30 8 1 6 9
M  V30 9 2 9 10
M  V30 10 1 10 11
M  V30 11 2 11 12
M  V30 12 1 12 13
M  V30 13 2 13 14
M  V30 14 1 14 15
M  V30 15 2 15 16
M  V30 16 1 16 17
M  V30 17 1 17 18
M  V30 18 1 18 19
M  V30 19 1 19 20
M  V30 20 1 20 21
M  V30 21 1 21 22
M  V30 22 1 22 23
M  V30 23 1 23 24
M  V30 24 1 24 25
M  V30 25 1 25 26
M  V30 26 1 23 27
M  V30 27 1 27 28
M  V30 28 1 16 29
M  V30 29 2 29 30
M  V30 30 1 3 31
M  V30 31 2 31 32
M  V30 32 1 32 33
M  V30 33 1 33 34
M  V30 34 1 34 35
M  V30 35 2 35 36
M  V30 36 1 36 37
M  V30 37 1 37 2
M  V30 38 1 12 5
M  V30 39 1 30 13
M  V30 40 2 37 33
M  V30 41 1 28 20
M  V30 42 1 1 38
M  V30 43 1 1 39
M  V30 44 1 1 40
M  V30 45 1 4 41
M  V30 46 1 9 42
M  V30 47 1 11 43
M  V30 48 1 14 44
M  V30 49 1 15 45
M  V30 50 1 18 46
M  V30 51 1 18 47
M  V30 52 1 19 48
M  V30 53 1 19 49
M  V30 54 1 21 50
M  V30 55 1 21 51
M  V30 56 1 22 52
M  V30 57 1 22 53
M  V30 58 1 24 54
M  V30 59 1 24 55
M  V30 60 1 25 56
M  V30 61 1 25 57
M  V30 62 1 26 58
M  V30 63 1 27 59
M  V30 64 1 27 60
M  V30 65 1 28 61
M  V30 66 1 28 62
M  V30 67 1 29 63
M  V30 68 1 30 64
M  V30 69 1 31 65
M  V30 70 1 32 66
M  V30 71 1 34 67
M  V30 72 1 35 68
M  V30 73 1 36 69
M  V30 END BOND
M  V30 END CTAB
M  END
>  <Dataset>  (619) 
ChEMBL_Kinases

>  <Ligand_Instance>  (619) 
nan

>  <PDB_ID>  (619) 
nan

>  <Standardized_SMILES>  (619) 
Cc1c(Nc2c(C#N)cncc2-c2ccc(OCCN3CCN(CCO)CC3)cc2)ccc2[nH]ccc12

>  <Name>  (619) 
nan

>  <Pocket>  (619) 
nan

>  <ATP_Site>  (619) 
nan

>  <Peripheral>  (619) 
nan

>  <Num_H_Atoms_ProtBoundConf>  (619) 
nan

>  <Num_Resolved_Atoms>  (619) 
nan

>  <Num_Not_Resolved_Atoms>  (619) 
nan

$$$$
CHEMBL4747999
     RDKit          3D

  0  0  0  0  0  0  0  0  0  0999 V3000
M  V30 BEGIN CTAB
M  V30 COUNTS 68 72 0 0 0
M  V30 BEGIN ATOM
M  V30 1 C 6.551878 0.129425 3.224163 0
M  V30 2 C 6.054647 0.005685 1.798240 0
M  V30 3 N 4.926764 -0.907533 1.686890 0
M  V30 4 C 3.822542 -0.279283 2.358234 0
M  V30 5 C 3.294710 -1.241889 3.368243 0
M  V30 6 C 4.110597 -2.485914 3.283638 0
M  V30 7 C 5.174104 -2.184449 2.259530 0 CFG=1
M  V30 8 C 5.231908 -3.318557 1.291673 0
M  V30 9 N 4.063530 -3.562194 0.520237 0
M  V30 10 C 3.370919 -2.755999 -0.406907 0
M  V30 11 O 3.858889 -1.601766 -0.609071 0
M  V30 12 C 2.173774 -3.128382 -1.131586 0
M  V30 13 C 1.544086 -4.372955 -1.020608 0
M  V30 14 C 0.404847 -4.658157 -1.738087 0
M  V30 15 C -0.163841 -3.743667 -2.589383 0
M  V30 16 C 0.431392 -2.487268 -2.731096 0
M  V30 17 C -0.085449 -1.391711 -3.616851 0
M  V30 18 N -0.953216 -0.571768 -2.832500 0
M  V30 19 C -2.278195 -0.806163 -2.412653 0
M  V30 20 O -2.784131 -1.884775 -2.771914 0
M  V30 21 C -3.054530 0.126746 -1.603657 0
M  V30 22 C -2.571695 1.347016 -1.175849 0
M  V30 23 C -3.351494 2.188857 -0.407740 0
M  V30 24 C -4.627845 1.807952 -0.062995 0
M  V30 25 C -5.170289 0.604872 -0.456637 0
M  V30 26 C -4.343238 -0.206917 -1.229201 0
M  V30 27 C -6.515670 0.071623 -0.161394 0
M  V30 28 C -6.350234 -1.177667 0.708967 0
M  V30 29 O -7.247581 0.979879 0.628259 0
M  V30 30 C -6.753004 2.201989 1.051970 0
M  V30 31 C -7.553313 3.039889 1.830454 0
M  V30 32 N -7.119541 4.235468 2.266552 0
M  V30 33 C -5.887129 4.665644 1.962504 0
M  V30 34 C -5.028921 3.878892 1.185730 0
M  V30 35 C -5.487900 2.656653 0.746601 0
M  V30 36 C 1.569854 -2.262058 -1.986686 0
M  V30 37 H 7.595636 -0.208732 3.347404 0
M  V30 38 H 6.505332 1.210536 3.522488 0
M  V30 39 H 5.927988 -0.454645 3.941198 0
M  V30 40 H 5.687564 0.998679 1.430927 0
M  V30 41 H 6.907785 -0.266121 1.164655 0
M  V30 42 H 3.076410 -0.030653 1.552509 0
M  V30 43 H 4.066335 0.707623 2.808423 0
M  V30 44 H 3.374796 -0.761223 4.375592 0
M  V30 45 H 2.204774 -1.459212 3.172936 0
M  V30 46 H 3.522725 -3.389203 3.026508 0
M  V30 47 H 4.601812 -2.672261 4.256075 0
M  V30 48 H 6.191891 -2.148171 2.754395 0
M  V30 49 H 5.463807 -4.234008 1.893254 0
M  V30 50 H 6.149750 -3.161417 0.680430 0
M  V30 51 H 3.577722 -4.507222 0.616555 0
M  V30 52 H 1.947572 -5.117484 -0.372535 0
M  V30 53 H -0.077740 -5.639302 -1.640837 0
M  V30 54 H -1.040545 -3.941127 -3.156856 0
M  V30 55 H -0.622823 -1.856287 -4.497559 0
M  V30 56 H 0.769532 -0.882142 -4.050744 0
M  V30 57 H -0.507621 0.337036 -2.539166 0
M  V30 58 H -1.571551 1.655312 -1.440987 0
M  V30 59 H -2.915654 3.114882 -0.112706 0
M  V30 60 H -4.710504 -1.171828 -1.573555 0
M  V30 61 H -7.093579 -0.160576 -1.077233 0
M  V30 62 H -6.008053 -2.050418 0.154733 0
M  V30 63 H -5.591642 -0.931252 1.478211 0
M  V30 64 H -7.282958 -1.396882 1.266373 0
M  V30 65 H -8.560508 2.687351 2.078793 0
M  V30 66 H -5.644616 5.645542 2.368150 0
M  V30 67 H -4.050404 4.280440 0.975513 0
M  V30 68 H 2.032317 -1.289621 -2.095254 0
M  V30 END ATOM
M  V30 BEGIN BOND
M  V30 1 1 1 2
M  V30 2 1 2 3
M  V30 3 1 3 4
M  V30 4 1 4 5
M  V30 5 1 5 6
M  V30 6 1 6 7
M  V30 7 1 7 8
M  V30 8 1 8 9
M  V30 9 1 9 10
M  V30 10 2 10 11
M  V30 11 1 10 12
M  V30 12 2 12 13
M  V30 13 1 13 14
M  V30 14 2 14 15
M  V30 15 1 15 16
M  V30 16 1 16 17
M  V30 17 1 17 18
M  V30 18 1 18 19
M  V30 19 2 19 20
M  V30 20 1 19 21
M  V30 21 2 21 22
M  V30 22 1 22 23
M  V30 23 2 23 24
M  V30 24 1 24 25
M  V30 25 2 25 26
M  V30 26 1 25 27
M  V30 27 1 27 28
M  V30 28 1 27 29
M  V30 29 1 29 30
M  V30 30 2 30 31
M  V30 31 1 31 32
M  V30 32 2 32 33
M  V30 33 1 33 34
M  V30 34 2 34 35
M  V30 35 2 16 36
M  V30 36 1 7 3
M  V30 37 1 36 12
M  V30 38 1 26 21
M  V30 39 1 35 30
M  V30 40 1 35 24
M  V30 41 1 1 37
M  V30 42 1 1 38
M  V30 43 1 1 39
M  V30 44 1 2 40
M  V30 45 1 2 41
M  V30 46 1 4 42
M  V30 47 1 4 43
M  V30 48 1 5 44
M  V30 49 1 5 45
M  V30 50 1 6 46
M  V30 51 1 6 47
M  V30 52 1 7 48 CFG=1
M  V30 53 1 8 49
M  V30 54 1 8 50
M  V30 55 1 9 51
M  V30 56 1 13 52
M  V30 57 1 14 53
M  V30 58 1 15 54
M  V30 59 1 17 55
M  V30 60 1 17 56
M  V30 61 1 18 57
M  V30 62 1 22 58
M  V30 63 1 23 59
M  V30 64 1 26 60
M  V30 65 1 27 61
M  V30 66 1 28 62
M  V30 67 1 28 63
M  V30 68 1 28 64
M  V30 69 1 31 65
M  V30 70 1 33 66
M  V30 71 1 34 67
M  V30 72 1 36 68
M  V30 END BOND
M  V30 END CTAB
M  END
>  <Dataset>  (620) 
ChEMBL_Kinases

>  <Ligand_Instance>  (620) 
nan

>  <PDB_ID>  (620) 
nan

>  <Standardized_SMILES>  (620) 
CCN1CCC[C@H]1CNC(=O)c1cccc(CNC(=O)c2ccc3c(c2)C(C)Oc2cnccc2-3)c1

>  <Name>  (620) 
nan

>  <Pocket>  (620) 
nan

>  <ATP_Site>  (620) 
nan

>  <Peripheral>  (620) 
nan

>  <Num_H_Atoms_ProtBoundConf>  (620) 
nan

>  <Num_Resolved_Atoms>  (620) 
nan

>  <Num_Not_Resolved_Atoms>  (620) 
nan

$$$$
CHEMBL4748045
     RDKit          3D

  0  0  0  0  0  0  0  0  0  0999 V3000
M  V30 BEGIN CTAB
M  V30 COUNTS 60 63 0 0 0
M  V30 BEGIN ATOM
M  V30 1 C 1.126819 -5.140233 5.375624 0
M  V30 2 C 0.003898 -5.235435 4.352913 0
M  V30 3 O 0.329135 -4.513924 3.182894 0
M  V30 4 C 0.571127 -3.187343 3.193726 0
M  V30 5 O 0.397127 -3.024953 4.427754 0
M  V30 6 C 0.918996 -2.117325 2.285726 0
M  V30 7 C 1.077707 -0.869083 2.829551 0
M  V30 8 N 1.405858 0.147993 2.004245 0
M  V30 9 C 1.581281 -0.028734 0.660235 0
M  V30 10 N 1.909855 1.235918 0.108065 0
M  V30 11 C 1.019424 2.337559 -0.140504 0
M  V30 12 C 1.411640 3.540084 -0.677289 0
M  V30 13 C 0.407777 4.467576 -0.798392 0
M  V30 14 C -0.904600 4.285247 -0.436282 0
M  V30 15 C -1.270390 3.057465 0.102905 0
M  V30 16 C -0.285560 2.104088 0.237904 0
M  V30 17 C -2.719512 3.117157 0.392722 0
M  V30 18 C -3.060273 2.800004 1.830875 0
M  V30 19 C -3.367602 2.047933 -0.467876 0
M  V30 20 O -3.089392 4.407905 0.045092 0
M  V30 21 C -2.060655 5.166855 -0.482927 0
M  V30 22 O -2.049258 6.344814 -0.920612 0
M  V30 23 N 1.422943 -1.266273 0.131903 0
M  V30 24 C 1.095122 -2.319150 0.912706 0
M  V30 25 N 0.911601 -3.583919 0.322341 0
M  V30 26 C 1.066782 -3.966869 -1.064315 0 CFG=2
M  V30 27 C 2.532424 -3.962348 -1.467923 0
M  V30 28 O 3.215196 -4.861600 -0.649812 0
M  V30 29 C 0.310379 -3.005286 -1.946731 0
M  V30 30 C 0.754629 -2.488152 -3.157217 0
M  V30 31 C -0.056243 -1.594961 -3.825567 0
M  V30 32 C -1.265814 -1.242460 -3.289024 0
M  V30 33 C -1.750448 -1.739661 -2.074315 0
M  V30 34 C -0.910978 -2.637572 -1.424761 0
M  V30 35 H 0.816844 -4.558474 6.288825 0
M  V30 36 H 2.009427 -4.619987 4.945303 0
M  V30 37 H 1.477082 -6.119879 5.732818 0
M  V30 38 H -0.896589 -4.795321 4.830694 0
M  V30 39 H -0.257264 -6.286591 4.109035 0
M  V30 40 H 0.939579 -0.724327 3.912532 0
M  V30 41 H 2.906582 1.064575 -0.018254 0
M  V30 42 H 2.447860 3.654977 -0.952957 0
M  V30 43 H 0.681750 5.441355 -1.222921 0
M  V30 44 H -0.646800 1.172925 0.664296 0
M  V30 45 H -4.088675 3.164849 2.016705 0
M  V30 46 H -2.419795 3.358779 2.559110 0
M  V30 47 H -3.029304 1.728552 2.035292 0
M  V30 48 H -4.458964 2.039360 -0.407052 0
M  V30 49 H -2.894299 1.075796 -0.145273 0
M  V30 50 H -3.033766 2.201656 -1.517964 0
M  V30 51 H 0.626990 -4.364481 0.945510 0
M  V30 52 H 0.659344 -4.962175 -1.264973 0
M  V30 53 H 2.654178 -4.381664 -2.505354 0
M  V30 54 H 2.976336 -2.962392 -1.479425 0
M  V30 55 H 2.662962 -5.679380 -0.627191 0
M  V30 56 H 1.726945 -2.852732 -3.462496 0
M  V30 57 H 0.344989 -1.236580 -4.748718 0
M  V30 58 H -1.897851 -0.542490 -3.815885 0
M  V30 59 H -2.719151 -1.422148 -1.701104 0
M  V30 60 H -1.310731 -3.014484 -0.479314 0
M  V30 END ATOM
M  V30 BEGIN BOND
M  V30 1 1 1 2
M  V30 2 1 2 3
M  V30 3 1 3 4
M  V30 4 2 4 5
M  V30 5 1 4 6
M  V30 6 2 6 7
M  V30 7 1 7 8
M  V30 8 2 8 9
M  V30 9 1 9 10
M  V30 10 1 10 11
M  V30 11 2 11 12
M  V30 12 1 12 13
M  V30 13 2 13 14
M  V30 14 1 14 15
M  V30 15 2 15 16
M  V30 16 1 15 17
M  V30 17 1 17 18
M  V30 18 1 17 19
M  V30 19 1 17 20
M  V30 20 1 20 21
M  V30 21 2 21 22
M  V30 22 1 9 23
M  V30 23 2 23 24
M  V30 24 1 24 25
M  V30 25 1 25 26
M  V30 26 1 26 27
M  V30 27 1 27 28
M  V30 28 1 26 29
M  V30 29 2 29 30
M  V30 30 1 30 31
M  V30 31 2 31 32
M  V30 32 1 32 33
M  V30 33 2 33 34
M  V30 34 1 24 6
M  V30 35 1 34 29
M  V30 36 1 16 11
M  V30 37 1 21 14
M  V30 38 1 1 35
M  V30 39 1 1 36
M  V30 40 1 1 37
M  V30 41 1 2 38
M  V30 42 1 2 39
M  V30 43 1 7 40
M  V30 44 1 10 41
M  V30 45 1 12 42
M  V30 46 1 13 43
M  V30 47 1 16 44
M  V30 48 1 18 45
M  V30 49 1 18 46
M  V30 50 1 18 47
M  V30 51 1 19 48
M  V30 52 1 19 49
M  V30 53 1 19 50
M  V30 54 1 25 51
M  V30 55 1 26 52 CFG=1
M  V30 56 1 27 53
M  V30 57 1 27 54
M  V30 58 1 28 55
M  V30 59 1 30 56
M  V30 60 1 31 57
M  V30 61 1 32 58
M  V30 62 1 33 59
M  V30 63 1 34 60
M  V30 END BOND
M  V30 END CTAB
M  END
>  <Dataset>  (621) 
ChEMBL_Kinases

>  <Ligand_Instance>  (621) 
nan

>  <PDB_ID>  (621) 
nan

>  <Standardized_SMILES>  (621) 
CCOC(=O)c1cnc(Nc2ccc3c(c2)C(C)(C)OC3=O)nc1N[C@H](CO)c1ccccc1

>  <Name>  (621) 
nan

>  <Pocket>  (621) 
nan

>  <ATP_Site>  (621) 
nan

>  <Peripheral>  (621) 
nan

>  <Num_H_Atoms_ProtBoundConf>  (621) 
nan

>  <Num_Resolved_Atoms>  (621) 
nan

>  <Num_Not_Resolved_Atoms>  (621) 
nan

$$$$
CHEMBL4748154
     RDKit          3D

  0  0  0  0  0  0  0  0  0  0999 V3000
M  V30 BEGIN CTAB
M  V30 COUNTS 56 60 0 0 0
M  V30 BEGIN ATOM
M  V30 1 C 3.364092 -0.270035 3.544673 0
M  V30 2 C 4.004656 -1.093319 2.444459 0
M  V30 3 C 3.233593 -2.366188 2.182177 0
M  V30 4 O 5.335382 -1.310559 2.848429 0
M  V30 5 C 6.153370 -0.671959 1.934755 0
M  V30 6 O 7.428872 -0.644308 1.984964 0
M  V30 7 C 5.402457 -0.012417 0.875051 0
M  V30 8 C 5.663185 0.733183 -0.249494 0
M  V30 9 C 4.648255 1.203899 -1.047538 0
M  V30 10 C 3.324382 0.950345 -0.757754 0
M  V30 11 N 2.330399 1.473985 -1.628023 0
M  V30 12 C 0.919271 1.301949 -1.598646 0
M  V30 13 N 0.095039 1.866644 -2.465118 0
M  V30 14 C -1.202114 1.704849 -2.441469 0
M  V30 15 C -1.838262 0.928848 -1.509762 0
M  V30 16 C -3.304729 0.911659 -1.570923 0
M  V30 17 N -4.252174 0.362792 -0.824625 0
M  V30 18 N -5.451026 0.617356 -1.267689 0
M  V30 19 C -5.268669 1.370740 -2.358614 0
M  V30 20 O -4.006162 1.511257 -2.489234 0
M  V30 21 C -1.008160 0.322533 -0.592118 0
M  V30 22 N -1.618784 -0.582142 0.355988 0
M  V30 23 C -2.112813 -1.466407 1.313591 0 CFG=2
M  V30 24 C -1.269692 -2.745516 1.556340 0
M  V30 25 O -1.148105 -3.498411 0.399960 0
M  V30 26 C -3.471166 -2.052242 1.044030 0
M  V30 27 C -4.534817 -2.014742 1.924940 0
M  V30 28 C -5.761575 -2.564454 1.706581 0
M  V30 29 C -5.958833 -3.214778 0.501539 0
M  V30 30 C -4.962418 -3.307985 -0.444338 0
M  V30 31 C -3.758498 -2.727905 -0.145315 0
M  V30 32 N 0.294345 0.557116 -0.708624 0
M  V30 33 C 3.095934 0.201078 0.374972 0
M  V30 34 C 4.090129 -0.288344 1.200328 0
M  V30 35 H 2.426035 0.226084 3.231921 0
M  V30 36 H 3.205992 -0.921078 4.407449 0
M  V30 37 H 4.137807 0.495149 3.845501 0
M  V30 38 H 3.228103 -3.020076 3.054940 0
M  V30 39 H 2.197118 -2.055103 1.939858 0
M  V30 40 H 3.644211 -2.815954 1.254149 0
M  V30 41 H 6.702195 0.938921 -0.488402 0
M  V30 42 H 4.934609 1.784854 -1.917010 0
M  V30 43 H 2.657849 2.078672 -2.414221 0
M  V30 44 H -1.717475 2.257292 -3.247351 0
M  V30 45 H -5.893120 1.859563 -3.111221 0
M  V30 46 H -0.721153 -0.747132 0.919331 0
M  V30 47 H -2.238145 -1.016165 2.304201 0
M  V30 48 H -0.302335 -2.491481 2.027276 0
M  V30 49 H -1.852219 -3.322296 2.304566 0
M  V30 50 H -0.461167 -3.016393 -0.155339 0
M  V30 51 H -4.323518 -1.485465 2.866162 0
M  V30 52 H -6.508839 -2.456186 2.497530 0
M  V30 53 H -6.947205 -3.645749 0.350576 0
M  V30 54 H -5.123332 -3.818168 -1.384884 0
M  V30 55 H -2.962290 -2.800622 -0.897690 0
M  V30 56 H 2.085017 -0.021057 0.642013 0
M  V30 END ATOM
M  V30 BEGIN BOND
M  V30 1 1 1 2
M  V30 2 1 2 3
M  V30 3 1 2 4
M  V30 4 1 4 5
M  V30 5 2 5 6
M  V30 6 1 5 7
M  V30 7 2 7 8
M  V30 8 1 8 9
M  V30 9 2 9 10
M  V30 10 1 10 11
M  V30 11 1 11 12
M  V30 12 2 12 13
M  V30 13 1 13 14
M  V30 14 2 14 15
M  V30 15 1 15 16
M  V30 16 2 16 17
M  V30 17 1 17 18
M  V30 18 2 18 19
M  V30 19 1 19 20
M  V30 20 1 15 21
M  V30 21 1 21 22
M  V30 22 1 22 23
M  V30 23 1 23 24
M  V30 24 1 24 25
M  V30 25 1 23 26
M  V30 26 2 26 27
M  V30 27 1 27 28
M  V30 28 2 28 29
M  V30 29 1 29 30
M  V30 30 2 30 31
M  V30 31 2 21 32
M  V30 32 1 10 33
M  V30 33 2 33 34
M  V30 34 1 34 2
M  V30 35 1 34 7
M  V30 36 1 32 12
M  V30 37 1 20 16
M  V30 38 1 31 26
M  V30 39 1 1 35
M  V30 40 1 1 36
M  V30 41 1 1 37
M  V30 42 1 3 38
M  V30 43 1 3 39
M  V30 44 1 3 40
M  V30 45 1 8 41
M  V30 46 1 9 42
M  V30 47 1 11 43
M  V30 48 1 14 44
M  V30 49 1 19 45
M  V30 50 1 22 46
M  V30 51 1 23 47 CFG=1
M  V30 52 1 24 48
M  V30 53 1 24 49
M  V30 54 1 25 50
M  V30 55 1 27 51
M  V30 56 1 28 52
M  V30 57 1 29 53
M  V30 58 1 30 54
M  V30 59 1 31 55
M  V30 60 1 33 56
M  V30 END BOND
M  V30 END CTAB
M  END
>  <Dataset>  (622) 
ChEMBL_Kinases

>  <Ligand_Instance>  (622) 
nan

>  <PDB_ID>  (622) 
nan

>  <Standardized_SMILES>  (622) 
CC1(C)OC(=O)c2ccc(Nc3ncc(-c4nnco4)c(N[C@H](CO)c4ccccc4)n3)cc21

>  <Name>  (622) 
nan

>  <Pocket>  (622) 
nan

>  <ATP_Site>  (622) 
nan

>  <Peripheral>  (622) 
nan

>  <Num_H_Atoms_ProtBoundConf>  (622) 
nan

>  <Num_Resolved_Atoms>  (622) 
nan

>  <Num_Not_Resolved_Atoms>  (622) 
nan

$$$$
CHEMBL1964265
     RDKit          3D

  0  0  0  0  0  0  0  0  0  0999 V3000
M  V30 BEGIN CTAB
M  V30 COUNTS 65 69 0 0 0
M  V30 BEGIN ATOM
M  V30 1 C 1.579944 1.447531 5.962770 0
M  V30 2 C 0.874253 1.225734 4.618074 0 CFG=1
M  V30 3 O 0.667250 -0.144429 4.462842 0
M  V30 4 C 1.225799 -0.932320 3.466362 0
M  V30 5 C 2.068560 -0.571607 2.453665 0
M  V30 6 C 2.510860 -1.463269 1.579997 0
M  V30 7 N 3.386879 -1.276376 0.468999 0
M  V30 8 C 4.714220 -1.095778 0.603721 0
M  V30 9 N 5.311717 -0.943250 -0.596065 0
M  V30 10 C 4.340850 -1.027123 -1.549678 0
M  V30 11 C 4.263563 -0.959858 -2.937939 0
M  V30 12 C 3.044274 -1.097238 -3.568610 0
M  V30 13 C 1.855366 -1.305598 -2.863712 0
M  V30 14 O 0.776665 -1.411927 -3.694866 0
M  V30 15 C -0.546214 -1.619085 -3.317055 0 CFG=2
M  V30 16 C -1.111711 -2.948527 -3.839372 0
M  V30 17 C -2.369014 -3.179778 -3.027084 0
M  V30 18 C -3.593689 -2.593206 -3.674753 0
M  V30 19 N -3.828995 -1.216196 -3.400790 0
M  V30 20 C -4.425170 -0.631436 -4.612565 0
M  V30 21 C -2.678117 -0.458429 -2.976322 0
M  V30 22 C -1.487900 -0.562148 -3.864938 0
M  V30 23 C 1.950421 -1.369554 -1.489613 0
M  V30 24 C 3.168326 -1.232445 -0.857806 0
M  V30 25 S 1.752979 -2.971924 2.115889 0
M  V30 26 C 0.883031 -2.284420 3.496712 0
M  V30 27 C 0.025503 -3.071395 4.394155 0
M  V30 28 N -0.596555 -2.355306 5.450732 0
M  V30 29 O -0.114907 -4.301458 4.194183 0
M  V30 30 C -0.400404 1.998432 4.616951 0
M  V30 31 C -1.521350 1.331249 5.095508 0
M  V30 32 C -2.771602 1.916213 5.156127 0
M  V30 33 C -2.900718 3.203074 4.725943 0
M  V30 34 C -1.800119 3.898230 4.241922 0
M  V30 35 C -0.564527 3.298350 4.189669 0
M  V30 36 Cl 0.873638 4.103136 3.594254 0
M  V30 37 H 2.204702 0.545233 6.134195 0
M  V30 38 H 0.834011 1.548613 6.775942 0
M  V30 39 H 2.280414 2.306759 5.908451 0
M  V30 40 H 1.548964 1.648243 3.830973 0
M  V30 41 H 2.376201 0.486031 2.377676 0
M  V30 42 H 5.271675 -1.070223 1.553124 0
M  V30 43 H 5.189404 -0.800101 -3.441556 0
M  V30 44 H 3.126559 -1.023769 -4.663530 0
M  V30 45 H -0.624008 -1.686277 -2.231008 0
M  V30 46 H -0.422523 -3.776785 -3.630219 0
M  V30 47 H -1.312014 -2.889927 -4.930815 0
M  V30 48 H -2.483765 -4.291852 -2.899290 0
M  V30 49 H -2.195616 -2.795813 -2.000761 0
M  V30 50 H -3.600885 -2.859001 -4.735124 0
M  V30 51 H -4.465044 -3.149757 -3.217972 0
M  V30 52 H -4.469777 -1.365155 -5.443562 0
M  V30 53 H -5.451902 -0.277240 -4.442090 0
M  V30 54 H -3.803908 0.212759 -4.985122 0
M  V30 55 H -2.413715 -0.771109 -1.949182 0
M  V30 56 H -2.976592 0.606243 -2.892467 0
M  V30 57 H -1.743156 -0.782932 -4.923211 0
M  V30 58 H -0.921314 0.398448 -3.860432 0
M  V30 59 H 0.996100 -1.532137 -1.007922 0
M  V30 60 H 0.129467 -1.896596 6.077303 0
M  V30 61 H -1.469130 -2.046825 5.933002 0
M  V30 62 H -1.452076 0.312641 5.443289 0
M  V30 63 H -3.616130 1.346750 5.540533 0
M  V30 64 H -3.886345 3.672726 4.770631 0
M  V30 65 H -1.893768 4.925376 3.896625 0
M  V30 END ATOM
M  V30 BEGIN BOND
M  V30 1 1 1 2
M  V30 2 1 2 3
M  V30 3 1 3 4
M  V30 4 1 4 5
M  V30 5 2 5 6
M  V30 6 1 6 7
M  V30 7 1 7 8
M  V30 8 2 8 9
M  V30 9 1 9 10
M  V30 10 2 10 11
M  V30 11 1 11 12
M  V30 12 2 12 13
M  V30 13 1 13 14
M  V30 14 1 14 15
M  V30 15 1 15 16
M  V30 16 1 16 17
M  V30 17 1 17 18
M  V30 18 1 18 19
M  V30 19 1 19 20
M  V30 20 1 19 21
M  V30 21 1 21 22
M  V30 22 1 13 23
M  V30 23 2 23 24
M  V30 24 1 6 25
M  V30 25 1 25 26
M  V30 26 1 26 27
M  V30 27 1 27 28
M  V30 28 2 27 29
M  V30 29 1 2 30
M  V30 30 2 30 31
M  V30 31 1 31 32
M  V30 32 2 32 33
M  V30 33 1 33 34
M  V30 34 2 34 35
M  V30 35 1 35 36
M  V30 36 2 26 4
M  V30 37 1 35 30
M  V30 38 1 24 7
M  V30 39 1 24 10
M  V30 40 1 22 15
M  V30 41 1 1 37
M  V30 42 1 1 38
M  V30 43 1 1 39
M  V30 44 1 2 40 CFG=3
M  V30 45 1 5 41
M  V30 46 1 8 42
M  V30 47 1 11 43
M  V30 48 1 12 44
M  V30 49 1 15 45 CFG=1
M  V30 50 1 16 46
M  V30 51 1 16 47
M  V30 52 1 17 48
M  V30 53 1 17 49
M  V30 54 1 18 50
M  V30 55 1 18 51
M  V30 56 1 20 52
M  V30 57 1 20 53
M  V30 58 1 20 54
M  V30 59 1 21 55
M  V30 60 1 21 56
M  V30 61 1 22 57
M  V30 62 1 22 58
M  V30 63 1 23 59
M  V30 64 1 28 60
M  V30 65 1 28 61
M  V30 66 1 31 62
M  V30 67 1 32 63
M  V30 68 1 33 64
M  V30 69 1 34 65
M  V30 END BOND
M  V30 END CTAB
M  END
>  <Dataset>  (623) 
ChEMBL_Kinases

>  <Ligand_Instance>  (623) 
nan

>  <PDB_ID>  (623) 
nan

>  <Standardized_SMILES>  (623) 
C[C@@H](Oc1cc(-n2cnc3ccc(O[C@@H]4CCCN(C)CC4)cc32)sc1C(N)=O)c1ccccc1Cl

>  <Name>  (623) 
nan

>  <Pocket>  (623) 
nan

>  <ATP_Site>  (623) 
nan

>  <Peripheral>  (623) 
nan

>  <Num_H_Atoms_ProtBoundConf>  (623) 
nan

>  <Num_Resolved_Atoms>  (623) 
nan

>  <Num_Not_Resolved_Atoms>  (623) 
nan

$$$$
CHEMBL2017355
     RDKit          3D

  0  0  0  0  0  0  0  0  0  0999 V3000
M  V30 BEGIN CTAB
M  V30 COUNTS 39 43 0 0 0
M  V30 BEGIN ATOM
M  V30 1 N 0.503253 -2.150693 7.684170 0
M  V30 2 C 0.729207 -2.031815 6.557457 0
M  V30 3 C 1.014950 -1.908594 5.166755 0
M  V30 4 C 2.308840 -2.032138 4.650988 0
M  V30 5 C 2.599329 -1.914705 3.302811 0
M  V30 6 C 1.563622 -1.663750 2.424520 0
M  V30 7 C 0.295000 -1.545428 2.954066 0
M  V30 8 N -0.777567 -1.286993 2.053730 0
M  V30 9 C -0.603602 -1.146276 0.648127 0
M  V30 10 N -0.368335 0.078414 0.176685 0
M  V30 11 C -0.177214 0.438076 -1.083395 0
M  V30 12 C 0.056119 1.721499 -1.458170 0
M  V30 13 C 0.118300 2.817469 -0.518856 0
M  V30 14 N 0.348459 4.098657 -0.865337 0
M  V30 15 N 0.349754 4.879886 0.198862 0
M  V30 16 C 0.115208 4.106985 1.285425 0
M  V30 17 N -0.019892 2.858883 0.805583 0
M  V30 18 C 0.231975 1.913596 -2.810823 0
M  V30 19 C 0.180388 0.894970 -3.742507 0
M  V30 20 C -0.061632 -0.418777 -3.329686 0
M  V30 21 C -0.236256 -0.602861 -1.977147 0
M  V30 22 C -0.476785 -1.887969 -1.540803 0
M  V30 23 S -0.609217 -3.433494 -2.455239 0
M  V30 24 C -0.920990 -4.442857 -0.983424 0
M  V30 25 C -0.902998 -3.533859 0.104465 0
M  V30 26 C -0.672697 -2.222882 -0.203081 0
M  V30 27 C -0.019388 -1.658039 4.290364 0
M  V30 28 H 3.125113 -2.228904 5.334204 0
M  V30 29 H 3.605327 -2.016413 2.949597 0
M  V30 30 H 1.747815 -1.565448 1.366884 0
M  V30 31 H -1.769725 -1.181861 2.359768 0
M  V30 32 H 0.063643 4.497523 2.295826 0
M  V30 33 H -0.206805 2.067912 1.430461 0
M  V30 34 H 0.425372 2.912117 -3.211307 0
M  V30 35 H 0.326039 1.102762 -4.795618 0
M  V30 36 H -0.091277 -1.172433 -4.097056 0
M  V30 37 H -1.084666 -5.502147 -0.940816 0
M  V30 38 H -1.070456 -3.930889 1.095143 0
M  V30 39 H -1.051246 -1.550329 4.623488 0
M  V30 END ATOM
M  V30 BEGIN BOND
M  V30 1 3 1 2
M  V30 2 1 2 3
M  V30 3 2 3 4
M  V30 4 1 4 5
M  V30 5 2 5 6
M  V30 6 1 6 7
M  V30 7 1 7 8
M  V30 8 1 8 9
M  V30 9 2 9 10
M  V30 10 1 10 11
M  V30 11 2 11 12
M  V30 12 1 12 13
M  V30 13 2 13 14
M  V30 14 1 14 15
M  V30 15 2 15 16
M  V30 16 1 16 17
M  V30 17 1 12 18
M  V30 18 2 18 19
M  V30 19 1 19 20
M  V30 20 2 20 21
M  V30 21 1 21 22
M  V30 22 1 22 23
M  V30 23 1 23 24
M  V30 24 2 24 25
M  V30 25 1 25 26
M  V30 26 2 7 27
M  V30 27 1 27 3
M  V30 28 1 26 9
M  V30 29 1 21 11
M  V30 30 2 26 22
M  V30 31 1 17 13
M  V30 32 1 4 28
M  V30 33 1 5 29
M  V30 34 1 6 30
M  V30 35 1 8 31
M  V30 36 1 16 32
M  V30 37 1 17 33
M  V30 38 1 18 34
M  V30 39 1 19 35
M  V30 40 1 20 36
M  V30 41 1 24 37
M  V30 42 1 25 38
M  V30 43 1 27 39
M  V30 END BOND
M  V30 END CTAB
M  END
>  <Dataset>  (624) 
ChEMBL_Kinases

>  <Ligand_Instance>  (624) 
nan

>  <PDB_ID>  (624) 
nan

>  <Standardized_SMILES>  (624) 
N#Cc1cccc(Nc2nc3c(-c4nnc[nH]4)cccc3c3sccc23)c1

>  <Name>  (624) 
nan

>  <Pocket>  (624) 
nan

>  <ATP_Site>  (624) 
nan

>  <Peripheral>  (624) 
nan

>  <Num_H_Atoms_ProtBoundConf>  (624) 
nan

>  <Num_Resolved_Atoms>  (624) 
nan

>  <Num_Not_Resolved_Atoms>  (624) 
nan

$$$$
CHEMBL2017354
     RDKit          3D

  0  0  0  0  0  0  0  0  0  0999 V3000
M  V30 BEGIN CTAB
M  V30 COUNTS 41 45 0 0 0
M  V30 BEGIN ATOM
M  V30 1 F 5.414670 -3.244357 2.226303 0
M  V30 2 C 4.384104 -4.111824 1.862610 0
M  V30 3 F 4.292574 -5.091090 2.833880 0
M  V30 4 F 4.712198 -4.665509 0.652727 0
M  V30 5 C 3.101024 -3.394686 1.731624 0
M  V30 6 C 2.276436 -3.392494 2.815681 0
M  V30 7 C 1.072857 -2.744970 2.761094 0
M  V30 8 C 0.747423 -2.110703 1.580916 0
M  V30 9 C 1.514911 -2.059752 0.439875 0
M  V30 10 N 1.141648 -1.375271 -0.761866 0
M  V30 11 C -0.119506 -0.741039 -0.590219 0
M  V30 12 N -0.017549 0.385025 0.105455 0
M  V30 13 C -0.979577 1.223780 0.463774 0
M  V30 14 C -0.803757 2.368810 1.196756 0
M  V30 15 C 0.528417 2.757672 1.623159 0
M  V30 16 N 0.770373 3.849946 2.383833 0
M  V30 17 N 2.062092 3.971873 2.633583 0
M  V30 18 C 2.704774 2.945622 2.031942 0
M  V30 19 N 1.738878 2.235687 1.432457 0
M  V30 20 C -1.917470 3.122027 1.495092 0
M  V30 21 C -3.178674 2.719980 1.058367 0
M  V30 22 C -3.384850 1.572132 0.317921 0
M  V30 23 C -2.238344 0.865124 0.052757 0
M  V30 24 C -2.326445 -0.315679 -0.674706 0
M  V30 25 S -3.846802 -1.126408 -1.403400 0
M  V30 26 C -2.941766 -2.496411 -2.091279 0
M  V30 27 C -1.632291 -2.291017 -1.761855 0
M  V30 28 C -1.334079 -1.190809 -1.050210 0
M  V30 29 C 2.717431 -2.735011 0.564217 0
M  V30 30 H 2.537016 -3.891215 3.744403 0
M  V30 31 H 0.400409 -2.731256 3.612884 0
M  V30 32 H -0.224149 -1.611536 1.588832 0
M  V30 33 H 1.777151 -1.413938 -1.556447 0
M  V30 34 H 3.780987 2.710796 2.016169 0
M  V30 35 H 1.940862 1.390859 0.892540 0
M  V30 36 H -1.773164 4.021094 2.070878 0
M  V30 37 H -4.041491 3.345108 1.317287 0
M  V30 38 H -4.361779 1.264996 -0.019600 0
M  V30 39 H -3.423712 -3.321187 -2.668425 0
M  V30 40 H -0.922830 -3.029699 -2.097819 0
M  V30 41 H 3.404835 -2.760721 -0.276108 0
M  V30 END ATOM
M  V30 BEGIN BOND
M  V30 1 1 1 2
M  V30 2 1 2 3
M  V30 3 1 2 4
M  V30 4 1 2 5
M  V30 5 2 5 6
M  V30 6 1 6 7
M  V30 7 2 7 8
M  V30 8 1 8 9
M  V30 9 1 9 10
M  V30 10 1 10 11
M  V30 11 2 11 12
M  V30 12 1 12 13
M  V30 13 2 13 14
M  V30 14 1 14 15
M  V30 15 2 15 16
M  V30 16 1 16 17
M  V30 17 2 17 18
M  V30 18 1 18 19
M  V30 19 1 14 20
M  V30 20 2 20 21
M  V30 21 1 21 22
M  V30 22 2 22 23
M  V30 23 1 23 24
M  V30 24 1 24 25
M  V30 25 1 25 26
M  V30 26 2 26 27
M  V30 27 1 27 28
M  V30 28 2 9 29
M  V30 29 1 29 5
M  V30 30 1 28 11
M  V30 31 1 23 13
M  V30 32 2 28 24
M  V30 33 1 19 15
M  V30 34 1 6 30
M  V30 35 1 7 31
M  V30 36 1 8 32
M  V30 37 1 10 33
M  V30 38 1 18 34
M  V30 39 1 19 35
M  V30 40 1 20 36
M  V30 41 1 21 37
M  V30 42 1 22 38
M  V30 43 1 26 39
M  V30 44 1 27 40
M  V30 45 1 29 41
M  V30 END BOND
M  V30 END CTAB
M  END
>  <Dataset>  (625) 
ChEMBL_Kinases

>  <Ligand_Instance>  (625) 
nan

>  <PDB_ID>  (625) 
nan

>  <Standardized_SMILES>  (625) 
FC(F)(F)c1cccc(Nc2nc3c(-c4nnc[nH]4)cccc3c3sccc23)c1

>  <Name>  (625) 
nan

>  <Pocket>  (625) 
nan

>  <ATP_Site>  (625) 
nan

>  <Peripheral>  (625) 
nan

>  <Num_H_Atoms_ProtBoundConf>  (625) 
nan

>  <Num_Resolved_Atoms>  (625) 
nan

>  <Num_Not_Resolved_Atoms>  (625) 
nan

$$$$
CHEMBL2017353
     RDKit          3D

  0  0  0  0  0  0  0  0  0  0999 V3000
M  V30 BEGIN CTAB
M  V30 COUNTS 53 57 0 0 0
M  V30 BEGIN ATOM
M  V30 1 C 1.353410 0.151280 6.256797 0
M  V30 2 N 2.561790 -0.237844 5.557733 0
M  V30 3 C 2.779280 -1.660985 5.655093 0
M  V30 4 C 2.613284 0.253617 4.204579 0
M  V30 5 C 3.835782 -0.125422 3.457744 0
M  V30 6 O 3.847570 0.365633 2.152683 0
M  V30 7 C 2.983434 0.079367 1.134948 0
M  V30 8 C 3.372826 0.822825 0.009998 0
M  V30 9 C 2.694548 0.761122 -1.209790 0
M  V30 10 C 1.597515 -0.051368 -1.345137 0
M  V30 11 N 0.805866 -0.249735 -2.495804 0
M  V30 12 C -0.555081 -0.624693 -2.638708 0
M  V30 13 N -1.373035 -0.745032 -1.595787 0
M  V30 14 C -2.657356 -1.096976 -1.604353 0
M  V30 15 C -3.469093 -1.205569 -0.496818 0
M  V30 16 C -2.930591 -0.906077 0.822242 0
M  V30 17 N -1.723756 -0.490761 1.237741 0
M  V30 18 N -1.690766 -0.339431 2.550750 0
M  V30 19 C -2.892786 -0.654442 3.058170 0
M  V30 20 N -3.613970 -0.992210 1.977279 0
M  V30 21 C -4.789447 -1.578301 -0.629835 0
M  V30 22 C -5.333442 -1.853399 -1.890341 0
M  V30 23 C -4.531743 -1.749624 -3.030540 0
M  V30 24 C -3.225561 -1.373312 -2.822935 0
M  V30 25 C -2.451015 -1.269488 -3.914319 0
M  V30 26 S -2.808927 -1.541848 -5.689076 0
M  V30 27 C -1.068649 -1.127676 -6.317817 0
M  V30 28 C -0.397750 -0.824440 -5.101486 0
M  V30 29 C -1.017231 -0.875474 -3.897472 0
M  V30 30 C 1.215200 -0.779696 -0.248275 0
M  V30 31 C 1.881475 -0.720246 0.952687 0
M  V30 32 H 1.573936 0.295705 7.328129 0
M  V30 33 H 0.846400 1.031425 5.823171 0
M  V30 34 H 0.663358 -0.738153 6.193725 0
M  V30 35 H 2.487698 -1.942602 6.696085 0
M  V30 36 H 3.854633 -1.912276 5.557935 0
M  V30 37 H 2.122519 -2.265584 4.991335 0
M  V30 38 H 2.654292 1.384597 4.314750 0
M  V30 39 H 1.656217 0.072466 3.704678 0
M  V30 40 H 4.765614 0.271150 3.952174 0
M  V30 41 H 3.997947 -1.221860 3.382521 0
M  V30 42 H 4.217918 1.524949 -0.085037 0
M  V30 43 H 2.960607 1.315356 -2.099066 0
M  V30 44 H 1.404895 -0.069064 -3.330971 0
M  V30 45 H -3.141193 -0.618698 4.109036 0
M  V30 46 H -4.622275 -1.288576 2.099604 0
M  V30 47 H -5.400007 -1.656271 0.254246 0
M  V30 48 H -6.368833 -2.145122 -1.974648 0
M  V30 49 H -4.930468 -1.957992 -4.023514 0
M  V30 50 H -0.824725 -1.157012 -7.293268 0
M  V30 51 H 0.628274 -0.560164 -5.259605 0
M  V30 52 H 0.391483 -1.462630 -0.209555 0
M  V30 53 H 1.635992 -1.273421 1.835926 0
M  V30 END ATOM
M  V30 BEGIN BOND
M  V30 1 1 1 2
M  V30 2 1 2 3
M  V30 3 1 2 4
M  V30 4 1 4 5
M  V30 5 1 5 6
M  V30 6 1 6 7
M  V30 7 2 7 8
M  V30 8 1 8 9
M  V30 9 2 9 10
M  V30 10 1 10 11
M  V30 11 1 11 12
M  V30 12 2 12 13
M  V30 13 1 13 14
M  V30 14 2 14 15
M  V30 15 1 15 16
M  V30 16 2 16 17
M  V30 17 1 17 18
M  V30 18 2 18 19
M  V30 19 1 19 20
M  V30 20 1 15 21
M  V30 21 2 21 22
M  V30 22 1 22 23
M  V30 23 2 23 24
M  V30 24 1 24 25
M  V30 25 1 25 26
M  V30 26 1 26 27
M  V30 27 2 27 28
M  V30 28 1 28 29
M  V30 29 1 10 30
M  V30 30 2 30 31
M  V30 31 1 31 7
M  V30 32 1 29 12
M  V30 33 1 24 14
M  V30 34 2 29 25
M  V30 35 1 20 16
M  V30 36 1 1 32
M  V30 37 1 1 33
M  V30 38 1 1 34
M  V30 39 1 3 35
M  V30 40 1 3 36
M  V30 41 1 3 37
M  V30 42 1 4 38
M  V30 43 1 4 39
M  V30 44 1 5 40
M  V30 45 1 5 41
M  V30 46 1 8 42
M  V30 47 1 9 43
M  V30 48 1 11 44
M  V30 49 1 19 45
M  V30 50 1 20 46
M  V30 51 1 21 47
M  V30 52 1 22 48
M  V30 53 1 23 49
M  V30 54 1 27 50
M  V30 55 1 28 51
M  V30 56 1 30 52
M  V30 57 1 31 53
M  V30 END BOND
M  V30 END CTAB
M  END
>  <Dataset>  (626) 
ChEMBL_Kinases

>  <Ligand_Instance>  (626) 
nan

>  <PDB_ID>  (626) 
nan

>  <Standardized_SMILES>  (626) 
CN(C)CCOc1ccc(Nc2nc3c(-c4nnc[nH]4)cccc3c3sccc23)cc1

>  <Name>  (626) 
nan

>  <Pocket>  (626) 
nan

>  <ATP_Site>  (626) 
nan

>  <Peripheral>  (626) 
nan

>  <Num_H_Atoms_ProtBoundConf>  (626) 
nan

>  <Num_Resolved_Atoms>  (626) 
nan

>  <Num_Not_Resolved_Atoms>  (626) 
nan

$$$$
CHEMBL2017352
     RDKit          3D

  0  0  0  0  0  0  0  0  0  0999 V3000
M  V30 BEGIN CTAB
M  V30 COUNTS 42 46 0 0 0
M  V30 BEGIN ATOM
M  V30 1 C 2.855736 -6.168516 3.662588 0
M  V30 2 O 2.965836 -5.981058 2.249153 0
M  V30 3 C 2.512898 -4.736292 1.789551 0
M  V30 4 C 1.996454 -3.748975 2.613434 0
M  V30 5 C 1.566443 -2.535248 2.073349 0
M  V30 6 C 1.646118 -2.287504 0.694701 0
M  V30 7 N 1.153190 -1.030689 0.359867 0
M  V30 8 C -0.042529 -0.295552 0.339225 0
M  V30 9 N 0.146656 0.990908 0.023269 0
M  V30 10 C -0.746892 1.951104 -0.090822 0
M  V30 11 C -0.474296 3.254289 -0.420307 0
M  V30 12 C 0.886915 3.688806 -0.677331 0
M  V30 13 N 1.186991 4.944812 -0.997450 0
M  V30 14 N 2.485592 5.064775 -1.174478 0
M  V30 15 C 3.079493 3.870276 -0.971452 0
M  V30 16 N 2.059226 3.050497 -0.667358 0
M  V30 17 C -1.556219 4.100807 -0.486586 0
M  V30 18 C -2.848653 3.681061 -0.238856 0
M  V30 19 C -3.115194 2.365479 0.092780 0
M  V30 20 C -2.031609 1.525929 0.157112 0
M  V30 21 C -2.319497 0.194631 0.494267 0
M  V30 22 S -3.808255 -0.577844 0.836631 0
M  V30 23 C -2.996613 -2.261780 1.120006 0
M  V30 24 C -1.576914 -2.012122 0.902710 0
M  V30 25 C -1.323830 -0.733558 0.588769 0
M  V30 26 C 2.164700 -3.290499 -0.092916 0
M  V30 27 C 2.599282 -4.509162 0.423363 0
M  V30 28 H 3.528657 -5.483771 4.205803 0
M  V30 29 H 3.100676 -7.225749 3.898464 0
M  V30 30 H 1.822561 -5.952178 4.024111 0
M  V30 31 H 1.937743 -3.947610 3.676587 0
M  V30 32 H 1.176513 -1.830288 2.824800 0
M  V30 33 H 2.084121 -0.670321 0.059201 0
M  V30 34 H 4.143570 3.712179 -1.058416 0
M  V30 35 H 2.191655 2.040828 -0.454601 0
M  V30 36 H -1.415800 5.147987 -0.742800 0
M  V30 37 H -3.679776 4.361462 -0.297015 0
M  V30 38 H -4.126236 2.021381 0.289589 0
M  V30 39 H -3.507638 -3.341934 1.419105 0
M  V30 40 H -1.028803 -2.919675 1.036609 0
M  V30 41 H 2.188128 -3.007380 -1.148355 0
M  V30 42 H 2.984495 -5.212053 -0.304588 0
M  V30 END ATOM
M  V30 BEGIN BOND
M  V30 1 1 1 2
M  V30 2 1 2 3
M  V30 3 2 3 4
M  V30 4 1 4 5
M  V30 5 2 5 6
M  V30 6 1 6 7
M  V30 7 1 7 8
M  V30 8 2 8 9
M  V30 9 1 9 10
M  V30 10 2 10 11
M  V30 11 1 11 12
M  V30 12 2 12 13
M  V30 13 1 13 14
M  V30 14 2 14 15
M  V30 15 1 15 16
M  V30 16 1 11 17
M  V30 17 2 17 18
M  V30 18 1 18 19
M  V30 19 2 19 20
M  V30 20 1 20 21
M  V30 21 1 21 22
M  V30 22 1 22 23
M  V30 23 2 23 24
M  V30 24 1 24 25
M  V30 25 1 6 26
M  V30 26 2 26 27
M  V30 27 1 27 3
M  V30 28 1 25 8
M  V30 29 1 20 10
M  V30 30 2 25 21
M  V30 31 1 16 12
M  V30 32 1 1 28
M  V30 33 1 1 29
M  V30 34 1 1 30
M  V30 35 1 4 31
M  V30 36 1 5 32
M  V30 37 1 7 33
M  V30 38 1 15 34
M  V30 39 1 16 35
M  V30 40 1 17 36
M  V30 41 1 18 37
M  V30 42 1 19 38
M  V30 43 1 23 39
M  V30 44 1 24 40
M  V30 45 1 26 41
M  V30 46 1 27 42
M  V30 END BOND
M  V30 END CTAB
M  END
>  <Dataset>  (627) 
ChEMBL_Kinases

>  <Ligand_Instance>  (627) 
nan

>  <PDB_ID>  (627) 
nan

>  <Standardized_SMILES>  (627) 
COc1ccc(Nc2nc3c(-c4nnc[nH]4)cccc3c3sccc23)cc1

>  <Name>  (627) 
nan

>  <Pocket>  (627) 
nan

>  <ATP_Site>  (627) 
nan

>  <Peripheral>  (627) 
nan

>  <Num_H_Atoms_ProtBoundConf>  (627) 
nan

>  <Num_Resolved_Atoms>  (627) 
nan

>  <Num_Not_Resolved_Atoms>  (627) 
nan

$$$$
CHEMBL2017351
     RDKit          3D

  0  0  0  0  0  0  0  0  0  0999 V3000
M  V30 BEGIN CTAB
M  V30 COUNTS 42 46 0 0 0
M  V30 BEGIN ATOM
M  V30 1 C 1.518619 -3.473459 2.887417 0
M  V30 2 O 2.601230 -3.722013 1.984926 0
M  V30 3 C 2.708900 -3.088379 0.758163 0
M  V30 4 C 3.825777 -3.447982 0.008592 0
M  V30 5 C 4.022555 -2.860924 -1.244641 0
M  V30 6 C 3.093565 -1.941260 -1.690911 0
M  V30 7 C 1.977953 -1.572707 -0.958298 0
M  V30 8 N 1.029719 -0.615717 -1.419921 0
M  V30 9 C -0.158423 -0.359439 -0.667406 0
M  V30 10 N 0.012689 0.517935 0.321844 0
M  V30 11 C -0.887358 0.960448 1.182408 0
M  V30 12 C -0.624011 1.863135 2.169320 0
M  V30 13 C 0.680887 2.420750 2.367124 0
M  V30 14 N 0.978343 3.313768 3.329597 0
M  V30 15 N 2.235420 3.655255 3.287175 0
M  V30 16 C 2.810053 2.993405 2.288212 0
M  V30 17 N 1.848608 2.240917 1.732535 0
M  V30 18 C -1.701558 2.194203 2.961166 0
M  V30 19 C -2.962384 1.656174 2.777205 0
M  V30 20 C -3.215587 0.730169 1.759205 0
M  V30 21 C -2.126847 0.400015 0.964615 0
M  V30 22 C -2.390955 -0.520653 -0.042242 0
M  V30 23 S -3.833070 -1.346702 -0.505859 0
M  V30 24 C -2.999403 -2.275828 -1.925617 0
M  V30 25 C -1.623382 -1.818091 -1.879974 0
M  V30 26 C -1.401503 -0.918335 -0.881491 0
M  V30 27 C 1.809232 -2.172682 0.282584 0
M  V30 28 H 1.865806 -3.849118 3.875028 0
M  V30 29 H 1.373242 -2.371543 2.930909 0
M  V30 30 H 0.595969 -3.996820 2.571443 0
M  V30 31 H 4.572403 -4.180320 0.352954 0
M  V30 32 H 4.894427 -3.144353 -1.825238 0
M  V30 33 H 3.266374 -1.500692 -2.665193 0
M  V30 34 H 1.256638 -0.121757 -2.329969 0
M  V30 35 H 3.835526 3.026175 1.959705 0
M  V30 36 H 2.008206 1.613407 0.923788 0
M  V30 37 H -1.606546 2.901809 3.776547 0
M  V30 38 H -3.781265 1.942498 3.420494 0
M  V30 39 H -4.185958 0.301243 1.600129 0
M  V30 40 H -3.420728 -3.043914 -2.692699 0
M  V30 41 H -0.988441 -2.249378 -2.630971 0
M  V30 42 H 0.950171 -1.931785 0.919062 0
M  V30 END ATOM
M  V30 BEGIN BOND
M  V30 1 1 1 2
M  V30 2 1 2 3
M  V30 3 2 3 4
M  V30 4 1 4 5
M  V30 5 2 5 6
M  V30 6 1 6 7
M  V30 7 1 7 8
M  V30 8 1 8 9
M  V30 9 2 9 10
M  V30 10 1 10 11
M  V30 11 2 11 12
M  V30 12 1 12 13
M  V30 13 2 13 14
M  V30 14 1 14 15
M  V30 15 2 15 16
M  V30 16 1 16 17
M  V30 17 1 12 18
M  V30 18 2 18 19
M  V30 19 1 19 20
M  V30 20 2 20 21
M  V30 21 1 21 22
M  V30 22 1 22 23
M  V30 23 1 23 24
M  V30 24 2 24 25
M  V30 25 1 25 26
M  V30 26 2 7 27
M  V30 27 1 27 3
M  V30 28 1 26 9
M  V30 29 1 21 11
M  V30 30 2 26 22
M  V30 31 1 17 13
M  V30 32 1 1 28
M  V30 33 1 1 29
M  V30 34 1 1 30
M  V30 35 1 4 31
M  V30 36 1 5 32
M  V30 37 1 6 33
M  V30 38 1 8 34
M  V30 39 1 16 35
M  V30 40 1 17 36
M  V30 41 1 18 37
M  V30 42 1 19 38
M  V30 43 1 20 39
M  V30 44 1 24 40
M  V30 45 1 25 41
M  V30 46 1 27 42
M  V30 END BOND
M  V30 END CTAB
M  END
>  <Dataset>  (628) 
ChEMBL_Kinases

>  <Ligand_Instance>  (628) 
nan

>  <PDB_ID>  (628) 
nan

>  <Standardized_SMILES>  (628) 
COc1cccc(Nc2nc3c(-c4nnc[nH]4)cccc3c3sccc23)c1

>  <Name>  (628) 
nan

>  <Pocket>  (628) 
nan

>  <ATP_Site>  (628) 
nan

>  <Peripheral>  (628) 
nan

>  <Num_H_Atoms_ProtBoundConf>  (628) 
nan

>  <Num_Resolved_Atoms>  (628) 
nan

>  <Num_Not_Resolved_Atoms>  (628) 
nan

$$$$
CHEMBL2017350
     RDKit          3D

  0  0  0  0  0  0  0  0  0  0999 V3000
M  V30 BEGIN CTAB
M  V30 COUNTS 42 46 0 0 0
M  V30 BEGIN ATOM
M  V30 1 C 3.517144 -4.277032 3.493711 0
M  V30 2 O 2.872045 -3.481896 2.502740 0
M  V30 3 C 1.577545 -3.066831 2.797731 0
M  V30 4 C 0.925329 -3.390039 3.977258 0
M  V30 5 C -0.351688 -2.976442 4.259080 0
M  V30 6 C -1.050443 -2.192550 3.332990 0
M  V30 7 C -0.362342 -1.897497 2.178202 0
M  V30 8 C 0.916856 -2.287084 1.847717 0
M  V30 9 N 1.511961 -1.911969 0.610747 0
M  V30 10 C 0.684187 -1.128399 -0.254898 0
M  V30 11 N 0.678340 0.194771 -0.061629 0
M  V30 12 C 0.000149 1.104348 -0.738647 0
M  V30 13 C 0.054177 2.437225 -0.472717 0
M  V30 14 C 0.886657 2.947118 0.617557 0
M  V30 15 N 1.631178 2.179840 1.426288 0
M  V30 16 N 2.209185 3.025119 2.259929 0
M  V30 17 C 1.823706 4.286565 1.964538 0
M  V30 18 N 0.965944 4.277004 0.904993 0
M  V30 19 C -0.715444 3.258716 -1.274686 0
M  V30 20 C -1.501814 2.746512 -2.297430 0
M  V30 21 C -1.548913 1.389213 -2.558038 0
M  V30 22 C -0.776008 0.584410 -1.749927 0
M  V30 23 C -0.812571 -0.791406 -2.001655 0
M  V30 24 S -1.679989 -1.751834 -3.190546 0
M  V30 25 C -1.020200 -3.339631 -2.637571 0
M  V30 26 C -0.180794 -3.009277 -1.578244 0
M  V30 27 C -0.072683 -1.705370 -1.250770 0
M  V30 28 H 4.509842 -4.638196 3.164915 0
M  V30 29 H 3.598215 -3.625615 4.380681 0
M  V30 30 H 2.869636 -5.126881 3.781633 0
M  V30 31 H 1.447283 -4.003798 4.723124 0
M  V30 32 H -0.869894 -3.228307 5.188103 0
M  V30 33 H -2.057021 -1.848422 3.521251 0
M  V30 34 H -0.936723 -1.282277 1.475970 0
M  V30 35 H 2.485686 -2.220589 0.412922 0
M  V30 36 H 2.074043 5.258460 2.411430 0
M  V30 37 H 0.468310 5.034908 0.398559 0
M  V30 38 H -0.710723 4.328010 -1.109066 0
M  V30 39 H -2.089772 3.430853 -2.902235 0
M  V30 40 H -2.181360 1.053305 -3.369069 0
M  V30 41 H -1.249957 -4.313600 -3.060391 0
M  V30 42 H 0.325813 -3.833980 -1.092838 0
M  V30 END ATOM
M  V30 BEGIN BOND
M  V30 1 1 1 2
M  V30 2 1 2 3
M  V30 3 2 3 4
M  V30 4 1 4 5
M  V30 5 2 5 6
M  V30 6 1 6 7
M  V30 7 2 7 8
M  V30 8 1 8 9
M  V30 9 1 9 10
M  V30 10 2 10 11
M  V30 11 1 11 12
M  V30 12 2 12 13
M  V30 13 1 13 14
M  V30 14 2 14 15
M  V30 15 1 15 16
M  V30 16 2 16 17
M  V30 17 1 17 18
M  V30 18 1 13 19
M  V30 19 2 19 20
M  V30 20 1 20 21
M  V30 21 2 21 22
M  V30 22 1 22 23
M  V30 23 1 23 24
M  V30 24 1 24 25
M  V30 25 2 25 26
M  V30 26 1 26 27
M  V30 27 1 8 3
M  V30 28 1 27 10
M  V30 29 1 22 12
M  V30 30 2 27 23
M  V30 31 1 18 14
M  V30 32 1 1 28
M  V30 33 1 1 29
M  V30 34 1 1 30
M  V30 35 1 4 31
M  V30 36 1 5 32
M  V30 37 1 6 33
M  V30 38 1 7 34
M  V30 39 1 9 35
M  V30 40 1 17 36
M  V30 41 1 18 37
M  V30 42 1 19 38
M  V30 43 1 20 39
M  V30 44 1 21 40
M  V30 45 1 25 41
M  V30 46 1 26 42
M  V30 END BOND
M  V30 END CTAB
M  END
>  <Dataset>  (629) 
ChEMBL_Kinases

>  <Ligand_Instance>  (629) 
nan

>  <PDB_ID>  (629) 
nan

>  <Standardized_SMILES>  (629) 
COc1ccccc1Nc1nc2c(-c3nnc[nH]3)cccc2c2sccc12

>  <Name>  (629) 
nan

>  <Pocket>  (629) 
nan

>  <ATP_Site>  (629) 
nan

>  <Peripheral>  (629) 
nan

>  <Num_H_Atoms_ProtBoundConf>  (629) 
nan

>  <Num_Resolved_Atoms>  (629) 
nan

>  <Num_Not_Resolved_Atoms>  (629) 
nan

$$$$
CHEMBL2017349
     RDKit          3D

  0  0  0  0  0  0  0  0  0  0999 V3000
M  V30 BEGIN CTAB
M  V30 COUNTS 38 42 0 0 0
M  V30 BEGIN ATOM
M  V30 1 F -1.363836 -5.091100 5.533149 0
M  V30 2 C -1.048526 -4.057216 4.713048 0
M  V30 3 C -0.205674 -3.078898 5.124701 0
M  V30 4 C 0.150628 -2.003543 4.335729 0
M  V30 5 C -0.350671 -1.871184 3.048109 0
M  V30 6 N -0.150041 -0.875426 2.091543 0
M  V30 7 C 0.408452 -0.708209 0.805926 0
M  V30 8 N 0.195611 0.477642 0.246827 0
M  V30 9 C 0.603076 0.913567 -0.929911 0
M  V30 10 C 0.355338 2.157068 -1.463111 0
M  V30 11 C -0.419847 3.116256 -0.716550 0
M  V30 12 N -0.690600 4.353354 -1.200408 0
M  V30 13 N -1.418398 5.044699 -0.331769 0
M  V30 14 C -1.642203 4.275895 0.743900 0
M  V30 15 N -1.018221 3.106391 0.474161 0
M  V30 16 C 0.872820 2.422167 -2.712064 0
M  V30 17 C 1.604548 1.524654 -3.427353 0
M  V30 18 C 1.869289 0.270757 -2.920252 0
M  V30 19 C 1.342268 0.027835 -1.670807 0
M  V30 20 C 1.600598 -1.236525 -1.135890 0
M  V30 21 S 2.521524 -2.666027 -1.766156 0
M  V30 22 C 2.252902 -3.718446 -0.346261 0
M  V30 23 C 1.478418 -2.912120 0.517843 0
M  V30 24 C 1.134002 -1.654864 0.143807 0
M  V30 25 C -1.222084 -2.890840 2.633350 0
M  V30 26 C -1.564555 -3.956364 3.439085 0
M  V30 27 F -2.413006 -4.928407 3.014455 0
M  V30 28 H 0.242920 -3.092142 6.115346 0
M  V30 29 H 0.816167 -1.188671 4.605510 0
M  V30 30 H -0.589848 -0.095808 2.623658 0
M  V30 31 H -2.205822 4.546728 1.635724 0
M  V30 32 H -1.012080 2.307150 1.118332 0
M  V30 33 H 0.681570 3.414935 -3.149787 0
M  V30 34 H 2.001300 1.759404 -4.407692 0
M  V30 35 H 2.442970 -0.484962 -3.440351 0
M  V30 36 H 2.647072 -4.683928 -0.322970 0
M  V30 37 H 1.257891 -3.440714 1.423225 0
M  V30 38 H -1.689232 -2.904244 1.636084 0
M  V30 END ATOM
M  V30 BEGIN BOND
M  V30 1 1 1 2
M  V30 2 2 2 3
M  V30 3 1 3 4
M  V30 4 2 4 5
M  V30 5 1 5 6
M  V30 6 1 6 7
M  V30 7 2 7 8
M  V30 8 1 8 9
M  V30 9 2 9 10
M  V30 10 1 10 11
M  V30 11 2 11 12
M  V30 12 1 12 13
M  V30 13 2 13 14
M  V30 14 1 14 15
M  V30 15 1 10 16
M  V30 16 2 16 17
M  V30 17 1 17 18
M  V30 18 2 18 19
M  V30 19 1 19 20
M  V30 20 1 20 21
M  V30 21 1 21 22
M  V30 22 2 22 23
M  V30 23 1 23 24
M  V30 24 1 5 25
M  V30 25 2 25 26
M  V30 26 1 26 27
M  V30 27 1 26 2
M  V30 28 1 24 7
M  V30 29 1 19 9
M  V30 30 2 24 20
M  V30 31 1 15 11
M  V30 32 1 3 28
M  V30 33 1 4 29
M  V30 34 1 6 30
M  V30 35 1 14 31
M  V30 36 1 15 32
M  V30 37 1 16 33
M  V30 38 1 17 34
M  V30 39 1 18 35
M  V30 40 1 22 36
M  V30 41 1 23 37
M  V30 42 1 25 38
M  V30 END BOND
M  V30 END CTAB
M  END
>  <Dataset>  (630) 
ChEMBL_Kinases

>  <Ligand_Instance>  (630) 
nan

>  <PDB_ID>  (630) 
nan

>  <Standardized_SMILES>  (630) 
Fc1ccc(Nc2nc3c(-c4nnc[nH]4)cccc3c3sccc23)cc1F

>  <Name>  (630) 
nan

>  <Pocket>  (630) 
nan

>  <ATP_Site>  (630) 
nan

>  <Peripheral>  (630) 
nan

>  <Num_H_Atoms_ProtBoundConf>  (630) 
nan

>  <Num_Resolved_Atoms>  (630) 
nan

>  <Num_Not_Resolved_Atoms>  (630) 
nan

$$$$
CHEMBL524174
     RDKit          3D

  0  0  0  0  0  0  0  0  0  0999 V3000
M  V30 BEGIN CTAB
M  V30 COUNTS 53 55 0 0 0
M  V30 BEGIN ATOM
M  V30 1 C 1.114504 -2.278021 4.625987 0
M  V30 2 C 1.387235 -1.115098 3.655674 0
M  V30 3 C 1.412622 0.159314 4.441207 0
M  V30 4 C 2.716917 -1.321306 2.960288 0
M  V30 5 C 3.839700 -1.389593 3.934959 0
M  V30 6 N 2.707658 -2.417934 2.038905 0
M  V30 7 C 1.992392 -2.548545 0.826697 0
M  V30 8 C 1.206846 -1.561954 0.279401 0
M  V30 9 C 0.497752 -1.693479 -0.908331 0
M  V30 10 C -0.323575 -0.570830 -1.415023 0
M  V30 11 N 0.343159 0.562860 -1.667196 0
M  V30 12 C -0.537666 1.491990 -2.117901 0
M  V30 13 S -0.290581 3.196145 -2.626102 0
M  V30 14 C -0.470963 4.326870 -1.227521 0
M  V30 15 C -1.864846 4.367620 -0.681195 0
M  V30 16 O -1.931889 5.268961 0.406833 0
M  V30 17 N -1.752400 0.922897 -2.141778 0
M  V30 18 C -1.661125 -0.352048 -1.714338 0
M  V30 19 C -2.563990 -1.479155 -1.505834 0
M  V30 20 C -3.177493 -1.857951 -2.701587 0
M  V30 21 C -4.076624 -2.907377 -2.751476 0
M  V30 22 C -4.338407 -3.567588 -1.544922 0
M  V30 23 F -5.221611 -4.614255 -1.539639 0
M  V30 24 C -3.733397 -3.196976 -0.355552 0
M  V30 25 C -2.837751 -2.144859 -0.328803 0
M  V30 26 C 0.573307 -2.878709 -1.596847 0
M  V30 27 C 1.366692 -3.853437 -1.029650 0
M  V30 28 N 2.038883 -3.691084 0.122492 0
M  V30 29 H 1.716035 -2.038343 5.525749 0
M  V30 30 H 1.385974 -3.215472 4.133817 0
M  V30 31 H 0.033054 -2.191564 4.896095 0
M  V30 32 H 0.533534 -1.107927 2.980784 0
M  V30 33 H 0.459683 0.704971 4.290113 0
M  V30 34 H 1.466165 -0.057947 5.525404 0
M  V30 35 H 2.230788 0.838568 4.108928 0
M  V30 36 H 2.870433 -0.400662 2.338349 0
M  V30 37 H 3.905558 -2.409239 4.372542 0
M  V30 38 H 4.807504 -1.268174 3.368533 0
M  V30 39 H 3.800426 -0.605756 4.700390 0
M  V30 40 H 3.328042 -3.232339 2.322022 0
M  V30 41 H 1.110613 -0.616322 0.756543 0
M  V30 42 H 1.354936 0.857075 -1.589659 0
M  V30 43 H 0.245968 4.145487 -0.413527 0
M  V30 44 H -0.258390 5.347365 -1.643527 0
M  V30 45 H -2.097839 3.365600 -0.269027 0
M  V30 46 H -2.602830 4.738059 -1.408618 0
M  V30 47 H -2.757315 5.182606 0.915121 0
M  V30 48 H -3.027857 -1.399805 -3.672198 0
M  V30 49 H -4.577605 -3.238822 -3.652698 0
M  V30 50 H -3.928846 -3.699903 0.581982 0
M  V30 51 H -2.310279 -1.768327 0.523926 0
M  V30 52 H 0.026858 -2.991899 -2.520061 0
M  V30 53 H 1.456108 -4.807669 -1.542132 0
M  V30 END ATOM
M  V30 BEGIN BOND
M  V30 1 1 1 2
M  V30 2 1 2 3
M  V30 3 1 2 4
M  V30 4 1 4 5
M  V30 5 1 4 6
M  V30 6 1 6 7
M  V30 7 2 7 8
M  V30 8 1 8 9
M  V30 9 1 9 10
M  V30 10 1 10 11
M  V30 11 1 11 12
M  V30 12 1 12 13
M  V30 13 1 13 14
M  V30 14 1 14 15
M  V30 15 1 15 16
M  V30 16 2 12 17
M  V30 17 1 17 18
M  V30 18 1 18 19
M  V30 19 2 19 20
M  V30 20 1 20 21
M  V30 21 2 21 22
M  V30 22 1 22 23
M  V30 23 1 22 24
M  V30 24 2 24 25
M  V30 25 2 9 26
M  V30 26 1 26 27
M  V30 27 2 27 28
M  V30 28 1 28 7
M  V30 29 2 18 10
M  V30 30 1 25 19
M  V30 31 1 1 29
M  V30 32 1 1 30
M  V30 33 1 1 31
M  V30 34 1 2 32
M  V30 35 1 3 33
M  V30 36 1 3 34
M  V30 37 1 3 35
M  V30 38 1 4 36
M  V30 39 1 5 37
M  V30 40 1 5 38
M  V30 41 1 5 39
M  V30 42 1 6 40
M  V30 43 1 8 41
M  V30 44 1 11 42
M  V30 45 1 14 43
M  V30 46 1 14 44
M  V30 47 1 15 45
M  V30 48 1 15 46
M  V30 49 1 16 47
M  V30 50 1 20 48
M  V30 51 1 21 49
M  V30 52 1 24 50
M  V30 53 1 25 51
M  V30 54 1 26 52
M  V30 55 1 27 53
M  V30 END BOND
M  V30 END CTAB
M  END
>  <Dataset>  (631) 
ChEMBL_Kinases

>  <Ligand_Instance>  (631) 
nan

>  <PDB_ID>  (631) 
nan

>  <Standardized_SMILES>  (631) 
CC(C)C(C)Nc1cc(-c2[nH]c(SCCO)nc2-c2ccc(F)cc2)ccn1

>  <Name>  (631) 
nan

>  <Pocket>  (631) 
nan

>  <ATP_Site>  (631) 
nan

>  <Peripheral>  (631) 
nan

>  <Num_H_Atoms_ProtBoundConf>  (631) 
nan

>  <Num_Resolved_Atoms>  (631) 
nan

>  <Num_Not_Resolved_Atoms>  (631) 
nan

$$$$
CHEMBL2017348
     RDKit          3D

  0  0  0  0  0  0  0  0  0  0999 V3000
M  V30 BEGIN CTAB
M  V30 COUNTS 38 42 0 0 0
M  V30 BEGIN ATOM
M  V30 1 F -2.983386 -0.735383 5.792473 0
M  V30 2 C -2.167278 -1.118868 4.769080 0
M  V30 3 C -0.874549 -1.451397 5.083717 0
M  V30 4 C -0.058215 -1.836097 4.052441 0
M  V30 5 C -0.451133 -1.911481 2.714786 0
M  V30 6 N 0.413367 -2.315627 1.669324 0
M  V30 7 C 0.862243 -1.647004 0.496210 0
M  V30 8 N 0.464058 -0.400657 0.246709 0
M  V30 9 C 0.823842 0.294002 -0.809646 0
M  V30 10 C 0.402515 1.575001 -1.047652 0
M  V30 11 C -0.485400 2.280471 -0.136266 0
M  V30 12 N -0.939653 3.537525 -0.321128 0
M  V30 13 N -1.728310 3.908736 0.671904 0
M  V30 14 C -1.809225 2.883581 1.545170 0
M  V30 15 N -1.047043 1.916272 1.027018 0
M  V30 16 C 0.846590 2.205867 -2.193220 0
M  V30 17 C 1.696028 1.587460 -3.097621 0
M  V30 18 C 2.138686 0.281308 -2.875217 0
M  V30 19 C 1.666890 -0.296913 -1.723157 0
M  V30 20 C 2.058239 -1.574629 -1.440569 0
M  V30 21 S 3.190861 -2.688482 -2.442452 0
M  V30 22 C 3.042787 -4.065414 -1.239545 0
M  V30 23 C 2.228938 -3.626747 -0.264955 0
M  V30 24 C 1.698446 -2.370935 -0.312561 0
M  V30 25 C -1.770654 -1.555216 2.512380 0
M  V30 26 F -2.210333 -1.610639 1.219399 0
M  V30 27 C -2.648650 -1.161290 3.481793 0
M  V30 28 H -0.502865 -1.415772 6.099261 0
M  V30 29 H 0.962332 -2.098639 4.300146 0
M  V30 30 H 0.674874 -3.271714 1.950715 0
M  V30 31 H -2.382312 2.881773 2.464010 0
M  V30 32 H -0.931571 1.015670 1.496903 0
M  V30 33 H 0.558075 3.232080 -2.461464 0
M  V30 34 H 2.030245 2.093932 -3.982054 0
M  V30 35 H 2.791773 -0.185539 -3.576795 0
M  V30 36 H 3.555565 -4.972933 -1.409270 0
M  V30 37 H 2.021818 -4.309553 0.542347 0
M  V30 38 H -3.662879 -0.893885 3.279965 0
M  V30 END ATOM
M  V30 BEGIN BOND
M  V30 1 1 1 2
M  V30 2 2 2 3
M  V30 3 1 3 4
M  V30 4 2 4 5
M  V30 5 1 5 6
M  V30 6 1 6 7
M  V30 7 2 7 8
M  V30 8 1 8 9
M  V30 9 2 9 10
M  V30 10 1 10 11
M  V30 11 2 11 12
M  V30 12 1 12 13
M  V30 13 2 13 14
M  V30 14 1 14 15
M  V30 15 1 10 16
M  V30 16 2 16 17
M  V30 17 1 17 18
M  V30 18 2 18 19
M  V30 19 1 19 20
M  V30 20 1 20 21
M  V30 21 1 21 22
M  V30 22 2 22 23
M  V30 23 1 23 24
M  V30 24 1 5 25
M  V30 25 1 25 26
M  V30 26 2 25 27
M  V30 27 1 27 2
M  V30 28 1 24 7
M  V30 29 1 19 9
M  V30 30 2 24 20
M  V30 31 1 15 11
M  V30 32 1 3 28
M  V30 33 1 4 29
M  V30 34 1 6 30
M  V30 35 1 14 31
M  V30 36 1 15 32
M  V30 37 1 16 33
M  V30 38 1 17 34
M  V30 39 1 18 35
M  V30 40 1 22 36
M  V30 41 1 23 37
M  V30 42 1 27 38
M  V30 END BOND
M  V30 END CTAB
M  END
>  <Dataset>  (632) 
ChEMBL_Kinases

>  <Ligand_Instance>  (632) 
nan

>  <PDB_ID>  (632) 
nan

>  <Standardized_SMILES>  (632) 
Fc1ccc(Nc2nc3c(-c4nnc[nH]4)cccc3c3sccc23)c(F)c1

>  <Name>  (632) 
nan

>  <Pocket>  (632) 
nan

>  <ATP_Site>  (632) 
nan

>  <Peripheral>  (632) 
nan

>  <Num_H_Atoms_ProtBoundConf>  (632) 
nan

>  <Num_Resolved_Atoms>  (632) 
nan

>  <Num_Not_Resolved_Atoms>  (632) 
nan

$$$$
CHEMBL4744513
     RDKit          3D

  0  0  0  0  0  0  0  0  0  0999 V3000
M  V30 BEGIN CTAB
M  V30 COUNTS 58 62 0 0 0
M  V30 BEGIN ATOM
M  V30 1 O 5.709279 -4.442060 0.342734 0
M  V30 2 C 4.546177 -4.850855 0.106657 0
M  V30 3 N 3.909426 -3.668230 0.679515 0
M  V30 4 C 4.576935 -2.567082 1.260812 0
M  V30 5 C 5.799840 -2.268085 1.771468 0
M  V30 6 N 5.830297 -1.003952 2.214284 0
M  V30 7 N 4.593234 -0.505789 1.971017 0
M  V30 8 C 3.817037 -1.452232 1.384744 0
M  V30 9 C 2.674273 -0.583175 1.172776 0
M  V30 10 N 1.673604 0.174878 0.985551 0
M  V30 11 C 0.786433 0.197707 0.064609 0
M  V30 12 C -0.281274 1.227016 0.083341 0
M  V30 13 C -0.324151 2.175091 1.084045 0
M  V30 14 C -1.382156 3.100028 0.996224 0
M  V30 15 C -2.355738 3.113738 -0.005040 0
M  V30 16 C -3.420096 4.124056 -0.017102 0
M  V30 17 N -4.619415 3.743461 0.643906 0
M  V30 18 C -5.682408 4.714796 0.565376 0
M  V30 19 C -6.963777 4.048453 1.011985 0
M  V30 20 O -6.787414 3.353555 2.176745 0
M  V30 21 C -5.648801 3.672979 2.869737 0
M  V30 22 C -4.388433 3.495604 2.045964 0
M  V30 23 C -2.179169 2.113854 -0.918848 0
M  V30 24 C -1.199480 1.154981 -0.953994 0
M  V30 25 C 1.162237 -0.845764 -0.734556 0
M  V30 26 N 2.255479 -1.237213 -0.024707 0
M  V30 27 C 3.653062 -5.866427 -0.420168 0
M  V30 28 C 2.355397 -5.643512 -0.693616 0
M  V30 29 C 1.672812 -6.746489 -1.133091 0
M  V30 30 C 2.268445 -7.987925 -1.283046 0
M  V30 31 N 1.493684 -9.083916 -1.749192 0 CHG=1 VAL=4
M  V30 32 O 0.286257 -8.996915 -2.037889 0
M  V30 33 O 2.099921 -10.333856 -1.905655 0 CHG=-1 VAL=1
M  V30 34 C 3.621537 -8.229516 -1.000886 0
M  V30 35 C 4.272432 -7.070581 -0.556755 0
M  V30 36 H 2.836838 -3.722980 0.670451 0
M  V30 37 H 6.599247 -2.972624 1.815982 0
M  V30 38 H 6.719118 -0.620488 2.644688 0
M  V30 39 H 0.393279 2.218344 1.884064 0
M  V30 40 H -1.395923 3.837510 1.783590 0
M  V30 41 H -2.996164 4.995744 0.573313 0
M  V30 42 H -3.602658 4.583889 -1.021913 0
M  V30 43 H -5.875528 5.045878 -0.485135 0
M  V30 44 H -5.522665 5.629357 1.160214 0
M  V30 45 H -7.260919 3.286965 0.231655 0
M  V30 46 H -7.814000 4.765189 1.041992 0
M  V30 47 H -5.692015 4.682110 3.340445 0
M  V30 48 H -5.554153 2.972297 3.734570 0
M  V30 49 H -4.029110 2.452646 2.227399 0
M  V30 50 H -3.641766 4.178134 2.483040 0
M  V30 51 H -2.893795 2.027800 -1.742260 0
M  V30 52 H -1.102977 0.387377 -1.695953 0
M  V30 53 H 0.472167 -0.922875 -1.559763 0
M  V30 54 H 2.497198 -2.057495 -0.749915 0
M  V30 55 H 1.821963 -4.732498 -0.611304 0
M  V30 56 H 0.608754 -6.646575 -1.371002 0
M  V30 57 H 4.014440 -9.206815 -1.131584 0
M  V30 58 H 5.337787 -7.245364 -0.332255 0
M  V30 END ATOM
M  V30 BEGIN BOND
M  V30 1 2 1 2
M  V30 2 1 2 3
M  V30 3 1 3 4
M  V30 4 2 4 5
M  V30 5 1 5 6
M  V30 6 1 6 7
M  V30 7 2 7 8
M  V30 8 1 8 9
M  V30 9 2 9 10
M  V30 10 1 10 11
M  V30 11 1 11 12
M  V30 12 2 12 13
M  V30 13 1 13 14
M  V30 14 2 14 15
M  V30 15 1 15 16
M  V30 16 1 16 17
M  V30 17 1 17 18
M  V30 18 1 18 19
M  V30 19 1 19 20
M  V30 20 1 20 21
M  V30 21 1 21 22
M  V30 22 1 15 23
M  V30 23 2 23 24
M  V30 24 2 11 25
M  V30 25 1 25 26
M  V30 26 1 2 27
M  V30 27 2 27 28
M  V30 28 1 28 29
M  V30 29 2 29 30
M  V30 30 1 30 31
M  V30 31 2 31 32
M  V30 32 1 31 33
M  V30 33 1 30 34
M  V30 34 2 34 35
M  V30 35 1 8 4
M  V30 36 1 26 9
M  V30 37 1 35 27
M  V30 38 1 24 12
M  V30 39 1 22 17
M  V30 40 1 3 36
M  V30 41 1 5 37
M  V30 42 1 6 38
M  V30 43 1 13 39
M  V30 44 1 14 40
M  V30 45 1 16 41
M  V30 46 1 16 42
M  V30 47 1 18 43
M  V30 48 1 18 44
M  V30 49 1 19 45
M  V30 50 1 19 46
M  V30 51 1 21 47
M  V30 52 1 21 48
M  V30 53 1 22 49
M  V30 54 1 22 50
M  V30 55 1 23 51
M  V30 56 1 24 52
M  V30 57 1 25 53
M  V30 58 1 26 54
M  V30 59 1 28 55
M  V30 60 1 29 56
M  V30 61 1 34 57
M  V30 62 1 35 58
M  V30 END BOND
M  V30 END CTAB
M  END
>  <Dataset>  (633) 
ChEMBL_Kinases

>  <Ligand_Instance>  (633) 
nan

>  <PDB_ID>  (633) 
nan

>  <Standardized_SMILES>  (633) 
O=C(Nc1c[nH]nc1-c1nc(-c2ccc(CN3CCOCC3)cc2)c[nH]1)c1ccc([N+](=O)[O-])cc1

>  <Name>  (633) 
nan

>  <Pocket>  (633) 
nan

>  <ATP_Site>  (633) 
nan

>  <Peripheral>  (633) 
nan

>  <Num_H_Atoms_ProtBoundConf>  (633) 
nan

>  <Num_Resolved_Atoms>  (633) 
nan

>  <Num_Not_Resolved_Atoms>  (633) 
nan

$$$$
CHEMBL2017346
     RDKit          3D

  0  0  0  0  0  0  0  0  0  0999 V3000
M  V30 BEGIN CTAB
M  V30 COUNTS 38 42 0 0 0
M  V30 BEGIN ATOM
M  V30 1 F 0.388526 -2.781674 6.500676 0
M  V30 2 C 1.046473 -2.546374 5.349557 0
M  V30 3 C 2.321614 -2.948798 5.131573 0
M  V30 4 C 3.044263 -2.737123 3.981954 0
M  V30 5 C 2.314971 -2.050286 3.040623 0
M  V30 6 C 1.004905 -1.563604 3.091123 0
M  V30 7 N 0.381008 -0.884283 2.046948 0
M  V30 8 C 0.246486 -0.875067 0.666032 0
M  V30 9 N -0.295264 0.232851 0.158516 0
M  V30 10 C -0.556873 0.582239 -1.070361 0
M  V30 11 C -1.118374 1.750065 -1.512760 0
M  V30 12 C -1.517458 2.748856 -0.507852 0
M  V30 13 N -2.073704 3.949817 -0.835298 0
M  V30 14 N -2.330423 4.612125 0.275504 0
M  V30 15 C -1.960784 3.888958 1.359177 0
M  V30 16 N -1.471515 2.764530 0.820054 0
M  V30 17 C -1.348333 2.015556 -2.843215 0
M  V30 18 C -0.961307 1.002831 -3.661677 0
M  V30 19 C -0.386082 -0.224944 -3.389465 0
M  V30 20 C -0.196859 -0.391602 -2.010555 0
M  V30 21 C 0.358417 -1.545366 -1.574103 0
M  V30 22 S 0.884964 -2.940738 -2.530572 0
M  V30 23 C 1.446872 -3.933875 -1.013668 0
M  V30 24 C 1.159358 -3.066147 0.039329 0
M  V30 25 C 0.609638 -1.853096 -0.238522 0
M  V30 26 C 0.428675 -1.868833 4.328116 0
M  V30 27 H 2.834232 -3.497356 5.938464 0
M  V30 28 H 4.054892 -3.042742 3.773587 0
M  V30 29 H 2.828604 -1.843155 2.097130 0
M  V30 30 H -0.143409 -0.140560 2.610934 0
M  V30 31 H -2.054999 4.179916 2.392782 0
M  V30 32 H -1.103105 2.009733 1.417342 0
M  V30 33 H -1.788707 2.925828 -3.219165 0
M  V30 34 H -1.129691 1.182831 -4.738789 0
M  V30 35 H -0.123940 -0.941551 -4.121916 0
M  V30 36 H 1.867925 -4.920753 -1.120402 0
M  V30 37 H 1.417045 -3.533423 0.961700 0
M  V30 38 H -0.603323 -1.535917 4.489379 0
M  V30 END ATOM
M  V30 BEGIN BOND
M  V30 1 1 1 2
M  V30 2 2 2 3
M  V30 3 1 3 4
M  V30 4 2 4 5
M  V30 5 1 5 6
M  V30 6 1 6 7
M  V30 7 1 7 8
M  V30 8 2 8 9
M  V30 9 1 9 10
M  V30 10 2 10 11
M  V30 11 1 11 12
M  V30 12 2 12 13
M  V30 13 1 13 14
M  V30 14 2 14 15
M  V30 15 1 15 16
M  V30 16 1 11 17
M  V30 17 2 17 18
M  V30 18 1 18 19
M  V30 19 2 19 20
M  V30 20 1 20 21
M  V30 21 1 21 22
M  V30 22 1 22 23
M  V30 23 2 23 24
M  V30 24 1 24 25
M  V30 25 2 6 26
M  V30 26 1 26 2
M  V30 27 1 25 8
M  V30 28 1 20 10
M  V30 29 2 25 21
M  V30 30 1 16 12
M  V30 31 1 3 27
M  V30 32 1 4 28
M  V30 33 1 5 29
M  V30 34 1 7 30
M  V30 35 1 15 31
M  V30 36 1 16 32
M  V30 37 1 17 33
M  V30 38 1 18 34
M  V30 39 1 19 35
M  V30 40 1 23 36
M  V30 41 1 24 37
M  V30 42 1 26 38
M  V30 END BOND
M  V30 END CTAB
M  END
>  <Dataset>  (634) 
ChEMBL_Kinases

>  <Ligand_Instance>  (634) 
nan

>  <PDB_ID>  (634) 
nan

>  <Standardized_SMILES>  (634) 
Fc1cccc(Nc2nc3c(-c4nnc[nH]4)cccc3c3sccc23)c1

>  <Name>  (634) 
nan

>  <Pocket>  (634) 
nan

>  <ATP_Site>  (634) 
nan

>  <Peripheral>  (634) 
nan

>  <Num_H_Atoms_ProtBoundConf>  (634) 
nan

>  <Num_Resolved_Atoms>  (634) 
nan

>  <Num_Not_Resolved_Atoms>  (634) 
nan

$$$$
CHEMBL2017345
     RDKit          3D

  0  0  0  0  0  0  0  0  0  0999 V3000
M  V30 BEGIN CTAB
M  V30 COUNTS 42 46 0 0 0
M  V30 BEGIN ATOM
M  V30 1 F 6.179769 -3.932255 0.925850 0
M  V30 2 C 5.586730 -5.012327 0.266066 0
M  V30 3 F 6.035069 -6.203276 0.876628 0
M  V30 4 F 6.066580 -5.082729 -1.021057 0
M  V30 5 O 4.202941 -5.032629 0.393918 0
M  V30 6 C 3.395370 -4.019381 -0.019261 0
M  V30 7 C 2.765826 -3.760491 -1.215608 0
M  V30 8 C 1.990614 -2.631702 -1.326957 0
M  V30 9 C 1.783072 -1.703630 -0.305767 0
M  V30 10 N 0.905993 -0.623092 -0.665318 0
M  V30 11 C -0.345655 -0.238369 -0.037910 0
M  V30 12 N -0.413046 0.866852 0.704940 0
M  V30 13 C -1.423414 1.377868 1.356519 0
M  V30 14 C -1.485578 2.502724 2.111517 0
M  V30 15 C -0.285829 3.315217 2.250051 0
M  V30 16 N -0.264544 4.395538 3.041924 0
M  V30 17 N 0.941357 4.924059 2.990164 0
M  V30 18 C 1.725929 4.214311 2.176270 0
M  V30 19 N 0.946402 3.195273 1.707503 0
M  V30 20 C -2.664778 2.863494 2.718853 0
M  V30 21 C -3.839079 2.146392 2.618351 0
M  V30 22 C -3.782123 1.006093 1.854020 0
M  V30 23 C -2.596620 0.660797 1.256143 0
M  V30 24 C -2.640797 -0.522991 0.496814 0
M  V30 25 S -3.944099 -1.635109 0.184897 0
M  V30 26 C -2.888569 -2.778239 -0.891808 0
M  V30 27 C -1.580771 -2.127115 -0.882153 0
M  V30 28 C -1.516047 -0.979670 -0.155179 0
M  V30 29 C 2.415487 -1.965655 0.884313 0
M  V30 30 Cl 2.134964 -0.776817 2.129555 0
M  V30 31 C 3.210231 -3.107137 1.024964 0
M  V30 32 H 2.965740 -4.515344 -1.958629 0
M  V30 33 H 1.528504 -2.509117 -2.306584 0
M  V30 34 H 1.234393 -0.076843 -1.469721 0
M  V30 35 H 2.759750 4.446561 1.965993 0
M  V30 36 H 1.251187 2.458507 1.048874 0
M  V30 37 H -2.713835 3.771188 3.326554 0
M  V30 38 H -4.737534 2.471806 3.113720 0
M  V30 39 H -4.673298 0.418839 1.750465 0
M  V30 40 H -3.140897 -3.776328 -1.463381 0
M  V30 41 H -0.861436 -2.665445 -1.463988 0
M  V30 42 H 3.636932 -3.152373 2.040172 0
M  V30 END ATOM
M  V30 BEGIN BOND
M  V30 1 1 1 2
M  V30 2 1 2 3
M  V30 3 1 2 4
M  V30 4 1 2 5
M  V30 5 1 5 6
M  V30 6 2 6 7
M  V30 7 1 7 8
M  V30 8 2 8 9
M  V30 9 1 9 10
M  V30 10 1 10 11
M  V30 11 2 11 12
M  V30 12 1 12 13
M  V30 13 2 13 14
M  V30 14 1 14 15
M  V30 15 2 15 16
M  V30 16 1 16 17
M  V30 17 2 17 18
M  V30 18 1 18 19
M  V30 19 1 14 20
M  V30 20 2 20 21
M  V30 21 1 21 22
M  V30 22 2 22 23
M  V30 23 1 23 24
M  V30 24 1 24 25
M  V30 25 1 25 26
M  V30 26 2 26 27
M  V30 27 1 27 28
M  V30 28 1 9 29
M  V30 29 1 29 30
M  V30 30 2 29 31
M  V30 31 1 31 6
M  V30 32 1 28 11
M  V30 33 1 23 13
M  V30 34 2 28 24
M  V30 35 1 19 15
M  V30 36 1 7 32
M  V30 37 1 8 33
M  V30 38 1 10 34
M  V30 39 1 18 35
M  V30 40 1 19 36
M  V30 41 1 20 37
M  V30 42 1 21 38
M  V30 43 1 22 39
M  V30 44 1 26 40
M  V30 45 1 27 41
M  V30 46 1 31 42
M  V30 END BOND
M  V30 END CTAB
M  END
>  <Dataset>  (635) 
ChEMBL_Kinases

>  <Ligand_Instance>  (635) 
nan

>  <PDB_ID>  (635) 
nan

>  <Standardized_SMILES>  (635) 
FC(F)(F)Oc1ccc(Nc2nc3c(-c4nnc[nH]4)cccc3c3sccc23)c(Cl)c1

>  <Name>  (635) 
nan

>  <Pocket>  (635) 
nan

>  <ATP_Site>  (635) 
nan

>  <Peripheral>  (635) 
nan

>  <Num_H_Atoms_ProtBoundConf>  (635) 
nan

>  <Num_Resolved_Atoms>  (635) 
nan

>  <Num_Not_Resolved_Atoms>  (635) 
nan

$$$$
CHEMBL2017344
     RDKit          3D

  0  0  0  0  0  0  0  0  0  0999 V3000
M  V30 BEGIN CTAB
M  V30 COUNTS 38 42 0 0 0
M  V30 BEGIN ATOM
M  V30 1 F 0.124613 -2.962728 5.273326 0
M  V30 2 C 1.210339 -2.540668 4.554455 0
M  V30 3 C 2.508106 -2.769920 4.966520 0
M  V30 4 C 3.603517 -2.338753 4.241380 0
M  V30 5 F 4.871125 -2.602167 4.689974 0
M  V30 6 C 3.338116 -1.662622 3.072700 0
M  V30 7 C 2.026390 -1.424963 2.643161 0
M  V30 8 N 2.015320 -0.733599 1.416103 0
M  V30 9 C 0.950964 -0.723289 0.444066 0
M  V30 10 N 0.157671 0.316744 0.162286 0
M  V30 11 C -0.826210 0.375447 -0.715049 0
M  V30 12 C -1.582395 1.499640 -0.933360 0
M  V30 13 C -1.340161 2.732206 -0.173604 0
M  V30 14 N -0.400522 2.876817 0.775398 0
M  V30 15 N -0.458971 4.124128 1.263334 0
M  V30 16 C -1.445081 4.761642 0.611694 0
M  V30 17 N -1.995769 3.919793 -0.274909 0
M  V30 18 C -2.591268 1.418555 -1.899252 0
M  V30 19 C -2.822661 0.252238 -2.608533 0
M  V30 20 C -2.047184 -0.862186 -2.368523 0
M  V30 21 C -1.045994 -0.790391 -1.414281 0
M  V30 22 C -0.293493 -1.898324 -1.194707 0
M  V30 23 S -0.374073 -3.490675 -1.944431 0
M  V30 24 C 1.065449 -4.176965 -0.916051 0
M  V30 25 C 1.431419 -3.106671 -0.125124 0
M  V30 26 C 0.751553 -1.920670 -0.246382 0
M  V30 27 C 0.955859 -1.858003 3.376180 0
M  V30 28 H 2.626523 -3.320075 5.905123 0
M  V30 29 H 4.233552 -1.351200 2.543219 0
M  V30 30 H 2.770258 -0.124339 1.035378 0
M  V30 31 H -1.768314 5.784566 0.750788 0
M  V30 32 H -2.784814 4.140610 -0.934478 0
M  V30 33 H -3.199688 2.324246 -2.076142 0
M  V30 34 H -3.623462 0.205830 -3.363235 0
M  V30 35 H -2.256856 -1.743647 -2.936718 0
M  V30 36 H 1.431948 -5.187472 -1.008409 0
M  V30 37 H 2.255354 -3.347675 0.529181 0
M  V30 38 H 0.003560 -1.616596 2.961101 0
M  V30 END ATOM
M  V30 BEGIN BOND
M  V30 1 1 1 2
M  V30 2 2 2 3
M  V30 3 1 3 4
M  V30 4 1 4 5
M  V30 5 2 4 6
M  V30 6 1 6 7
M  V30 7 1 7 8
M  V30 8 1 8 9
M  V30 9 2 9 10
M  V30 10 1 10 11
M  V30 11 2 11 12
M  V30 12 1 12 13
M  V30 13 2 13 14
M  V30 14 1 14 15
M  V30 15 2 15 16
M  V30 16 1 16 17
M  V30 17 1 12 18
M  V30 18 2 18 19
M  V30 19 1 19 20
M  V30 20 2 20 21
M  V30 21 1 21 22
M  V30 22 1 22 23
M  V30 23 1 23 24
M  V30 24 2 24 25
M  V30 25 1 25 26
M  V30 26 2 7 27
M  V30 27 1 27 2
M  V30 28 1 26 9
M  V30 29 1 21 11
M  V30 30 2 26 22
M  V30 31 1 17 13
M  V30 32 1 3 28
M  V30 33 1 6 29
M  V30 34 1 8 30
M  V30 35 1 16 31
M  V30 36 1 17 32
M  V30 37 1 18 33
M  V30 38 1 19 34
M  V30 39 1 20 35
M  V30 40 1 24 36
M  V30 41 1 25 37
M  V30 42 1 27 38
M  V30 END BOND
M  V30 END CTAB
M  END
>  <Dataset>  (636) 
ChEMBL_Kinases

>  <Ligand_Instance>  (636) 
nan

>  <PDB_ID>  (636) 
nan

>  <Standardized_SMILES>  (636) 
Fc1cc(F)cc(Nc2nc3c(-c4nnc[nH]4)cccc3c3sccc23)c1

>  <Name>  (636) 
nan

>  <Pocket>  (636) 
nan

>  <ATP_Site>  (636) 
nan

>  <Peripheral>  (636) 
nan

>  <Num_H_Atoms_ProtBoundConf>  (636) 
nan

>  <Num_Resolved_Atoms>  (636) 
nan

>  <Num_Not_Resolved_Atoms>  (636) 
nan

$$$$
CHEMBL2017343
     RDKit          3D

  0  0  0  0  0  0  0  0  0  0999 V3000
M  V30 BEGIN CTAB
M  V30 COUNTS 42 46 0 0 0
M  V30 BEGIN ATOM
M  V30 1 C -0.121864 -4.510577 5.044420 0
M  V30 2 O 0.169282 -4.056677 3.761569 0
M  V30 3 C 1.089041 -3.088722 3.424945 0
M  V30 4 C 1.927326 -2.345400 4.220848 0
M  V30 5 C 2.793172 -1.406135 3.690461 0
M  V30 6 C 2.792658 -1.229878 2.300257 0
M  V30 7 C 1.946367 -1.976620 1.468655 0
M  V30 8 N 2.172370 -1.565929 0.127085 0
M  V30 9 C 1.151783 -1.019788 -0.703377 0
M  V30 10 N 0.720600 0.170239 -0.298066 0
M  V30 11 C -0.216565 0.925256 -0.872068 0
M  V30 12 C -0.593529 2.143943 -0.373574 0
M  V30 13 C 0.006598 2.699739 0.830949 0
M  V30 14 N 0.971291 2.048406 1.545792 0
M  V30 15 N 1.281405 2.824327 2.563327 0
M  V30 16 C 0.526508 3.923835 2.475186 0
M  V30 17 N -0.282697 3.880818 1.404221 0
M  V30 18 C -1.580185 2.789517 -1.095824 0
M  V30 19 C -2.174148 2.272045 -2.251426 0
M  V30 20 C -1.740372 1.032781 -2.693705 0
M  V30 21 C -0.759897 0.367223 -1.995898 0
M  V30 22 C -0.351229 -0.874848 -2.471326 0
M  V30 23 S -0.839742 -1.850575 -3.864991 0
M  V30 24 C 0.293553 -3.214351 -3.531830 0
M  V30 25 C 0.972011 -2.816813 -2.361570 0
M  V30 26 C 0.633658 -1.617702 -1.827649 0
M  V30 27 C 1.110965 -2.894457 2.066503 0
M  V30 28 Cl 0.130449 -3.730704 0.882882 0
M  V30 29 H 0.813930 -4.727558 5.588878 0
M  V30 30 H -0.810212 -3.841948 5.612732 0
M  V30 31 H -0.680972 -5.481789 4.964739 0
M  V30 32 H 1.827501 -2.581033 5.280180 0
M  V30 33 H 3.424008 -0.856934 4.373980 0
M  V30 34 H 3.525327 -0.457239 2.020432 0
M  V30 35 H 3.132959 -1.665278 -0.287153 0
M  V30 36 H 0.540501 4.763384 3.164409 0
M  V30 37 H -0.994241 4.544333 1.023362 0
M  V30 38 H -1.884294 3.770414 -0.695132 0
M  V30 39 H -2.940931 2.819416 -2.776787 0
M  V30 40 H -2.223882 0.653882 -3.601830 0
M  V30 41 H 0.393769 -4.100664 -4.115673 0
M  V30 42 H 1.712623 -3.510486 -1.986217 0
M  V30 END ATOM
M  V30 BEGIN BOND
M  V30 1 1 1 2
M  V30 2 1 2 3
M  V30 3 2 3 4
M  V30 4 1 4 5
M  V30 5 2 5 6
M  V30 6 1 6 7
M  V30 7 1 7 8
M  V30 8 1 8 9
M  V30 9 2 9 10
M  V30 10 1 10 11
M  V30 11 2 11 12
M  V30 12 1 12 13
M  V30 13 2 13 14
M  V30 14 1 14 15
M  V30 15 2 15 16
M  V30 16 1 16 17
M  V30 17 1 12 18
M  V30 18 2 18 19
M  V30 19 1 19 20
M  V30 20 2 20 21
M  V30 21 1 21 22
M  V30 22 1 22 23
M  V30 23 1 23 24
M  V30 24 2 24 25
M  V30 25 1 25 26
M  V30 26 2 7 27
M  V30 27 1 27 28
M  V30 28 1 27 3
M  V30 29 1 26 9
M  V30 30 1 21 11
M  V30 31 2 26 22
M  V30 32 1 17 13
M  V30 33 1 1 29
M  V30 34 1 1 30
M  V30 35 1 1 31
M  V30 36 1 4 32
M  V30 37 1 5 33
M  V30 38 1 6 34
M  V30 39 1 8 35
M  V30 40 1 16 36
M  V30 41 1 17 37
M  V30 42 1 18 38
M  V30 43 1 19 39
M  V30 44 1 20 40
M  V30 45 1 24 41
M  V30 46 1 25 42
M  V30 END BOND
M  V30 END CTAB
M  END
>  <Dataset>  (637) 
ChEMBL_Kinases

>  <Ligand_Instance>  (637) 
nan

>  <PDB_ID>  (637) 
nan

>  <Standardized_SMILES>  (637) 
COc1cccc(Nc2nc3c(-c4nnc[nH]4)cccc3c3sccc23)c1Cl

>  <Name>  (637) 
nan

>  <Pocket>  (637) 
nan

>  <ATP_Site>  (637) 
nan

>  <Peripheral>  (637) 
nan

>  <Num_H_Atoms_ProtBoundConf>  (637) 
nan

>  <Num_Resolved_Atoms>  (637) 
nan

>  <Num_Not_Resolved_Atoms>  (637) 
nan

$$$$
CHEMBL2017342
     RDKit          3D

  0  0  0  0  0  0  0  0  0  0999 V3000
M  V30 BEGIN CTAB
M  V30 COUNTS 38 42 0 0 0
M  V30 BEGIN ATOM
M  V30 1 F 0.205463 0.487717 6.585581 0
M  V30 2 C 0.629553 0.016217 5.391097 0
M  V30 3 C 1.911363 0.262187 4.943792 0
M  V30 4 C 2.353490 -0.213561 3.728354 0
M  V30 5 C 1.500893 -0.961113 2.920628 0
M  V30 6 N 1.770297 -1.533050 1.655479 0
M  V30 7 C 1.195540 -1.358498 0.370158 0
M  V30 8 N 0.196964 -0.501442 0.156863 0
M  V30 9 C -0.424089 -0.248116 -0.979185 0
M  V30 10 C -1.449400 0.649460 -1.133145 0
M  V30 11 C -1.937553 1.418747 -0.001787 0
M  V30 12 N -2.945889 2.310783 -0.086414 0
M  V30 13 N -3.188213 2.868511 1.088044 0
M  V30 14 C -2.319992 2.336674 1.983170 0
M  V30 15 N -1.585204 1.468442 1.285519 0
M  V30 16 C -1.992505 0.796107 -2.390802 0
M  V30 17 C -1.535991 0.073481 -3.478949 0
M  V30 18 C -0.505439 -0.837655 -3.357568 0
M  V30 19 C 0.001845 -0.947280 -2.084331 0
M  V30 20 C 1.041955 -1.839666 -1.861651 0
M  V30 21 S 1.884229 -2.958782 -3.101706 0
M  V30 22 C 3.004435 -3.647883 -1.886270 0
M  V30 23 C 2.702997 -3.047750 -0.727072 0
M  V30 24 C 1.708104 -2.113690 -0.651951 0
M  V30 25 C 0.207426 -1.210063 3.370656 0
M  V30 26 Cl -0.996650 -2.134190 2.479250 0
M  V30 27 C -0.223420 -0.721240 4.602632 0
M  V30 28 H 2.615249 0.837703 5.531542 0
M  V30 29 H 3.335774 -0.070999 3.298322 0
M  V30 30 H 2.559423 -2.186467 1.843790 0
M  V30 31 H -2.239913 2.566712 3.036647 0
M  V30 32 H -0.839693 0.916374 1.718489 0
M  V30 33 H -2.808878 1.517015 -2.489482 0
M  V30 34 H -1.996000 0.224237 -4.448367 0
M  V30 35 H -0.139266 -1.407002 -4.194100 0
M  V30 36 H 3.735162 -4.393773 -2.155160 0
M  V30 37 H 3.280939 -3.336718 0.138033 0
M  V30 38 H -1.238288 -0.902563 4.982074 0
M  V30 END ATOM
M  V30 BEGIN BOND
M  V30 1 1 1 2
M  V30 2 2 2 3
M  V30 3 1 3 4
M  V30 4 2 4 5
M  V30 5 1 5 6
M  V30 6 1 6 7
M  V30 7 2 7 8
M  V30 8 1 8 9
M  V30 9 2 9 10
M  V30 10 1 10 11
M  V30 11 2 11 12
M  V30 12 1 12 13
M  V30 13 2 13 14
M  V30 14 1 14 15
M  V30 15 1 10 16
M  V30 16 2 16 17
M  V30 17 1 17 18
M  V30 18 2 18 19
M  V30 19 1 19 20
M  V30 20 1 20 21
M  V30 21 1 21 22
M  V30 22 2 22 23
M  V30 23 1 23 24
M  V30 24 1 5 25
M  V30 25 1 25 26
M  V30 26 2 25 27
M  V30 27 1 27 2
M  V30 28 1 24 7
M  V30 29 1 19 9
M  V30 30 2 24 20
M  V30 31 1 15 11
M  V30 32 1 3 28
M  V30 33 1 4 29
M  V30 34 1 6 30
M  V30 35 1 14 31
M  V30 36 1 15 32
M  V30 37 1 16 33
M  V30 38 1 17 34
M  V30 39 1 18 35
M  V30 40 1 22 36
M  V30 41 1 23 37
M  V30 42 1 27 38
M  V30 END BOND
M  V30 END CTAB
M  END
>  <Dataset>  (638) 
ChEMBL_Kinases

>  <Ligand_Instance>  (638) 
nan

>  <PDB_ID>  (638) 
nan

>  <Standardized_SMILES>  (638) 
Fc1ccc(Nc2nc3c(-c4nnc[nH]4)cccc3c3sccc23)c(Cl)c1

>  <Name>  (638) 
nan

>  <Pocket>  (638) 
nan

>  <ATP_Site>  (638) 
nan

>  <Peripheral>  (638) 
nan

>  <Num_H_Atoms_ProtBoundConf>  (638) 
nan

>  <Num_Resolved_Atoms>  (638) 
nan

>  <Num_Not_Resolved_Atoms>  (638) 
nan

$$$$
CHEMBL2017341
     RDKit          3D

  0  0  0  0  0  0  0  0  0  0999 V3000
M  V30 BEGIN CTAB
M  V30 COUNTS 39 43 0 0 0
M  V30 BEGIN ATOM
M  V30 1 O -0.151093 -7.025947 0.615732 0
M  V30 2 C -0.374221 -5.642467 0.756906 0
M  V30 3 C 0.691442 -4.787777 0.944237 0
M  V30 4 C 0.351901 -3.444587 1.072321 0
M  V30 5 C -0.922869 -2.928871 1.027306 0
M  V30 6 N -1.239199 -1.557378 1.186311 0
M  V30 7 C -0.367206 -0.467595 1.419239 0
M  V30 8 N -0.174686 0.456165 0.481389 0
M  V30 9 C 0.620226 1.523513 0.577240 0
M  V30 10 C 0.808805 2.480429 -0.410517 0
M  V30 11 C 0.087785 2.342816 -1.661662 0
M  V30 12 N -0.798475 1.454487 -2.075715 0
M  V30 13 N -1.206529 1.726529 -3.308338 0
M  V30 14 C -0.560440 2.849029 -3.733563 0
M  V30 15 N 0.218035 3.188826 -2.695831 0
M  V30 16 C 1.669985 3.558220 -0.188823 0
M  V30 17 C 2.350633 3.703442 1.002831 0
M  V30 18 C 2.181186 2.754254 2.019313 0
M  V30 19 C 1.322538 1.716044 1.744982 0
M  V30 20 C 1.150719 0.798013 2.717515 0
M  V30 21 S 1.888518 0.668775 4.411790 0
M  V30 22 C 0.990487 -0.937833 4.878687 0
M  V30 23 C 0.221146 -1.203551 3.685737 0
M  V30 24 C 0.285345 -0.367602 2.619439 0
M  V30 25 C -1.934276 -3.845678 0.836066 0
M  V30 26 Cl -3.613765 -3.334177 0.754956 0
M  V30 27 C -1.679728 -5.195996 0.700014 0
M  V30 28 H 0.340770 -7.549413 1.356847 0
M  V30 29 H 1.700009 -5.146829 0.986511 0
M  V30 30 H 1.179897 -2.737068 1.222529 0
M  V30 31 H -2.231966 -1.243373 1.135155 0
M  V30 32 H -0.775251 3.212872 -4.721939 0
M  V30 33 H 0.800832 4.052096 -2.860626 0
M  V30 34 H 1.807786 4.299354 -0.967373 0
M  V30 35 H 3.021018 4.532254 1.191391 0
M  V30 36 H 2.713277 2.883955 2.930176 0
M  V30 37 H 1.074809 -1.443086 5.772584 0
M  V30 38 H -0.361537 -2.097586 3.771130 0
M  V30 39 H -2.498942 -5.885060 0.552166 0
M  V30 END ATOM
M  V30 BEGIN BOND
M  V30 1 1 1 2
M  V30 2 2 2 3
M  V30 3 1 3 4
M  V30 4 2 4 5
M  V30 5 1 5 6
M  V30 6 1 6 7
M  V30 7 2 7 8
M  V30 8 1 8 9
M  V30 9 2 9 10
M  V30 10 1 10 11
M  V30 11 2 11 12
M  V30 12 1 12 13
M  V30 13 2 13 14
M  V30 14 1 14 15
M  V30 15 1 10 16
M  V30 16 2 16 17
M  V30 17 1 17 18
M  V30 18 2 18 19
M  V30 19 1 19 20
M  V30 20 1 20 21
M  V30 21 1 21 22
M  V30 22 2 22 23
M  V30 23 1 23 24
M  V30 24 1 5 25
M  V30 25 1 25 26
M  V30 26 2 25 27
M  V30 27 1 27 2
M  V30 28 1 24 7
M  V30 29 1 19 9
M  V30 30 2 24 20
M  V30 31 1 15 11
M  V30 32 1 1 28
M  V30 33 1 3 29
M  V30 34 1 4 30
M  V30 35 1 6 31
M  V30 36 1 14 32
M  V30 37 1 15 33
M  V30 38 1 16 34
M  V30 39 1 17 35
M  V30 40 1 18 36
M  V30 41 1 22 37
M  V30 42 1 23 38
M  V30 43 1 27 39
M  V30 END BOND
M  V30 END CTAB
M  END
>  <Dataset>  (639) 
ChEMBL_Kinases

>  <Ligand_Instance>  (639) 
nan

>  <PDB_ID>  (639) 
nan

>  <Standardized_SMILES>  (639) 
Oc1ccc(Nc2nc3c(-c4nnc[nH]4)cccc3c3sccc23)c(Cl)c1

>  <Name>  (639) 
nan

>  <Pocket>  (639) 
nan

>  <ATP_Site>  (639) 
nan

>  <Peripheral>  (639) 
nan

>  <Num_H_Atoms_ProtBoundConf>  (639) 
nan

>  <Num_Resolved_Atoms>  (639) 
nan

>  <Num_Not_Resolved_Atoms>  (639) 
nan

$$$$
CHEMBL2017340
     RDKit          3D

  0  0  0  0  0  0  0  0  0  0999 V3000
M  V30 BEGIN CTAB
M  V30 COUNTS 38 42 0 0 0
M  V30 BEGIN ATOM
M  V30 1 Cl 1.977033 -6.609966 2.946700 0
M  V30 2 C 1.080185 -5.286087 2.203526 0
M  V30 3 C 1.524343 -4.011219 2.581723 0
M  V30 4 C 0.803513 -2.973172 1.993738 0
M  V30 5 C -0.243544 -3.070929 1.126204 0
M  V30 6 N -0.944149 -1.978317 0.584937 0
M  V30 7 C -0.630214 -0.592844 0.868201 0
M  V30 8 N -0.126003 0.186791 -0.078251 0
M  V30 9 C 0.188110 1.512820 0.137146 0
M  V30 10 C 0.702484 2.211698 -0.966900 0
M  V30 11 C 0.981787 1.665552 -2.281727 0
M  V30 12 N 1.371933 2.445102 -3.268659 0
M  V30 13 N 1.558524 1.770494 -4.364053 0
M  V30 14 C 1.279360 0.446404 -4.113306 0
M  V30 15 N 0.911840 0.414748 -2.765567 0
M  V30 16 C 0.997723 3.578129 -0.689627 0
M  V30 17 C 0.774598 4.088507 0.560485 0
M  V30 18 C 0.272748 3.397200 1.630542 0
M  V30 19 C -0.011449 2.112815 1.388833 0
M  V30 20 C -0.518891 1.135572 2.158577 0
M  V30 21 S -0.890038 1.663438 3.964578 0
M  V30 22 C -1.531223 -0.041620 4.496360 0
M  V30 23 C -1.393038 -0.789143 3.277691 0
M  V30 24 C -0.905011 -0.225186 2.148286 0
M  V30 25 C -0.630560 -4.356637 0.792633 0
M  V30 26 C 0.028902 -5.443161 1.330463 0
M  V30 27 H 2.342677 -3.850298 3.259057 0
M  V30 28 H 1.142121 -1.964181 2.282977 0
M  V30 29 H -1.758595 -2.123831 -0.062745 0
M  V30 30 H 1.241544 -0.563341 -4.555430 0
M  V30 31 H 0.625973 -0.398558 -2.186755 0
M  V30 32 H 1.401799 4.236095 -1.462102 0
M  V30 33 H 1.016712 5.129435 0.710897 0
M  V30 34 H 0.085844 3.750098 2.608585 0
M  V30 35 H -1.881644 -0.393099 5.364982 0
M  V30 36 H -1.682665 -1.823950 3.259544 0
M  V30 37 H -1.435807 -4.598468 0.112113 0
M  V30 38 H -0.252202 -6.472024 1.088523 0
M  V30 END ATOM
M  V30 BEGIN BOND
M  V30 1 1 1 2
M  V30 2 2 2 3
M  V30 3 1 3 4
M  V30 4 2 4 5
M  V30 5 1 5 6
M  V30 6 1 6 7
M  V30 7 2 7 8
M  V30 8 1 8 9
M  V30 9 2 9 10
M  V30 10 1 10 11
M  V30 11 2 11 12
M  V30 12 1 12 13
M  V30 13 2 13 14
M  V30 14 1 14 15
M  V30 15 1 10 16
M  V30 16 2 16 17
M  V30 17 1 17 18
M  V30 18 2 18 19
M  V30 19 1 19 20
M  V30 20 1 20 21
M  V30 21 1 21 22
M  V30 22 2 22 23
M  V30 23 1 23 24
M  V30 24 1 5 25
M  V30 25 2 25 26
M  V30 26 1 26 2
M  V30 27 1 24 7
M  V30 28 1 19 9
M  V30 29 2 24 20
M  V30 30 1 15 11
M  V30 31 1 3 27
M  V30 32 1 4 28
M  V30 33 1 6 29
M  V30 34 1 14 30
M  V30 35 1 15 31
M  V30 36 1 16 32
M  V30 37 1 17 33
M  V30 38 1 18 34
M  V30 39 1 22 35
M  V30 40 1 23 36
M  V30 41 1 25 37
M  V30 42 1 26 38
M  V30 END BOND
M  V30 END CTAB
M  END
>  <Dataset>  (640) 
ChEMBL_Kinases

>  <Ligand_Instance>  (640) 
nan

>  <PDB_ID>  (640) 
nan

>  <Standardized_SMILES>  (640) 
Clc1ccc(Nc2nc3c(-c4nnc[nH]4)cccc3c3sccc23)cc1

>  <Name>  (640) 
nan

>  <Pocket>  (640) 
nan

>  <ATP_Site>  (640) 
nan

>  <Peripheral>  (640) 
nan

>  <Num_H_Atoms_ProtBoundConf>  (640) 
nan

>  <Num_Resolved_Atoms>  (640) 
nan

>  <Num_Not_Resolved_Atoms>  (640) 
nan

$$$$
CHEMBL2017339
     RDKit          3D

  0  0  0  0  0  0  0  0  0  0999 V3000
M  V30 BEGIN CTAB
M  V30 COUNTS 38 42 0 0 0
M  V30 BEGIN ATOM
M  V30 1 Cl -0.038206 -3.985705 5.510190 0
M  V30 2 C 1.136326 -3.084926 4.604887 0
M  V30 3 C 2.460026 -3.183293 4.926363 0
M  V30 4 C 3.397311 -2.473704 4.216668 0
M  V30 5 C 3.028645 -1.653631 3.173601 0
M  V30 6 C 1.693576 -1.505533 2.790439 0
M  V30 7 N 1.128581 -0.716665 1.789204 0
M  V30 8 C 0.350868 -0.800870 0.639738 0
M  V30 9 N -0.041765 0.370382 0.133758 0
M  V30 10 C -0.767538 0.612765 -0.938244 0
M  V30 11 C -1.115558 1.849967 -1.375291 0
M  V30 12 C -0.702053 3.048138 -0.669068 0
M  V30 13 N -1.027355 4.291867 -1.073833 0
M  V30 14 N -0.512500 5.174857 -0.236841 0
M  V30 15 C 0.163288 4.544473 0.738568 0
M  V30 16 N 0.014250 3.246222 0.424233 0
M  V30 17 C -1.878972 1.904114 -2.519270 0
M  V30 18 C -2.301084 0.800928 -3.230862 0
M  V30 19 C -1.927711 -0.449033 -2.756928 0
M  V30 20 C -1.162224 -0.520943 -1.611271 0
M  V30 21 C -0.789046 -1.739656 -1.138837 0
M  V30 22 S -1.161500 -3.349938 -1.831976 0
M  V30 23 C -0.207003 -4.274401 -0.475343 0
M  V30 24 C 0.259701 -3.269295 0.309511 0
M  V30 25 C -0.004056 -1.963015 0.022939 0
M  V30 26 C 0.802539 -2.266250 3.568611 0
M  V30 27 H 2.816936 -3.814511 5.739289 0
M  V30 28 H 4.471827 -2.497102 4.408985 0
M  V30 29 H 3.705084 -1.062472 2.567182 0
M  V30 30 H 1.492894 0.214597 2.161135 0
M  V30 31 H 0.697601 4.992323 1.573956 0
M  V30 32 H 0.439597 2.492454 1.013227 0
M  V30 33 H -2.196502 2.864305 -2.929816 0
M  V30 34 H -2.900089 0.905560 -4.123874 0
M  V30 35 H -2.251676 -1.311622 -3.304571 0
M  V30 36 H -0.161808 -5.341265 -0.496260 0
M  V30 37 H 0.838857 -3.646719 1.129955 0
M  V30 38 H -0.276542 -2.223537 3.352027 0
M  V30 END ATOM
M  V30 BEGIN BOND
M  V30 1 1 1 2
M  V30 2 2 2 3
M  V30 3 1 3 4
M  V30 4 2 4 5
M  V30 5 1 5 6
M  V30 6 1 6 7
M  V30 7 1 7 8
M  V30 8 2 8 9
M  V30 9 1 9 10
M  V30 10 2 10 11
M  V30 11 1 11 12
M  V30 12 2 12 13
M  V30 13 1 13 14
M  V30 14 2 14 15
M  V30 15 1 15 16
M  V30 16 1 11 17
M  V30 17 2 17 18
M  V30 18 1 18 19
M  V30 19 2 19 20
M  V30 20 1 20 21
M  V30 21 1 21 22
M  V30 22 1 22 23
M  V30 23 2 23 24
M  V30 24 1 24 25
M  V30 25 2 6 26
M  V30 26 1 26 2
M  V30 27 1 25 8
M  V30 28 1 20 10
M  V30 29 2 25 21
M  V30 30 1 16 12
M  V30 31 1 3 27
M  V30 32 1 4 28
M  V30 33 1 5 29
M  V30 34 1 7 30
M  V30 35 1 15 31
M  V30 36 1 16 32
M  V30 37 1 17 33
M  V30 38 1 18 34
M  V30 39 1 19 35
M  V30 40 1 23 36
M  V30 41 1 24 37
M  V30 42 1 26 38
M  V30 END BOND
M  V30 END CTAB
M  END
>  <Dataset>  (641) 
ChEMBL_Kinases

>  <Ligand_Instance>  (641) 
nan

>  <PDB_ID>  (641) 
nan

>  <Standardized_SMILES>  (641) 
Clc1cccc(Nc2nc3c(-c4nnc[nH]4)cccc3c3sccc23)c1

>  <Name>  (641) 
nan

>  <Pocket>  (641) 
nan

>  <ATP_Site>  (641) 
nan

>  <Peripheral>  (641) 
nan

>  <Num_H_Atoms_ProtBoundConf>  (641) 
nan

>  <Num_Resolved_Atoms>  (641) 
nan

>  <Num_Not_Resolved_Atoms>  (641) 
nan

$$$$
CHEMBL2017338
     RDKit          3D

  0  0  0  0  0  0  0  0  0  0999 V3000
M  V30 BEGIN CTAB
M  V30 COUNTS 37 41 0 0 0
M  V30 BEGIN ATOM
M  V30 1 C 0.339145 -5.077544 1.616977 0
M  V30 2 C 1.612805 -4.644705 1.336305 0
M  V30 3 C 1.875896 -3.324891 1.033477 0
M  V30 4 C 3.205188 -2.815779 0.729970 0
M  V30 5 N 4.288837 -3.631449 0.730400 0
M  V30 6 N 5.381544 -2.941082 0.426822 0
M  V30 7 C 5.035836 -1.669716 0.223537 0
M  V30 8 N 3.707982 -1.612070 0.412326 0
M  V30 9 C 0.818812 -2.464896 1.023789 0
M  V30 10 N 0.851944 -1.184638 0.763366 0
M  V30 11 C -0.139805 -0.290315 0.736553 0
M  V30 12 N 0.309069 1.011356 0.414991 0
M  V30 13 C -0.167834 2.291740 0.050935 0
M  V30 14 C 0.075499 3.560562 0.586104 0
M  V30 15 C -0.513026 4.654326 -0.003787 0
M  V30 16 N -1.317322 4.582128 -1.075860 0
M  V30 17 C -1.585896 3.399600 -1.630232 0
M  V30 18 C -1.015593 2.282630 -1.068068 0
M  V30 19 C -1.410842 -0.715110 1.017034 0
M  V30 20 C -2.481898 0.122856 1.027261 0
M  V30 21 C -3.746767 -0.543383 1.364538 0
M  V30 22 S -3.235503 -2.336241 1.634193 0
M  V30 23 C -1.569171 -2.044232 1.305775 0
M  V30 24 C -0.455594 -2.894954 1.304067 0
M  V30 25 C -0.744769 -4.222263 1.612321 0
M  V30 26 H 0.187196 -6.115009 1.846970 0
M  V30 27 H 2.446552 -5.349220 1.348597 0
M  V30 28 H 5.638722 -0.793140 -0.043579 0
M  V30 29 H 3.127509 -0.774951 0.331671 0
M  V30 30 H 1.334320 1.277813 0.397762 0
M  V30 31 H 0.731640 3.498782 1.439649 0
M  V30 32 H -0.266911 5.590260 0.478838 0
M  V30 33 H -2.232654 3.357486 -2.489466 0
M  V30 34 H -1.285891 1.353220 -1.582261 0
M  V30 35 H -2.665639 1.161646 0.863156 0
M  V30 36 H -4.797392 -0.067415 1.441976 0
M  V30 37 H -1.738342 -4.587826 1.836862 0
M  V30 END ATOM
M  V30 BEGIN BOND
M  V30 1 2 1 2
M  V30 2 1 2 3
M  V30 3 1 3 4
M  V30 4 2 4 5
M  V30 5 1 5 6
M  V30 6 2 6 7
M  V30 7 1 7 8
M  V30 8 2 3 9
M  V30 9 1 9 10
M  V30 10 2 10 11
M  V30 11 1 11 12
M  V30 12 1 12 13
M  V30 13 2 13 14
M  V30 14 1 14 15
M  V30 15 2 15 16
M  V30 16 1 16 17
M  V30 17 2 17 18
M  V30 18 1 11 19
M  V30 19 1 19 20
M  V30 20 2 20 21
M  V30 21 1 21 22
M  V30 22 1 22 23
M  V30 23 1 23 24
M  V30 24 2 24 25
M  V30 25 1 25 1
M  V30 26 1 8 4
M  V30 27 1 24 9
M  V30 28 1 18 13
M  V30 29 2 23 19
M  V30 30 1 1 26
M  V30 31 1 2 27
M  V30 32 1 7 28
M  V30 33 1 8 29
M  V30 34 1 12 30
M  V30 35 1 14 31
M  V30 36 1 15 32
M  V30 37 1 17 33
M  V30 38 1 18 34
M  V30 39 1 20 35
M  V30 40 1 21 36
M  V30 41 1 25 37
M  V30 END BOND
M  V30 END CTAB
M  END
>  <Dataset>  (642) 
ChEMBL_Kinases

>  <Ligand_Instance>  (642) 
nan

>  <PDB_ID>  (642) 
nan

>  <Standardized_SMILES>  (642) 
c1cc(-c2nnc[nH]2)c2nc(Nc3ccncc3)c3ccsc3c2c1

>  <Name>  (642) 
nan

>  <Pocket>  (642) 
nan

>  <ATP_Site>  (642) 
nan

>  <Peripheral>  (642) 
nan

>  <Num_H_Atoms_ProtBoundConf>  (642) 
nan

>  <Num_Resolved_Atoms>  (642) 
nan

>  <Num_Not_Resolved_Atoms>  (642) 
nan

$$$$
CHEMBL2017347
     RDKit          3D

  0  0  0  0  0  0  0  0  0  0999 V3000
M  V30 BEGIN CTAB
M  V30 COUNTS 38 42 0 0 0
M  V30 BEGIN ATOM
M  V30 1 F 1.097748 -6.776803 2.388911 0
M  V30 2 C 1.258647 -5.416352 2.280274 0
M  V30 3 C 2.422987 -4.804829 2.732369 0
M  V30 4 C 2.500794 -3.445727 2.589288 0
M  V30 5 C 1.503571 -2.668562 2.031335 0
M  V30 6 N 1.719506 -1.249131 1.959162 0
M  V30 7 C 0.642330 -0.385310 1.531998 0
M  V30 8 N 0.685507 0.310891 0.393758 0
M  V30 9 C -0.272829 1.119414 -0.063221 0
M  V30 10 C -0.209272 1.838493 -1.248835 0
M  V30 11 C 0.987600 1.744401 -2.071585 0
M  V30 12 N 2.132362 1.097999 -1.926041 0
M  V30 13 N 2.950915 1.324333 -2.934498 0
M  V30 14 C 2.352778 2.168018 -3.830727 0
M  V30 15 N 1.164925 2.383161 -3.245853 0
M  V30 16 C -1.254911 2.662566 -1.653550 0
M  V30 17 C -2.411501 2.793248 -0.871556 0
M  V30 18 C -2.513908 2.083629 0.334467 0
M  V30 19 C -1.431715 1.292947 0.654896 0
M  V30 20 C -1.509841 0.609132 1.804095 0
M  V30 21 S -2.847079 0.504859 3.118635 0
M  V30 22 C -1.934109 -0.707127 4.258347 0
M  V30 23 C -0.710384 -0.900666 3.512701 0
M  V30 24 C -0.460158 -0.293656 2.333062 0
M  V30 25 C 0.353565 -3.252811 1.580754 0
M  V30 26 C 0.261339 -4.645284 1.722013 0
M  V30 27 H 3.167037 -5.459075 3.159514 0
M  V30 28 H 3.446139 -3.036856 2.968853 0
M  V30 29 H 2.642583 -0.836135 2.209464 0
M  V30 30 H 2.677422 2.590809 -4.771632 0
M  V30 31 H 0.441182 3.013819 -3.707050 0
M  V30 32 H -1.226847 3.228560 -2.564715 0
M  V30 33 H -3.232583 3.427150 -1.170204 0
M  V30 34 H -3.383572 2.164844 0.950687 0
M  V30 35 H -2.374650 -0.976792 5.067916 0
M  V30 36 H -0.086324 -1.581248 4.048924 0
M  V30 37 H -0.408668 -2.631693 1.149053 0
M  V30 38 H -0.665866 -5.111353 1.361168 0
M  V30 END ATOM
M  V30 BEGIN BOND
M  V30 1 1 1 2
M  V30 2 2 2 3
M  V30 3 1 3 4
M  V30 4 2 4 5
M  V30 5 1 5 6
M  V30 6 1 6 7
M  V30 7 2 7 8
M  V30 8 1 8 9
M  V30 9 2 9 10
M  V30 10 1 10 11
M  V30 11 2 11 12
M  V30 12 1 12 13
M  V30 13 2 13 14
M  V30 14 1 14 15
M  V30 15 1 10 16
M  V30 16 2 16 17
M  V30 17 1 17 18
M  V30 18 2 18 19
M  V30 19 1 19 20
M  V30 20 1 20 21
M  V30 21 1 21 22
M  V30 22 2 22 23
M  V30 23 1 23 24
M  V30 24 1 5 25
M  V30 25 2 25 26
M  V30 26 1 26 2
M  V30 27 1 24 7
M  V30 28 1 19 9
M  V30 29 2 24 20
M  V30 30 1 15 11
M  V30 31 1 3 27
M  V30 32 1 4 28
M  V30 33 1 6 29
M  V30 34 1 14 30
M  V30 35 1 15 31
M  V30 36 1 16 32
M  V30 37 1 17 33
M  V30 38 1 18 34
M  V30 39 1 22 35
M  V30 40 1 23 36
M  V30 41 1 25 37
M  V30 42 1 26 38
M  V30 END BOND
M  V30 END CTAB
M  END
>  <Dataset>  (643) 
ChEMBL_Kinases

>  <Ligand_Instance>  (643) 
nan

>  <PDB_ID>  (643) 
nan

>  <Standardized_SMILES>  (643) 
Fc1ccc(Nc2nc3c(-c4nnc[nH]4)cccc3c3sccc23)cc1

>  <Name>  (643) 
nan

>  <Pocket>  (643) 
nan

>  <ATP_Site>  (643) 
nan

>  <Peripheral>  (643) 
nan

>  <Num_H_Atoms_ProtBoundConf>  (643) 
nan

>  <Num_Resolved_Atoms>  (643) 
nan

>  <Num_Not_Resolved_Atoms>  (643) 
nan

$$$$
CHEMBL1315609
     RDKit          3D

  0  0  0  0  0  0  0  0  0  0999 V3000
M  V30 BEGIN CTAB
M  V30 COUNTS 40 43 0 0 0
M  V30 BEGIN ATOM
M  V30 1 C -1.247052 -3.003489 -0.275516 0
M  V30 2 N 0.066884 -2.395156 -0.494679 0
M  V30 3 C 1.102708 -3.328536 -0.184237 0
M  V30 4 C 2.477747 -2.822283 -0.370512 0
M  V30 5 C 3.132974 -2.193503 0.678336 0
M  V30 6 C 4.383281 -1.831364 0.221037 0
M  V30 7 C 4.430912 -2.263007 -1.103772 0
M  V30 8 O 3.291892 -2.831004 -1.386006 0
M  V30 9 C 0.510017 -1.117461 -0.934920 0
M  V30 10 N 1.261583 -1.126396 -2.067187 0
M  V30 11 C 1.750803 0.011852 -2.602089 0
M  V30 12 N 1.517047 1.200321 -2.040270 0
M  V30 13 C 0.775799 1.256290 -0.915221 0
M  V30 14 C 0.494279 2.449540 -0.280434 0
M  V30 15 C -0.273124 2.479791 0.879896 0
M  V30 16 C -0.753508 1.301992 1.394474 0
M  V30 17 C -1.560471 1.363563 2.620052 0
M  V30 18 C -2.570830 0.462169 2.888864 0
M  V30 19 C -3.311244 0.561936 4.070033 0
M  V30 20 C -2.989924 1.585366 4.938160 0
M  V30 21 N -1.996148 2.482893 4.687945 0
M  V30 22 C -1.287981 2.369859 3.535468 0
M  V30 23 C -0.500918 0.068567 0.795930 0
M  V30 24 C 0.264137 0.107043 -0.348600 0
M  V30 25 H -1.315754 -3.978586 -0.836410 0
M  V30 26 H -2.029556 -2.371240 -0.752259 0
M  V30 27 H -1.504285 -3.127255 0.777771 0
M  V30 28 H 0.963946 -4.243559 -0.830036 0
M  V30 29 H 0.932523 -3.719628 0.845608 0
M  V30 30 H 2.782177 -1.991897 1.696688 0
M  V30 31 H 5.144339 -1.320507 0.794901 0
M  V30 32 H 5.298158 -2.119280 -1.736324 0
M  V30 33 H 2.349951 -0.064827 -3.516945 0
M  V30 34 H 0.912297 3.342694 -0.751481 0
M  V30 35 H -0.468906 3.444002 1.345101 0
M  V30 36 H -2.787250 -0.333780 2.166344 0
M  V30 37 H -4.113634 -0.142408 4.298350 0
M  V30 38 H -3.522195 1.725496 5.875776 0
M  V30 39 H -0.519909 3.114040 3.407283 0
M  V30 40 H -0.887284 -0.850694 1.214711 0
M  V30 END ATOM
M  V30 BEGIN BOND
M  V30 1 1 1 2
M  V30 2 1 2 3
M  V30 3 1 3 4
M  V30 4 2 4 5
M  V30 5 1 5 6
M  V30 6 2 6 7
M  V30 7 1 7 8
M  V30 8 1 2 9
M  V30 9 2 9 10
M  V30 10 1 10 11
M  V30 11 2 11 12
M  V30 12 1 12 13
M  V30 13 2 13 14
M  V30 14 1 14 15
M  V30 15 2 15 16
M  V30 16 1 16 17
M  V30 17 2 17 18
M  V30 18 1 18 19
M  V30 19 2 19 20
M  V30 20 1 20 21
M  V30 21 2 21 22
M  V30 22 1 16 23
M  V30 23 2 23 24
M  V30 24 1 8 4
M  V30 25 1 24 9
M  V30 26 1 24 13
M  V30 27 1 22 17
M  V30 28 1 1 25
M  V30 29 1 1 26
M  V30 30 1 1 27
M  V30 31 1 3 28
M  V30 32 1 3 29
M  V30 33 1 5 30
M  V30 34 1 6 31
M  V30 35 1 7 32
M  V30 36 1 11 33
M  V30 37 1 14 34
M  V30 38 1 15 35
M  V30 39 1 18 36
M  V30 40 1 19 37
M  V30 41 1 20 38
M  V30 42 1 22 39
M  V30 43 1 23 40
M  V30 END BOND
M  V30 END CTAB
M  END
>  <Dataset>  (644) 
ChEMBL_Kinases

>  <Ligand_Instance>  (644) 
nan

>  <PDB_ID>  (644) 
nan

>  <Standardized_SMILES>  (644) 
CN(Cc1ccco1)c1ncnc2ccc(-c3cccnc3)cc12

>  <Name>  (644) 
nan

>  <Pocket>  (644) 
nan

>  <ATP_Site>  (644) 
nan

>  <Peripheral>  (644) 
nan

>  <Num_H_Atoms_ProtBoundConf>  (644) 
nan

>  <Num_Resolved_Atoms>  (644) 
nan

>  <Num_Not_Resolved_Atoms>  (644) 
nan

$$$$
CHEMBL530635
     RDKit          3D

  0  0  0  0  0  0  0  0  0  0999 V3000
M  V30 BEGIN CTAB
M  V30 COUNTS 53 55 0 0 0
M  V30 BEGIN ATOM
M  V30 1 C 0.983210 -5.878881 2.065193 0
M  V30 2 O -0.249688 -5.249233 1.897546 0
M  V30 3 C -0.470438 -4.075756 1.180007 0
M  V30 4 C 0.599830 -3.458868 0.571417 0
M  V30 5 C 0.391481 -2.297408 -0.140822 0
M  V30 6 N 1.482225 -1.650973 -0.783298 0
M  V30 7 C 1.599955 -0.438763 -1.474131 0
M  V30 8 C 1.980748 -0.502698 -2.820049 0
M  V30 9 C 2.128954 0.626626 -3.597069 0
M  V30 10 N 1.899907 1.828584 -3.042193 0
M  V30 11 C 1.533297 1.965925 -1.761730 0
M  V30 12 C 1.314583 3.222456 -1.239883 0
M  V30 13 C 0.940587 3.287987 0.100153 0
M  V30 14 C 0.792367 2.178936 0.875698 0
M  V30 15 C 0.396919 2.268818 2.289540 0
M  V30 16 C 0.183090 3.667462 2.763728 0
M  V30 17 C 1.477310 1.573909 3.097605 0
M  V30 18 C -0.860059 1.413650 2.453271 0
M  V30 19 C 1.019674 0.939173 0.318787 0
M  V30 20 C 1.387336 0.836778 -0.992289 0
M  V30 21 C -0.911699 -1.827610 -0.191162 0
M  V30 22 C -1.980412 -2.437230 0.412416 0
M  V30 23 O -3.256354 -1.895952 0.310385 0
M  V30 24 C -3.380335 -0.693455 -0.444979 0
M  V30 25 C -1.764203 -3.602540 1.125589 0
M  V30 26 O -2.852927 -4.196944 1.723240 0
M  V30 27 C -3.673741 -5.162185 1.118062 0
M  V30 28 H 0.778158 -6.983852 2.178046 0
M  V30 29 H 1.534683 -5.603445 2.985955 0
M  V30 30 H 1.666126 -5.809682 1.185160 0
M  V30 31 H 1.611634 -3.847693 0.626154 0
M  V30 32 H 2.413252 -2.115234 -0.778002 0
M  V30 33 H 2.189775 -1.437530 -3.361440 0
M  V30 34 H 2.423047 0.582702 -4.637910 0
M  V30 35 H 1.425665 4.136246 -1.838957 0
M  V30 36 H 0.778856 4.288744 0.470072 0
M  V30 37 H 1.078743 4.252451 2.487030 0
M  V30 38 H -0.772936 4.098820 2.475323 0
M  V30 39 H 0.188959 3.630415 3.892719 0
M  V30 40 H 2.499026 1.815718 2.767713 0
M  V30 41 H 1.316881 1.685222 4.195607 0
M  V30 42 H 1.332587 0.469403 2.912250 0
M  V30 43 H -1.439125 1.751455 3.351442 0
M  V30 44 H -1.513543 1.489199 1.560553 0
M  V30 45 H -0.604615 0.339685 2.568610 0
M  V30 46 H 0.903683 0.074832 0.944546 0
M  V30 47 H -1.053180 -0.913922 -0.755757 0
M  V30 48 H -2.985365 -0.884188 -1.472505 0
M  V30 49 H -4.423904 -0.325668 -0.452328 0
M  V30 50 H -2.683341 0.034945 0.020391 0
M  V30 51 H -4.088539 -5.814555 1.919897 0
M  V30 52 H -3.148286 -5.753796 0.331600 0
M  V30 53 H -4.553791 -4.616059 0.676404 0
M  V30 END ATOM
M  V30 BEGIN BOND
M  V30 1 1 1 2
M  V30 2 1 2 3
M  V30 3 2 3 4
M  V30 4 1 4 5
M  V30 5 1 5 6
M  V30 6 1 6 7
M  V30 7 2 7 8
M  V30 8 1 8 9
M  V30 9 2 9 10
M  V30 10 1 10 11
M  V30 11 2 11 12
M  V30 12 1 12 13
M  V30 13 2 13 14
M  V30 14 1 14 15
M  V30 15 1 15 16
M  V30 16 1 15 17
M  V30 17 1 15 18
M  V30 18 1 14 19
M  V30 19 2 19 20
M  V30 20 2 5 21
M  V30 21 1 21 22
M  V30 22 1 22 23
M  V30 23 1 23 24
M  V30 24 2 22 25
M  V30 25 1 25 26
M  V30 26 1 26 27
M  V30 27 1 25 3
M  V30 28 1 20 7
M  V30 29 1 20 11
M  V30 30 1 1 28
M  V30 31 1 1 29
M  V30 32 1 1 30
M  V30 33 1 4 31
M  V30 34 1 6 32
M  V30 35 1 8 33
M  V30 36 1 9 34
M  V30 37 1 12 35
M  V30 38 1 13 36
M  V30 39 1 16 37
M  V30 40 1 16 38
M  V30 41 1 16 39
M  V30 42 1 17 40
M  V30 43 1 17 41
M  V30 44 1 17 42
M  V30 45 1 18 43
M  V30 46 1 18 44
M  V30 47 1 18 45
M  V30 48 1 19 46
M  V30 49 1 21 47
M  V30 50 1 24 48
M  V30 51 1 24 49
M  V30 52 1 24 50
M  V30 53 1 27 51
M  V30 54 1 27 52
M  V30 55 1 27 53
M  V30 END BOND
M  V30 END CTAB
M  END
>  <Dataset>  (645) 
ChEMBL_Kinases

>  <Ligand_Instance>  (645) 
nan

>  <PDB_ID>  (645) 
nan

>  <Standardized_SMILES>  (645) 
COc1cc(Nc2ccnc3ccc(C(C)(C)C)cc23)cc(OC)c1OC

>  <Name>  (645) 
nan

>  <Pocket>  (645) 
nan

>  <ATP_Site>  (645) 
nan

>  <Peripheral>  (645) 
nan

>  <Num_H_Atoms_ProtBoundConf>  (645) 
nan

>  <Num_Resolved_Atoms>  (645) 
nan

>  <Num_Not_Resolved_Atoms>  (645) 
nan

$$$$
CHEMBL4741358
     RDKit          3D

  0  0  0  0  0  0  0  0  0  0999 V3000
M  V30 BEGIN CTAB
M  V30 COUNTS 48 50 0 0 0
M  V30 BEGIN ATOM
M  V30 1 C -0.524386 -3.375192 2.805273 0
M  V30 2 O -1.638740 -3.591377 1.934573 0
M  V30 3 C -1.851394 -2.696404 0.894457 0
M  V30 4 C -1.027431 -1.592381 0.656875 0
M  V30 5 C -1.304680 -0.758678 -0.388231 0
M  V30 6 N -0.474512 0.367874 -0.640862 0
M  V30 7 C 0.667902 0.411228 -1.464192 0
M  V30 8 O 0.995882 -0.673997 -2.055657 0
M  V30 9 C 1.466038 1.617400 -1.662854 0 CFG=2
M  V30 10 N 2.349942 1.495459 -2.827858 0
M  V30 11 C 2.415287 1.767677 -0.466341 0
M  V30 12 C 1.637825 1.871419 0.807042 0
M  V30 13 C 2.562587 2.050711 1.986396 0
M  V30 14 C 2.907385 3.337752 2.368000 0
M  V30 15 C 3.740994 3.609063 3.425891 0
M  V30 16 C 4.262029 2.560562 4.145133 0
M  V30 17 C 3.928038 1.264471 3.777843 0
M  V30 18 C 3.087202 1.000960 2.710301 0
M  V30 19 C -2.393601 -0.998071 -1.212793 0
M  V30 20 C -3.242815 -2.072279 -1.027340 0
M  V30 21 C -2.912042 -2.890185 0.054531 0
M  V30 22 C -3.803764 -4.047424 0.276648 0
M  V30 23 C -3.472660 -5.365160 0.552185 0
M  V30 24 N -4.615907 -6.045135 0.672317 0
M  V30 25 N -5.666658 -5.252089 0.492206 0
M  V30 26 C -5.191680 -4.006225 0.244920 0
M  V30 27 H 0.396580 -3.155092 2.199994 0
M  V30 28 H -0.313865 -4.276670 3.413063 0
M  V30 29 H -0.716930 -2.524995 3.468378 0
M  V30 30 H -0.187642 -1.418739 1.303034 0
M  V30 31 H -0.842958 1.198123 -0.126771 0
M  V30 32 H 0.920982 2.560520 -1.757300 0
M  V30 33 H 2.018068 2.059066 -3.627765 0
M  V30 34 H 2.568702 0.504177 -3.046523 0
M  V30 35 H 2.956755 0.777398 -0.435059 0
M  V30 36 H 3.127303 2.581221 -0.603098 0
M  V30 37 H 1.142172 0.876534 1.041626 0
M  V30 38 H 0.899833 2.666483 0.851071 0
M  V30 39 H 2.511624 4.191340 1.818946 0
M  V30 40 H 3.977223 4.636266 3.680395 0
M  V30 41 H 4.924548 2.726202 4.988278 0
M  V30 42 H 4.346678 0.438780 4.354955 0
M  V30 43 H 2.813990 -0.005087 2.407286 0
M  V30 44 H -2.651826 -0.355952 -2.060755 0
M  V30 45 H -4.096767 -2.276670 -1.658426 0
M  V30 46 H -2.449427 -5.729927 0.644078 0
M  V30 47 H -6.681073 -5.493807 0.524712 0
M  V30 48 H -5.820786 -3.136359 0.056146 0
M  V30 END ATOM
M  V30 BEGIN BOND
M  V30 1 1 1 2
M  V30 2 1 2 3
M  V30 3 2 3 4
M  V30 4 1 4 5
M  V30 5 1 5 6
M  V30 6 1 6 7
M  V30 7 2 7 8
M  V30 8 1 7 9
M  V30 9 1 9 10
M  V30 10 1 9 11
M  V30 11 1 11 12
M  V30 12 1 12 13
M  V30 13 2 13 14
M  V30 14 1 14 15
M  V30 15 2 15 16
M  V30 16 1 16 17
M  V30 17 2 17 18
M  V30 18 2 5 19
M  V30 19 1 19 20
M  V30 20 2 20 21
M  V30 21 1 21 22
M  V30 22 1 22 23
M  V30 23 2 23 24
M  V30 24 1 24 25
M  V30 25 1 25 26
M  V30 26 1 21 3
M  V30 27 2 26 22
M  V30 28 1 18 13
M  V30 29 1 1 27
M  V30 30 1 1 28
M  V30 31 1 1 29
M  V30 32 1 4 30
M  V30 33 1 6 31
M  V30 34 1 9 32 CFG=3
M  V30 35 1 10 33
M  V30 36 1 10 34
M  V30 37 1 11 35
M  V30 38 1 11 36
M  V30 39 1 12 37
M  V30 40 1 12 38
M  V30 41 1 14 39
M  V30 42 1 15 40
M  V30 43 1 16 41
M  V30 44 1 17 42
M  V30 45 1 18 43
M  V30 46 1 19 44
M  V30 47 1 20 45
M  V30 48 1 23 46
M  V30 49 1 25 47
M  V30 50 1 26 48
M  V30 END BOND
M  V30 END CTAB
M  END
>  <Dataset>  (646) 
ChEMBL_Kinases

>  <Ligand_Instance>  (646) 
nan

>  <PDB_ID>  (646) 
nan

>  <Standardized_SMILES>  (646) 
COc1cc(NC(=O)[C@H](N)CCc2ccccc2)ccc1-c1cn[nH]c1

>  <Name>  (646) 
nan

>  <Pocket>  (646) 
nan

>  <ATP_Site>  (646) 
nan

>  <Peripheral>  (646) 
nan

>  <Num_H_Atoms_ProtBoundConf>  (646) 
nan

>  <Num_Resolved_Atoms>  (646) 
nan

>  <Num_Not_Resolved_Atoms>  (646) 
nan

$$$$
CHEMBL1316893
     RDKit          3D

  0  0  0  0  0  0  0  0  0  0999 V3000
M  V30 BEGIN CTAB
M  V30 COUNTS 46 48 0 0 0
M  V30 BEGIN ATOM
M  V30 1 C 1.064879 -6.838389 -2.228733 0
M  V30 2 O -0.176493 -6.335483 -1.930293 0
M  V30 3 C -0.132622 -5.105065 -1.322918 0
M  V30 4 C 0.510356 -4.052217 -2.160653 0
M  V30 5 N 0.512411 -2.758744 -1.450194 0
M  V30 6 C 1.100527 -1.647630 -2.114725 0
M  V30 7 N 1.631663 -1.782255 -3.338160 0
M  V30 8 C 2.207298 -0.829450 -4.059763 0
M  V30 9 N 2.275981 0.421245 -3.520692 0
M  V30 10 C 1.771950 0.662130 -2.297515 0
M  V30 11 C 1.813162 1.918770 -1.696479 0
M  V30 12 C 1.285676 2.147895 -0.429726 0
M  V30 13 C 0.697942 1.095144 0.263235 0
M  V30 14 C 0.154518 1.382713 1.597623 0
M  V30 15 C 0.145876 0.416799 2.582358 0
M  V30 16 C -0.366597 0.691065 3.837394 0
M  V30 17 C -0.886533 1.928314 4.158591 0
M  V30 18 N -1.427695 2.274458 5.426943 0
M  V30 19 C -1.958853 3.624291 5.671726 0
M  V30 20 C -1.464857 1.296789 6.504718 0
M  V30 21 C -0.869097 2.882526 3.159101 0
M  V30 22 C -0.358874 2.631162 1.888020 0
M  V30 23 C 0.659246 -0.147553 -0.335700 0
M  V30 24 C 1.176351 -0.378754 -1.581142 0
M  V30 25 H 1.688215 -6.927050 -1.293043 0
M  V30 26 H 1.601851 -6.190557 -2.937847 0
M  V30 27 H 0.987767 -7.890456 -2.630870 0
M  V30 28 H 0.441325 -5.265370 -0.359294 0
M  V30 29 H -1.154443 -4.755883 -1.046197 0
M  V30 30 H -0.038273 -3.956473 -3.118060 0
M  V30 31 H 1.571487 -4.306934 -2.436763 0
M  V30 32 H 0.083038 -2.753699 -0.513467 0
M  V30 33 H 2.618550 -1.014145 -5.051447 0
M  V30 34 H 2.282033 2.735411 -2.262407 0
M  V30 35 H 1.360108 3.155293 -0.037438 0
M  V30 36 H 0.551868 -0.559699 2.341807 0
M  V30 37 H -0.363446 -0.067266 4.581312 0
M  V30 38 H -2.620199 3.836267 4.797491 0
M  V30 39 H -1.149973 4.378307 5.660056 0
M  V30 40 H -2.563982 3.628669 6.588124 0
M  V30 41 H -2.283492 0.557020 6.395887 0
M  V30 42 H -0.510036 0.721376 6.457242 0
M  V30 43 H -1.580274 1.785508 7.490583 0
M  V30 44 H -1.245670 3.889803 3.281760 0
M  V30 45 H -0.344548 3.377283 1.104133 0
M  V30 46 H 0.190176 -0.921636 0.253323 0
M  V30 END ATOM
M  V30 BEGIN BOND
M  V30 1 1 1 2
M  V30 2 1 2 3
M  V30 3 1 3 4
M  V30 4 1 4 5
M  V30 5 1 5 6
M  V30 6 2 6 7
M  V30 7 1 7 8
M  V30 8 2 8 9
M  V30 9 1 9 10
M  V30 10 2 10 11
M  V30 11 1 11 12
M  V30 12 2 12 13
M  V30 13 1 13 14
M  V30 14 2 14 15
M  V30 15 1 15 16
M  V30 16 2 16 17
M  V30 17 1 17 18
M  V30 18 1 18 19
M  V30 19 1 18 20
M  V30 20 1 17 21
M  V30 21 2 21 22
M  V30 22 1 13 23
M  V30 23 2 23 24
M  V30 24 1 24 6
M  V30 25 1 24 10
M  V30 26 1 22 14
M  V30 27 1 1 25
M  V30 28 1 1 26
M  V30 29 1 1 27
M  V30 30 1 3 28
M  V30 31 1 3 29
M  V30 32 1 4 30
M  V30 33 1 4 31
M  V30 34 1 5 32
M  V30 35 1 8 33
M  V30 36 1 11 34
M  V30 37 1 12 35
M  V30 38 1 15 36
M  V30 39 1 16 37
M  V30 40 1 19 38
M  V30 41 1 19 39
M  V30 42 1 19 40
M  V30 43 1 20 41
M  V30 44 1 20 42
M  V30 45 1 20 43
M  V30 46 1 21 44
M  V30 47 1 22 45
M  V30 48 1 23 46
M  V30 END BOND
M  V30 END CTAB
M  END
>  <Dataset>  (647) 
ChEMBL_Kinases

>  <Ligand_Instance>  (647) 
nan

>  <PDB_ID>  (647) 
nan

>  <Standardized_SMILES>  (647) 
COCCNc1ncnc2ccc(-c3ccc(N(C)C)cc3)cc12

>  <Name>  (647) 
nan

>  <Pocket>  (647) 
nan

>  <ATP_Site>  (647) 
nan

>  <Peripheral>  (647) 
nan

>  <Num_H_Atoms_ProtBoundConf>  (647) 
nan

>  <Num_Resolved_Atoms>  (647) 
nan

>  <Num_Not_Resolved_Atoms>  (647) 
nan

$$$$
CHEMBL131693
     RDKit          3D

  0  0  0  0  0  0  0  0  0  0999 V3000
M  V30 BEGIN CTAB
M  V30 COUNTS 54 57 0 0 0
M  V30 BEGIN ATOM
M  V30 1 N 6.443600 -4.212609 2.736641 0
M  V30 2 S 6.042574 -3.877380 1.080884 0
M  V30 3 O 7.300418 -4.012281 0.243268 0
M  V30 4 O 5.083512 -4.946550 0.637222 0
M  V30 5 C 5.410998 -2.272523 0.893707 0
M  V30 6 C 6.277325 -1.250661 0.641028 0
M  V30 7 C 5.817205 0.032025 0.487001 0
M  V30 8 C 4.472706 0.375257 0.574586 0
M  V30 9 N 4.049075 1.705868 0.409123 0
M  V30 10 C 2.739153 2.246507 0.470005 0
M  V30 11 N 2.542532 3.563119 0.280862 0
M  V30 12 C 1.361696 4.152303 0.320117 0
M  V30 13 C 0.238324 3.395823 0.568955 0
M  V30 14 C 0.380275 2.045833 0.769638 0
M  V30 15 C -0.777972 1.206220 1.035692 0
M  V30 16 C -0.702385 -0.152790 1.244700 0
M  V30 17 C -1.780499 -0.975667 1.499773 0
M  V30 18 C -3.040349 -0.416829 1.554415 0
M  V30 19 S -4.449714 -1.400259 1.872714 0
M  V30 20 O -5.532008 -0.635382 2.583277 0
M  V30 21 O -4.094392 -2.564234 2.752043 0
M  V30 22 N -5.120859 -1.982385 0.398077 0
M  V30 23 C -4.147483 -2.798877 -0.258344 0
M  V30 24 C -4.556611 -3.350016 -1.583716 0
M  V30 25 N -5.794219 -2.788341 -2.076705 0
M  V30 26 C -5.913197 -1.385315 -1.839804 0
M  V30 27 C -5.539150 -0.923444 -0.472562 0
M  V30 28 C -3.173390 0.952483 1.350308 0
M  V30 29 C -2.052045 1.718589 1.099334 0
M  V30 30 N 1.619787 1.547711 0.709084 0
M  V30 31 C 3.662645 -0.700211 0.829783 0
M  V30 32 C 4.061630 -2.009503 0.994426 0
M  V30 33 H 5.583684 -4.536225 3.251912 0
M  V30 34 H 6.766036 -3.299019 3.167486 0
M  V30 35 H 7.337376 -1.448353 0.560566 0
M  V30 36 H 6.560988 0.807229 0.286297 0
M  V30 37 H 4.822875 2.398101 0.210975 0
M  V30 38 H 1.334631 5.221108 0.151525 0
M  V30 39 H -0.682884 3.916782 0.589867 0
M  V30 40 H 0.243267 -0.653414 1.216724 0
M  V30 41 H -1.664523 -2.040048 1.656964 0
M  V30 42 H -3.869998 -3.605726 0.480210 0
M  V30 43 H -3.203119 -2.200309 -0.354599 0
M  V30 44 H -4.708338 -4.445466 -1.491516 0
M  V30 45 H -3.744408 -3.210432 -2.355627 0
M  V30 46 H -5.778923 -2.919657 -3.132924 0
M  V30 47 H -5.394907 -0.782141 -2.631521 0
M  V30 48 H -7.006200 -1.140736 -1.986582 0
M  V30 49 H -4.713213 -0.190717 -0.536069 0
M  V30 50 H -6.377251 -0.397613 0.047372 0
M  V30 51 H -4.174649 1.349226 1.401390 0
M  V30 52 H -2.272108 2.745068 0.959922 0
M  V30 53 H 2.604892 -0.560521 0.919062 0
M  V30 54 H 3.398552 -2.817069 1.191734 0
M  V30 END ATOM
M  V30 BEGIN BOND
M  V30 1 1 1 2
M  V30 2 2 2 3
M  V30 3 2 2 4
M  V30 4 1 2 5
M  V30 5 2 5 6
M  V30 6 1 6 7
M  V30 7 2 7 8
M  V30 8 1 8 9
M  V30 9 1 9 10
M  V30 10 2 10 11
M  V30 11 1 11 12
M  V30 12 2 12 13
M  V30 13 1 13 14
M  V30 14 1 14 15
M  V30 15 2 15 16
M  V30 16 1 16 17
M  V30 17 2 17 18
M  V30 18 1 18 19
M  V30 19 2 19 20
M  V30 20 2 19 21
M  V30 21 1 19 22
M  V30 22 1 22 23
M  V30 23 1 23 24
M  V30 24 1 24 25
M  V30 25 1 25 26
M  V30 26 1 26 27
M  V30 27 1 18 28
M  V30 28 2 28 29
M  V30 29 2 14 30
M  V30 30 1 8 31
M  V30 31 2 31 32
M  V30 32 1 32 5
M  V30 33 1 30 10
M  V30 34 1 29 15
M  V30 35 1 27 22
M  V30 36 1 1 33
M  V30 37 1 1 34
M  V30 38 1 6 35
M  V30 39 1 7 36
M  V30 40 1 9 37
M  V30 41 1 12 38
M  V30 42 1 13 39
M  V30 43 1 16 40
M  V30 44 1 17 41
M  V30 45 1 23 42
M  V30 46 1 23 43
M  V30 47 1 24 44
M  V30 48 1 24 45
M  V30 49 1 25 46
M  V30 50 1 26 47
M  V30 51 1 26 48
M  V30 52 1 27 49
M  V30 53 1 27 50
M  V30 54 1 28 51
M  V30 55 1 29 52
M  V30 56 1 31 53
M  V30 57 1 32 54
M  V30 END BOND
M  V30 END CTAB
M  END
>  <Dataset>  (648) 
ChEMBL_Kinases

>  <Ligand_Instance>  (648) 
nan

>  <PDB_ID>  (648) 
nan

>  <Standardized_SMILES>  (648) 
NS(=O)(=O)c1ccc(Nc2nccc(-c3ccc(S(=O)(=O)N4CCNCC4)cc3)n2)cc1

>  <Name>  (648) 
nan

>  <Pocket>  (648) 
nan

>  <ATP_Site>  (648) 
nan

>  <Peripheral>  (648) 
nan

>  <Num_H_Atoms_ProtBoundConf>  (648) 
nan

>  <Num_Resolved_Atoms>  (648) 
nan

>  <Num_Not_Resolved_Atoms>  (648) 
nan

$$$$
CHEMBL529669
     RDKit          3D

  0  0  0  0  0  0  0  0  0  0999 V3000
M  V30 BEGIN CTAB
M  V30 COUNTS 56 61 0 0 0
M  V30 BEGIN ATOM
M  V30 1 O 4.001595 2.019193 3.229239 0
M  V30 2 C 3.180414 1.128059 3.501260 0
M  V30 3 N 2.848024 0.533140 4.770325 0
M  V30 4 C 1.846178 -0.445211 4.562912 0
M  V30 5 O 1.466133 -1.037167 5.576753 0
M  V30 6 C 1.494462 -0.522285 3.172359 0
M  V30 7 C 2.294234 0.414787 2.565163 0
M  V30 8 C 2.209339 0.607953 1.188167 0
M  V30 9 C 3.031931 1.586447 0.482230 0
M  V30 10 C 4.241709 1.093728 0.020834 0
M  V30 11 C 5.104447 1.921167 -0.662780 0
M  V30 12 C 4.831345 3.250964 -0.924761 0
M  V30 13 C 3.615750 3.712347 -0.450865 0
M  V30 14 C 2.728339 2.909795 0.237278 0
M  V30 15 Cl 1.180329 3.457295 0.852263 0
M  V30 16 C 1.320291 -0.147115 0.450038 0
M  V30 17 C 0.521420 -1.086986 1.075305 0
M  V30 18 C 0.621784 -1.261084 2.437148 0
M  V30 19 C -0.252798 -2.229941 2.823789 0
M  V30 20 C -0.663739 -2.876341 3.947943 0
M  V30 21 C -1.619236 -3.858737 3.993459 0
M  V30 22 O -2.016853 -4.501231 5.163259 0
M  V30 23 C -2.239690 -4.249031 2.802657 0
M  V30 24 C -1.844805 -3.612033 1.644730 0
M  V30 25 C -0.873669 -2.626980 1.663836 0
M  V30 26 N -0.422871 -1.950745 0.592281 0
M  V30 27 C -0.752408 -2.000434 -0.820019 0
M  V30 28 C -1.868352 -1.050476 -1.174164 0
M  V30 29 N -2.226236 -1.059800 -2.557725 0
M  V30 30 C -2.846276 -2.253033 -3.034267 0
M  V30 31 C -4.285703 -2.425535 -2.677841 0
M  V30 32 O -5.039302 -1.296188 -2.888807 0
M  V30 33 C -4.340930 -0.298293 -3.569886 0
M  V30 34 C -3.071247 0.072643 -2.839160 0
M  V30 35 H 3.357211 0.879158 5.624437 0
M  V30 36 H 4.570609 0.074680 0.161551 0
M  V30 37 H 6.070916 1.566337 -1.043490 0
M  V30 38 H 5.495309 3.917879 -1.459310 0
M  V30 39 H 3.335382 4.754263 -0.622541 0
M  V30 40 H 1.254059 -0.001317 -0.603117 0
M  V30 41 H -0.250160 -2.647031 4.896751 0
M  V30 42 H -1.483394 -4.291190 6.010270 0
M  V30 43 H -2.997754 -5.019306 2.793446 0
M  V30 44 H -2.338641 -3.931339 0.742993 0
M  V30 45 H -1.117909 -3.028009 -1.035206 0
M  V30 46 H 0.124502 -1.769928 -1.437024 0
M  V30 47 H -2.778408 -1.231324 -0.566909 0
M  V30 48 H -1.539472 -0.002213 -0.941265 0
M  V30 49 H -2.299979 -3.177318 -2.765938 0
M  V30 50 H -2.809454 -2.193382 -4.161964 0
M  V30 51 H -4.451919 -2.798346 -1.630593 0
M  V30 52 H -4.686771 -3.218334 -3.375292 0
M  V30 53 H -4.985633 0.591886 -3.607525 0
M  V30 54 H -4.151209 -0.616229 -4.614716 0
M  V30 55 H -3.350071 0.628544 -1.917945 0
M  V30 56 H -2.517319 0.787781 -3.476724 0
M  V30 END ATOM
M  V30 BEGIN BOND
M  V30 1 2 1 2
M  V30 2 1 2 3
M  V30 3 1 3 4
M  V30 4 2 4 5
M  V30 5 1 4 6
M  V30 6 2 6 7
M  V30 7 1 7 8
M  V30 8 1 8 9
M  V30 9 2 9 10
M  V30 10 1 10 11
M  V30 11 2 11 12
M  V30 12 1 12 13
M  V30 13 2 13 14
M  V30 14 1 14 15
M  V30 15 2 8 16
M  V30 16 1 16 17
M  V30 17 2 17 18
M  V30 18 1 18 19
M  V30 19 2 19 20
M  V30 20 1 20 21
M  V30 21 1 21 22
M  V30 22 2 21 23
M  V30 23 1 23 24
M  V30 24 2 24 25
M  V30 25 1 25 26
M  V30 26 1 26 27
M  V30 27 1 27 28
M  V30 28 1 28 29
M  V30 29 1 29 30
M  V30 30 1 30 31
M  V30 31 1 31 32
M  V30 32 1 32 33
M  V30 33 1 33 34
M  V30 34 1 7 2
M  V30 35 1 14 9
M  V30 36 1 26 17
M  V30 37 1 34 29
M  V30 38 1 18 6
M  V30 39 1 25 19
M  V30 40 1 3 35
M  V30 41 1 10 36
M  V30 42 1 11 37
M  V30 43 1 12 38
M  V30 44 1 13 39
M  V30 45 1 16 40
M  V30 46 1 20 41
M  V30 47 1 22 42
M  V30 48 1 23 43
M  V30 49 1 24 44
M  V30 50 1 27 45
M  V30 51 1 27 46
M  V30 52 1 28 47
M  V30 53 1 28 48
M  V30 54 1 30 49
M  V30 55 1 30 50
M  V30 56 1 31 51
M  V30 57 1 31 52
M  V30 58 1 33 53
M  V30 59 1 33 54
M  V30 60 1 34 55
M  V30 61 1 34 56
M  V30 END BOND
M  V30 END CTAB
M  END
>  <Dataset>  (649) 
ChEMBL_Kinases

>  <Ligand_Instance>  (649) 
nan

>  <PDB_ID>  (649) 
nan

>  <Standardized_SMILES>  (649) 
O=C1NC(=O)c2c1c(-c1ccccc1Cl)cc1c2c2cc(O)ccc2n1CCN1CCOCC1

>  <Name>  (649) 
nan

>  <Pocket>  (649) 
nan

>  <ATP_Site>  (649) 
nan

>  <Peripheral>  (649) 
nan

>  <Num_H_Atoms_ProtBoundConf>  (649) 
nan

>  <Num_Resolved_Atoms>  (649) 
nan

>  <Num_Not_Resolved_Atoms>  (649) 
nan

$$$$
CHEMBL5283463
     RDKit          3D

  0  0  0  0  0  0  0  0  0  0999 V3000
M  V30 BEGIN CTAB
M  V30 COUNTS 66 70 0 0 0
M  V30 BEGIN ATOM
M  V30 1 C 5.215645 -2.219057 1.628134 0
M  V30 2 C 5.144062 -1.126420 0.592459 0
M  V30 3 C 6.301432 -0.686360 0.028736 0
M  V30 4 C 6.185243 0.336076 -0.922818 0
M  V30 5 S 4.333501 0.699082 -1.029016 0
M  V30 6 C 3.966403 -0.564292 0.211196 0
M  V30 7 C 2.636173 -0.909024 0.703083 0
M  V30 8 O 2.166191 -1.735494 1.539998 0
M  V30 9 N 1.508902 -0.180236 0.160082 0
M  V30 10 C 0.323708 -0.672276 0.765612 0
M  V30 11 C -0.216320 -1.760849 0.114739 0
M  V30 12 C -1.361693 -2.363141 0.595026 0
M  V30 13 C -1.902431 -3.529152 -0.120617 0
M  V30 14 N -2.826516 -3.260283 -1.158456 0
M  V30 15 C -4.052934 -2.635708 -0.822823 0
M  V30 16 C -5.260676 -3.552564 -1.040853 0
M  V30 17 N -5.335213 -3.784078 -2.479367 0
M  V30 18 C -6.278243 -3.724518 -3.571874 0
M  V30 19 O -6.166605 -3.974664 -4.821714 0
M  V30 20 C -7.704693 -3.310702 -3.380026 0
M  V30 21 O -7.995226 -3.003638 -2.051996 0
M  V30 22 C -4.061612 -4.219261 -3.046072 0
M  V30 23 C -3.007897 -4.407119 -1.986353 0
M  V30 24 C -1.899523 -1.807718 1.733305 0
M  V30 25 C -1.343016 -0.723457 2.362305 0
M  V30 26 C -0.200480 -0.112197 1.894744 0
M  V30 27 C 0.300841 1.039526 2.605827 0
M  V30 28 C 1.292616 1.860870 2.386078 0
M  V30 29 C 1.657849 2.988108 3.229464 0
M  V30 30 N 1.039607 3.379062 4.354692 0
M  V30 31 N 1.618693 4.439345 4.898986 0
M  V30 32 C 2.640513 4.714503 4.072229 0
M  V30 33 C 3.621415 5.712484 4.102792 0
M  V30 34 C 4.577989 5.762424 3.097842 0
M  V30 35 C 4.599697 4.852215 2.053310 0
M  V30 36 C 3.641470 3.846495 1.989012 0
M  V30 37 C 2.725068 3.847870 3.007359 0
M  V30 38 H 5.366190 -3.212106 1.193805 0
M  V30 39 H 4.342139 -2.142268 2.286577 0
M  V30 40 H 6.119479 -2.056431 2.290092 0
M  V30 41 H 7.318886 -1.001936 0.198474 0
M  V30 42 H 6.947278 0.866715 -1.521842 0
M  V30 43 H 1.589455 0.585870 -0.575026 0
M  V30 44 H 0.230660 -2.186691 -0.790563 0
M  V30 45 H -2.272019 -4.308440 0.611808 0
M  V30 46 H -1.029425 -4.062346 -0.604874 0
M  V30 47 H -4.098328 -2.129241 0.141423 0
M  V30 48 H -4.211955 -1.812476 -1.582555 0
M  V30 49 H -5.188238 -4.486188 -0.462049 0
M  V30 50 H -6.128168 -2.990628 -0.650287 0
M  V30 51 H -8.416235 -4.078924 -3.779241 0
M  V30 52 H -7.883580 -2.401529 -3.992003 0
M  V30 53 H -8.062852 -2.018630 -1.939913 0
M  V30 54 H -4.231457 -5.218738 -3.500708 0
M  V30 55 H -3.728333 -3.566256 -3.874756 0
M  V30 56 H -2.048525 -4.581863 -2.558598 0
M  V30 57 H -3.203819 -5.348103 -1.428077 0
M  V30 58 H -2.796939 -2.252090 2.141148 0
M  V30 59 H -1.845710 -0.360725 3.252549 0
M  V30 60 H -0.216561 1.329903 3.526293 0
M  V30 61 H 1.851674 1.668942 1.513212 0
M  V30 62 H 1.388171 4.978833 5.760158 0
M  V30 63 H 3.591769 6.420243 4.929333 0
M  V30 64 H 5.324272 6.560866 3.165801 0
M  V30 65 H 5.342635 4.891278 1.273437 0
M  V30 66 H 3.622377 3.122799 1.198592 0
M  V30 END ATOM
M  V30 BEGIN BOND
M  V30 1 1 1 2
M  V30 2 1 2 3
M  V30 3 2 3 4
M  V30 4 1 4 5
M  V30 5 1 5 6
M  V30 6 1 6 7
M  V30 7 2 7 8
M  V30 8 1 7 9
M  V30 9 1 9 10
M  V30 10 2 10 11
M  V30 11 1 11 12
M  V30 12 1 12 13
M  V30 13 1 13 14
M  V30 14 1 14 15
M  V30 15 1 15 16
M  V30 16 1 16 17
M  V30 17 1 17 18
M  V30 18 2 18 19
M  V30 19 1 18 20
M  V30 20 1 20 21
M  V30 21 1 17 22
M  V30 22 1 22 23
M  V30 23 2 12 24
M  V30 24 1 24 25
M  V30 25 2 25 26
M  V30 26 1 26 27
M  V30 27 2 27 28
M  V30 28 1 28 29
M  V30 29 2 29 30
M  V30 30 1 30 31
M  V30 31 1 31 32
M  V30 32 2 32 33
M  V30 33 1 33 34
M  V30 34 2 34 35
M  V30 35 1 35 36
M  V30 36 2 36 37
M  V30 37 2 6 2
M  V30 38 1 26 10
M  V30 39 1 37 29
M  V30 40 1 23 14
M  V30 41 1 37 32
M  V30 42 1 1 38
M  V30 43 1 1 39
M  V30 44 1 1 40
M  V30 45 1 3 41
M  V30 46 1 4 42
M  V30 47 1 9 43
M  V30 48 1 11 44
M  V30 49 1 13 45
M  V30 50 1 13 46
M  V30 51 1 15 47
M  V30 52 1 15 48
M  V30 53 1 16 49
M  V30 54 1 16 50
M  V30 55 1 20 51
M  V30 56 1 20 52
M  V30 57 1 21 53
M  V30 58 1 22 54
M  V30 59 1 22 55
M  V30 60 1 23 56
M  V30 61 1 23 57
M  V30 62 1 24 58
M  V30 63 1 25 59
M  V30 64 1 27 60
M  V30 65 1 28 61
M  V30 66 1 31 62
M  V30 67 1 33 63
M  V30 68 1 34 64
M  V30 69 1 35 65
M  V30 70 1 36 66
M  V30 END BOND
M  V30 END CTAB
M  END
>  <Dataset>  (650) 
ChEMBL_Kinases

>  <Ligand_Instance>  (650) 
nan

>  <PDB_ID>  (650) 
nan

>  <Standardized_SMILES>  (650) 
Cc1ccsc1C(=O)Nc1cc(CN2CCN(C(=O)CO)CC2)ccc1/C=C/c1n[nH]c2ccccc12

>  <Name>  (650) 
KW-2450

>  <Pocket>  (650) 
nan

>  <ATP_Site>  (650) 
nan

>  <Peripheral>  (650) 
nan

>  <Num_H_Atoms_ProtBoundConf>  (650) 
nan

>  <Num_Resolved_Atoms>  (650) 
nan

>  <Num_Not_Resolved_Atoms>  (650) 
nan

$$$$
CHEMBL2023158
     RDKit          3D

  0  0  0  0  0  0  0  0  0  0999 V3000
M  V30 BEGIN CTAB
M  V30 COUNTS 44 46 0 0 0
M  V30 BEGIN ATOM
M  V30 1 O -0.294345 -0.062925 1.531615 0
M  V30 2 C 0.518395 -0.860516 2.084196 0
M  V30 3 N 1.887596 -0.681035 1.744788 0
M  V30 4 C 2.088558 0.399252 0.815911 0
M  V30 5 C 2.009131 -0.071583 -0.499508 0
M  V30 6 C 2.175738 0.813838 -1.562248 0
M  V30 7 C 2.416275 2.141010 -1.270894 0
M  V30 8 C 2.592298 3.078394 -2.375693 0
M  V30 9 C 1.866332 2.787207 -3.537678 0
M  V30 10 C 1.945091 3.594914 -4.654397 0
M  V30 11 N 2.730237 4.686680 -4.641740 0
M  V30 12 C 3.435167 4.985350 -3.538822 0
M  V30 13 C 3.389848 4.209770 -2.398516 0
M  V30 14 C 2.493901 2.601600 0.027619 0
M  V30 15 C 2.329865 1.730276 1.085607 0
M  V30 16 N -0.000876 -1.838335 2.971350 0
M  V30 17 C -1.435225 -1.925965 3.240642 0 CFG=2
M  V30 18 C -1.752348 -1.667574 4.682177 0
M  V30 19 O -1.146028 -2.560091 5.545319 0
M  V30 20 C -1.978067 -3.232826 2.770953 0
M  V30 21 C -2.839273 -4.088413 3.424827 0
M  V30 22 C -3.216800 -5.267762 2.788505 0
M  V30 23 C -2.772092 -5.621827 1.537443 0
M  V30 24 C -1.916133 -4.748252 0.914126 0
M  V30 25 C -1.502170 -3.556946 1.495056 0
M  V30 26 H 2.537103 -1.370455 2.229833 0
M  V30 27 H 1.824906 -1.089639 -0.808311 0
M  V30 28 H 2.119876 0.480254 -2.602434 0
M  V30 29 H 1.199204 1.944618 -3.684497 0
M  V30 30 H 1.403237 3.410702 -5.574632 0
M  V30 31 H 4.064444 5.863723 -3.534180 0
M  V30 32 H 3.927069 4.394924 -1.490313 0
M  V30 33 H 2.680661 3.633035 0.295056 0
M  V30 34 H 2.364598 1.949883 2.144168 0
M  V30 35 H 0.686783 -2.480229 3.413255 0
M  V30 36 H -1.923505 -1.131668 2.640166 0
M  V30 37 H -1.347622 -0.647394 4.917539 0
M  V30 38 H -2.838345 -1.581535 4.800108 0
M  V30 39 H -1.797991 -2.705505 6.293219 0
M  V30 40 H -3.140584 -3.748306 4.387472 0
M  V30 41 H -3.891027 -5.910591 3.331504 0
M  V30 42 H -3.107492 -6.542273 1.118250 0
M  V30 43 H -1.558511 -5.024520 -0.082720 0
M  V30 44 H -0.829996 -2.960086 0.903466 0
M  V30 END ATOM
M  V30 BEGIN BOND
M  V30 1 2 1 2
M  V30 2 1 2 3
M  V30 3 1 3 4
M  V30 4 2 4 5
M  V30 5 1 5 6
M  V30 6 2 6 7
M  V30 7 1 7 8
M  V30 8 2 8 9
M  V30 9 1 9 10
M  V30 10 2 10 11
M  V30 11 1 11 12
M  V30 12 2 12 13
M  V30 13 1 7 14
M  V30 14 2 14 15
M  V30 15 1 2 16
M  V30 16 1 16 17
M  V30 17 1 17 18
M  V30 18 1 18 19
M  V30 19 1 17 20
M  V30 20 2 20 21
M  V30 21 1 21 22
M  V30 22 2 22 23
M  V30 23 1 23 24
M  V30 24 2 24 25
M  V30 25 1 15 4
M  V30 26 1 25 20
M  V30 27 1 13 8
M  V30 28 1 3 26
M  V30 29 1 5 27
M  V30 30 1 6 28
M  V30 31 1 9 29
M  V30 32 1 10 30
M  V30 33 1 12 31
M  V30 34 1 13 32
M  V30 35 1 14 33
M  V30 36 1 15 34
M  V30 37 1 16 35
M  V30 38 1 17 36 CFG=3
M  V30 39 1 18 37
M  V30 40 1 18 38
M  V30 41 1 19 39
M  V30 42 1 21 40
M  V30 43 1 22 41
M  V30 44 1 23 42
M  V30 45 1 24 43
M  V30 46 1 25 44
M  V30 END BOND
M  V30 END CTAB
M  END
>  <Dataset>  (651) 
ChEMBL_Kinases

>  <Ligand_Instance>  (651) 
nan

>  <PDB_ID>  (651) 
nan

>  <Standardized_SMILES>  (651) 
O=C(Nc1ccc(-c2ccncc2)cc1)N[C@H](CO)c1ccccc1

>  <Name>  (651) 
nan

>  <Pocket>  (651) 
nan

>  <ATP_Site>  (651) 
nan

>  <Peripheral>  (651) 
nan

>  <Num_H_Atoms_ProtBoundConf>  (651) 
nan

>  <Num_Resolved_Atoms>  (651) 
nan

>  <Num_Not_Resolved_Atoms>  (651) 
nan

$$$$
CHEMBL4741772
     RDKit          3D

  0  0  0  0  0  0  0  0  0  0999 V3000
M  V30 BEGIN CTAB
M  V30 COUNTS 74 79 0 0 0
M  V30 BEGIN ATOM
M  V30 1 C 4.442453 -4.524445 6.259043 0
M  V30 2 N 3.135413 -4.653323 5.660271 0
M  V30 3 C 2.319331 -3.478876 5.855177 0
M  V30 4 C 2.751978 -2.285357 5.085773 0
M  V30 5 C 3.162092 -2.687536 3.679096 0
M  V30 6 C 2.789293 -1.634628 2.704432 0
M  V30 7 N 3.611832 -0.625908 2.378133 0
M  V30 8 N 2.993622 0.114453 1.510466 0
M  V30 9 C 1.776358 -0.368485 1.242597 0
M  V30 10 C 0.654667 -0.004539 0.394196 0
M  V30 11 C -0.467278 -0.792433 0.360043 0
M  V30 12 N -1.493264 -0.493499 -0.419351 0
M  V30 13 C -1.546650 0.571782 -1.229393 0
M  V30 14 N -2.640739 0.887616 -2.074516 0
M  V30 15 C -3.851032 0.167898 -2.225600 0
M  V30 16 C -4.758169 0.623797 -3.178166 0
M  V30 17 C -5.965309 0.005843 -3.416439 0
M  V30 18 C -6.286073 -1.109856 -2.680071 0
M  V30 19 C -5.451644 -1.623152 -1.723759 0
M  V30 20 C -4.263409 -0.947643 -1.546634 0
M  V30 21 C -6.076037 -2.812377 -1.104044 0
M  V30 22 C -5.171923 -4.022694 -1.123337 0
M  V30 23 C -6.391272 -2.534706 0.374729 0
M  V30 24 O -7.286887 -2.996645 -1.752264 0
M  V30 25 C -7.444988 -1.989592 -2.687114 0
M  V30 26 O -8.489387 -1.945150 -3.387551 0
M  V30 27 N -0.460003 1.333349 -1.194541 0
M  V30 28 C 0.612879 1.100918 -0.438466 0
M  V30 29 N 1.703118 2.018752 -0.481233 0
M  V30 30 C 1.864686 3.218206 -1.270321 0 CFG=2
M  V30 31 C 0.656740 4.136582 -1.165376 0
M  V30 32 O 0.497722 4.480121 0.177604 0
M  V30 33 C 2.373567 3.034827 -2.625546 0
M  V30 34 C 3.364634 3.900212 -3.125983 0
M  V30 35 C 3.963483 3.885380 -4.368493 0
M  V30 36 C 3.545564 2.901978 -5.237856 0
M  V30 37 C 2.580108 2.012944 -4.830687 0
M  V30 38 C 2.031693 2.096378 -3.571472 0
M  V30 39 O 1.736745 -1.426927 2.008036 0
M  V30 40 C 2.532274 -4.017111 3.376426 0
M  V30 41 C 3.195526 -5.049055 4.269373 0
M  V30 42 H 5.190831 -4.151817 5.553021 0
M  V30 43 H 4.755400 -5.566500 6.544900 0
M  V30 44 H 4.349178 -3.964128 7.188179 0
M  V30 45 H 2.436516 -3.225907 6.951076 0
M  V30 46 H 1.243387 -3.726934 5.755232 0
M  V30 47 H 3.579597 -1.728483 5.584893 0
M  V30 48 H 1.897277 -1.583611 4.982120 0
M  V30 49 H 4.284090 -2.799785 3.645965 0
M  V30 50 H -0.549795 -1.682489 0.965979 0
M  V30 51 H -2.521275 1.764431 -2.650088 0
M  V30 52 H -4.571471 1.509747 -3.806094 0
M  V30 53 H -6.669572 0.365997 -4.157722 0
M  V30 54 H -3.603703 -1.345374 -0.798523 0
M  V30 55 H -4.253910 -3.704517 -0.548037 0
M  V30 56 H -5.607503 -4.825699 -0.522951 0
M  V30 57 H -4.817150 -4.311167 -2.123074 0
M  V30 58 H -7.481427 -2.494708 0.563283 0
M  V30 59 H -6.003845 -1.517229 0.607474 0
M  V30 60 H -5.860663 -3.222809 1.036843 0
M  V30 61 H 2.517490 1.818753 0.132864 0
M  V30 62 H 2.677626 3.829564 -0.734836 0
M  V30 63 H -0.244460 3.664384 -1.544668 0
M  V30 64 H 0.941331 5.075898 -1.681903 0
M  V30 65 H 1.270104 4.185942 0.724948 0
M  V30 66 H 3.724882 4.699042 -2.460087 0
M  V30 67 H 4.707564 4.593441 -4.637591 0
M  V30 68 H 3.984788 2.859110 -6.201142 0
M  V30 69 H 2.240295 1.223964 -5.514145 0
M  V30 70 H 1.279909 1.372080 -3.305455 0
M  V30 71 H 1.469668 -3.937014 3.720556 0
M  V30 72 H 2.565110 -4.292697 2.323117 0
M  V30 73 H 2.789414 -6.072059 4.137872 0
M  V30 74 H 4.264815 -5.091729 3.982279 0
M  V30 END ATOM
M  V30 BEGIN BOND
M  V30 1 1 1 2
M  V30 2 1 2 3
M  V30 3 1 3 4
M  V30 4 1 4 5
M  V30 5 1 5 6
M  V30 6 2 6 7
M  V30 7 1 7 8
M  V30 8 2 8 9
M  V30 9 1 9 10
M  V30 10 2 10 11
M  V30 11 1 11 12
M  V30 12 2 12 13
M  V30 13 1 13 14
M  V30 14 1 14 15
M  V30 15 2 15 16
M  V30 16 1 16 17
M  V30 17 2 17 18
M  V30 18 1 18 19
M  V30 19 2 19 20
M  V30 20 1 19 21
M  V30 21 1 21 22
M  V30 22 1 21 23
M  V30 23 1 21 24
M  V30 24 1 24 25
M  V30 25 2 25 26
M  V30 26 1 13 27
M  V30 27 2 27 28
M  V30 28 1 28 29
M  V30 29 1 29 30
M  V30 30 1 30 31
M  V30 31 1 31 32
M  V30 32 1 30 33
M  V30 33 2 33 34
M  V30 34 1 34 35
M  V30 35 2 35 36
M  V30 36 1 36 37
M  V30 37 2 37 38
M  V30 38 1 9 39
M  V30 39 1 5 40
M  V30 40 1 40 41
M  V30 41 1 41 2
M  V30 42 1 39 6
M  V30 43 1 28 10
M  V30 44 1 38 33
M  V30 45 1 20 15
M  V30 46 1 25 18
M  V30 47 1 1 42
M  V30 48 1 1 43
M  V30 49 1 1 44
M  V30 50 1 3 45
M  V30 51 1 3 46
M  V30 52 1 4 47
M  V30 53 1 4 48
M  V30 54 1 5 49
M  V30 55 1 11 50
M  V30 56 1 14 51
M  V30 57 1 16 52
M  V30 58 1 17 53
M  V30 59 1 20 54
M  V30 60 1 22 55
M  V30 61 1 22 56
M  V30 62 1 22 57
M  V30 63 1 23 58
M  V30 64 1 23 59
M  V30 65 1 23 60
M  V30 66 1 29 61
M  V30 67 1 30 62 CFG=1
M  V30 68 1 31 63
M  V30 69 1 31 64
M  V30 70 1 32 65
M  V30 71 1 34 66
M  V30 72 1 35 67
M  V30 73 1 36 68
M  V30 74 1 37 69
M  V30 75 1 38 70
M  V30 76 1 40 71
M  V30 77 1 40 72
M  V30 78 1 41 73
M  V30 79 1 41 74
M  V30 END BOND
M  V30 END CTAB
M  END
>  <Dataset>  (652) 
ChEMBL_Kinases

>  <Ligand_Instance>  (652) 
nan

>  <PDB_ID>  (652) 
nan

>  <Standardized_SMILES>  (652) 
CN1CCC(c2nnc(-c3cnc(Nc4ccc5c(c4)C(C)(C)OC5=O)nc3N[C@H](CO)c3ccccc3)o2)CC1

>  <Name>  (652) 
nan

>  <Pocket>  (652) 
nan

>  <ATP_Site>  (652) 
nan

>  <Peripheral>  (652) 
nan

>  <Num_H_Atoms_ProtBoundConf>  (652) 
nan

>  <Num_Resolved_Atoms>  (652) 
nan

>  <Num_Not_Resolved_Atoms>  (652) 
nan

$$$$
CHEMBL2017356
     RDKit          3D

  0  0  0  0  0  0  0  0  0  0999 V3000
M  V30 BEGIN CTAB
M  V30 COUNTS 40 44 0 0 0
M  V30 BEGIN ATOM
M  V30 1 C -0.269121 -2.383176 5.973261 0
M  V30 2 C 0.592662 -2.194741 5.139175 0
M  V30 3 C 1.644802 -1.968110 4.156620 0
M  V30 4 C 2.953803 -1.978396 4.574492 0
M  V30 5 C 3.890330 -1.765235 3.549440 0
M  V30 6 C 3.465417 -1.571274 2.265033 0
M  V30 7 C 2.145116 -1.565842 1.875093 0
M  V30 8 N 1.763506 -1.380961 0.537661 0
M  V30 9 C 0.468879 -1.154505 -0.005568 0
M  V30 10 N 0.265784 0.095698 -0.442275 0
M  V30 11 C -0.855549 0.575199 -0.986013 0
M  V30 12 C -0.977967 1.856292 -1.407504 0
M  V30 13 C 0.088365 2.825745 -1.305367 0
M  V30 14 N 0.000990 4.102065 -1.738634 0
M  V30 15 N 1.118674 4.764614 -1.524208 0
M  V30 16 C 1.985574 3.941822 -0.939183 0
M  V30 17 N 1.328644 2.747455 -0.813186 0
M  V30 18 C -2.199139 2.196146 -1.949894 0
M  V30 19 C -3.250303 1.307872 -2.069968 0
M  V30 20 C -3.069144 0.014533 -1.623979 0
M  V30 21 C -1.868624 -0.355948 -1.079886 0
M  V30 22 C -1.725879 -1.633494 -0.656416 0
M  V30 23 S -2.819619 -2.957888 -0.660075 0
M  V30 24 C -1.600982 -4.182014 0.136100 0
M  V30 25 C -0.477291 -3.417027 0.315348 0
M  V30 26 C -0.527674 -2.105383 -0.087882 0
M  V30 27 C 1.184562 -1.774829 2.874574 0
M  V30 28 H -1.024583 -2.564911 6.708959 0
M  V30 29 H 3.232578 -2.137455 5.603743 0
M  V30 30 H 4.942943 -1.760335 3.791448 0
M  V30 31 H 4.238920 -1.408644 1.498839 0
M  V30 32 H 2.491295 -1.399716 -0.210743 0
M  V30 33 H 2.989391 4.217379 -0.648509 0
M  V30 34 H 1.760088 1.907842 -0.386387 0
M  V30 35 H -2.340232 3.217739 -2.302538 0
M  V30 36 H -4.199453 1.600905 -2.501262 0
M  V30 37 H -3.880074 -0.673426 -1.717614 0
M  V30 38 H -1.777063 -5.213362 0.374662 0
M  V30 39 H 0.382734 -3.893706 0.764535 0
M  V30 40 H 0.131117 -1.779372 2.623934 0
M  V30 END ATOM
M  V30 BEGIN BOND
M  V30 1 3 1 2
M  V30 2 1 2 3
M  V30 3 2 3 4
M  V30 4 1 4 5
M  V30 5 2 5 6
M  V30 6 1 6 7
M  V30 7 1 7 8
M  V30 8 1 8 9
M  V30 9 2 9 10
M  V30 10 1 10 11
M  V30 11 2 11 12
M  V30 12 1 12 13
M  V30 13 2 13 14
M  V30 14 1 14 15
M  V30 15 2 15 16
M  V30 16 1 16 17
M  V30 17 1 12 18
M  V30 18 2 18 19
M  V30 19 1 19 20
M  V30 20 2 20 21
M  V30 21 1 21 22
M  V30 22 1 22 23
M  V30 23 1 23 24
M  V30 24 2 24 25
M  V30 25 1 25 26
M  V30 26 2 7 27
M  V30 27 1 27 3
M  V30 28 1 26 9
M  V30 29 1 21 11
M  V30 30 2 26 22
M  V30 31 1 17 13
M  V30 32 1 1 28
M  V30 33 1 4 29
M  V30 34 1 5 30
M  V30 35 1 6 31
M  V30 36 1 8 32
M  V30 37 1 16 33
M  V30 38 1 17 34
M  V30 39 1 18 35
M  V30 40 1 19 36
M  V30 41 1 20 37
M  V30 42 1 24 38
M  V30 43 1 25 39
M  V30 44 1 27 40
M  V30 END BOND
M  V30 END CTAB
M  END
>  <Dataset>  (653) 
ChEMBL_Kinases

>  <Ligand_Instance>  (653) 
nan

>  <PDB_ID>  (653) 
nan

>  <Standardized_SMILES>  (653) 
C#Cc1cccc(Nc2nc3c(-c4nnc[nH]4)cccc3c3sccc23)c1

>  <Name>  (653) 
nan

>  <Pocket>  (653) 
nan

>  <ATP_Site>  (653) 
nan

>  <Peripheral>  (653) 
nan

>  <Num_H_Atoms_ProtBoundConf>  (653) 
nan

>  <Num_Resolved_Atoms>  (653) 
nan

>  <Num_Not_Resolved_Atoms>  (653) 
nan

$$$$
CHEMBL4741912
     RDKit          3D

  0  0  0  0  0  0  0  0  0  0999 V3000
M  V30 BEGIN CTAB
M  V30 COUNTS 37 40 0 0 0
M  V30 BEGIN ATOM
M  V30 1 F -2.049829 -3.830473 3.672234 0
M  V30 2 C -1.292331 -4.457033 2.701879 0
M  V30 3 F -1.954688 -5.641852 2.373047 0
M  V30 4 F -0.049398 -4.740646 3.217868 0
M  V30 5 C -1.131730 -3.620319 1.485075 0
M  V30 6 C -1.560752 -4.015043 0.244840 0
M  V30 7 N -1.391399 -3.222282 -0.820208 0
M  V30 8 C -0.805325 -2.015698 -0.754830 0
M  V30 9 N -0.655588 -1.221762 -1.923284 0
M  V30 10 C -0.066695 0.064338 -2.039515 0
M  V30 11 C -0.006404 0.694143 -3.264869 0
M  V30 12 C 0.550397 1.937186 -3.441218 0
M  V30 13 C 1.082874 2.618653 -2.374251 0
M  V30 14 N 1.686611 3.831345 -2.236555 0
M  V30 15 C 2.020835 4.001980 -0.940704 0
M  V30 16 N 1.625800 2.898245 -0.275078 0
M  V30 17 C 1.044439 2.034464 -1.148051 0
M  V30 18 C 0.479839 0.790448 -1.009249 0
M  V30 19 N -0.408888 -1.688585 0.483067 0
M  V30 20 C -0.528908 -2.393907 1.588121 0
M  V30 21 N -0.043906 -1.890072 2.850032 0
M  V30 22 C 0.609417 -0.639550 3.154023 0
M  V30 23 C 1.051305 -0.265112 4.510299 0
M  V30 24 C 2.086460 -0.798853 3.518003 0
M  V30 25 H -2.043883 -4.981751 0.122692 0
M  V30 26 H -1.026344 -1.639069 -2.807282 0
M  V30 27 H -0.408637 0.210217 -4.146067 0
M  V30 28 H 0.571601 2.386564 -4.427172 0
M  V30 29 H 2.516743 4.861134 -0.493927 0
M  V30 30 H 1.763700 2.766274 0.752476 0
M  V30 31 H 0.485990 0.397564 -0.020713 0
M  V30 32 H -0.169795 -2.496955 3.684561 0
M  V30 33 H 0.437035 0.121126 2.362619 0
M  V30 34 H 0.720797 -0.893926 5.338037 0
M  V30 35 H 1.157065 0.824229 4.694871 0
M  V30 36 H 2.825237 -0.126181 3.076944 0
M  V30 37 H 2.476005 -1.815269 3.735254 0
M  V30 END ATOM
M  V30 BEGIN BOND
M  V30 1 1 1 2
M  V30 2 1 2 3
M  V30 3 1 2 4
M  V30 4 1 2 5
M  V30 5 2 5 6
M  V30 6 1 6 7
M  V30 7 2 7 8
M  V30 8 1 8 9
M  V30 9 1 9 10
M  V30 10 2 10 11
M  V30 11 1 11 12
M  V30 12 2 12 13
M  V30 13 1 13 14
M  V30 14 2 14 15
M  V30 15 1 15 16
M  V30 16 1 16 17
M  V30 17 2 17 18
M  V30 18 1 8 19
M  V30 19 2 19 20
M  V30 20 1 20 21
M  V30 21 1 21 22
M  V30 22 1 22 23
M  V30 23 1 23 24
M  V30 24 1 20 5
M  V30 25 1 24 22
M  V30 26 1 18 10
M  V30 27 1 17 13
M  V30 28 1 6 25
M  V30 29 1 9 26
M  V30 30 1 11 27
M  V30 31 1 12 28
M  V30 32 1 15 29
M  V30 33 1 16 30
M  V30 34 1 18 31
M  V30 35 1 21 32
M  V30 36 1 22 33
M  V30 37 1 23 34
M  V30 38 1 23 35
M  V30 39 1 24 36
M  V30 40 1 24 37
M  V30 END BOND
M  V30 END CTAB
M  END
>  <Dataset>  (654) 
ChEMBL_Kinases

>  <Ligand_Instance>  (654) 
nan

>  <PDB_ID>  (654) 
nan

>  <Standardized_SMILES>  (654) 
FC(F)(F)c1cnc(Nc2ccc3nc[nH]c3c2)nc1NC1CC1

>  <Name>  (654) 
nan

>  <Pocket>  (654) 
nan

>  <ATP_Site>  (654) 
nan

>  <Peripheral>  (654) 
nan

>  <Num_H_Atoms_ProtBoundConf>  (654) 
nan

>  <Num_Resolved_Atoms>  (654) 
nan

>  <Num_Not_Resolved_Atoms>  (654) 
nan

$$$$
CHEMBL4741913
     RDKit          3D

  0  0  0  0  0  0  0  0  0  0999 V3000
M  V30 BEGIN CTAB
M  V30 COUNTS 36 38 0 0 0
M  V30 BEGIN ATOM
M  V30 1 C -2.118944 -5.256115 2.010661 0
M  V30 2 C -2.356434 -4.020157 1.614173 0
M  V30 3 C -1.209707 -3.195167 1.249316 0
M  V30 4 C 0.042006 -3.756411 1.341546 0
M  V30 5 N 1.076303 -2.943362 0.989334 0
M  V30 6 N 2.372196 -3.224585 0.984215 0
M  V30 7 C 3.075090 -2.167493 0.575557 0
M  V30 8 C 2.169960 -1.137238 0.299346 0
M  V30 9 C 2.351232 0.245749 -0.178618 0
M  V30 10 C 3.193514 0.604246 -1.224401 0
M  V30 11 C 3.298015 1.928875 -1.602071 0
M  V30 12 N 2.582634 2.861825 -0.953497 0
M  V30 13 C 1.753423 2.543343 0.069385 0
M  V30 14 O 0.998866 3.490833 0.760554 0
M  V30 15 C 1.034932 4.875955 0.450498 0
M  V30 16 C 1.624932 1.232499 0.472194 0
M  V30 17 C 0.927659 -1.654320 0.568216 0
M  V30 18 N -0.339068 -1.149811 0.496175 0
M  V30 19 C -1.406679 -1.896191 0.828574 0
M  V30 20 N -2.694089 -1.300066 0.727376 0
M  V30 21 C -2.870432 0.076667 0.278960 0
M  V30 22 H -2.878479 -5.971211 2.308919 0
M  V30 23 H -2.880508 -5.961795 2.305915 0
M  V30 24 H -3.380506 -3.720503 1.592244 0
M  V30 25 H 0.243807 -4.767603 1.665353 0
M  V30 26 H 4.133742 -2.005761 0.440020 0
M  V30 27 H 3.720823 -0.214530 -1.677075 0
M  V30 28 H 3.962168 2.170352 -2.418708 0
M  V30 29 H 0.976992 5.512568 1.363440 0
M  V30 30 H 1.915822 5.141834 -0.174557 0
M  V30 31 H 0.144243 5.037787 -0.209293 0
M  V30 32 H 0.967908 0.967870 1.285051 0
M  V30 33 H -3.580372 -1.791665 0.960364 0
M  V30 34 H -3.795392 0.523087 0.642089 0
M  V30 35 H -2.800610 0.156129 -0.822117 0
M  V30 36 H -2.041380 0.637492 0.775844 0
M  V30 END ATOM
M  V30 BEGIN BOND
M  V30 1 2 1 2
M  V30 2 1 2 3
M  V30 3 2 3 4
M  V30 4 1 4 5
M  V30 5 1 5 6
M  V30 6 2 6 7
M  V30 7 1 7 8
M  V30 8 1 8 9
M  V30 9 2 9 10
M  V30 10 1 10 11
M  V30 11 2 11 12
M  V30 12 1 12 13
M  V30 13 1 13 14
M  V30 14 1 14 15
M  V30 15 2 13 16
M  V30 16 2 8 17
M  V30 17 1 17 18
M  V30 18 2 18 19
M  V30 19 1 19 20
M  V30 20 1 20 21
M  V30 21 1 19 3
M  V30 22 1 17 5
M  V30 23 1 16 9
M  V30 24 1 1 22
M  V30 25 1 1 23
M  V30 26 1 2 24
M  V30 27 1 4 25
M  V30 28 1 7 26
M  V30 29 1 10 27
M  V30 30 1 11 28
M  V30 31 1 15 29
M  V30 32 1 15 30
M  V30 33 1 15 31
M  V30 34 1 16 32
M  V30 35 1 20 33
M  V30 36 1 21 34
M  V30 37 1 21 35
M  V30 38 1 21 36
M  V30 END BOND
M  V30 END CTAB
M  END
>  <Dataset>  (655) 
ChEMBL_Kinases

>  <Ligand_Instance>  (655) 
nan

>  <PDB_ID>  (655) 
nan

>  <Standardized_SMILES>  (655) 
C=Cc1cn2ncc(-c3ccnc(OC)c3)c2nc1NC

>  <Name>  (655) 
nan

>  <Pocket>  (655) 
nan

>  <ATP_Site>  (655) 
nan

>  <Peripheral>  (655) 
nan

>  <Num_H_Atoms_ProtBoundConf>  (655) 
nan

>  <Num_Resolved_Atoms>  (655) 
nan

>  <Num_Not_Resolved_Atoms>  (655) 
nan

$$$$
CHEMBL4742169
     RDKit          3D

  0  0  0  0  0  0  0  0  0  0999 V3000
M  V30 BEGIN CTAB
M  V30 COUNTS 59 63 0 0 0
M  V30 BEGIN ATOM
M  V30 1 C 5.316515 -3.710048 1.102517 0
M  V30 2 C 3.918061 -4.074673 1.557064 0
M  V30 3 C 3.486891 -3.496113 2.851461 0
M  V30 4 N 2.948526 -4.089433 0.493081 0
M  V30 5 C 1.925463 -3.105910 0.323894 0
M  V30 6 C 2.188630 -1.837707 0.821331 0
M  V30 7 C 1.295965 -0.819826 0.714693 0
M  V30 8 N 1.489143 0.513312 1.221037 0
M  V30 9 C 0.565796 1.524781 0.851966 0
M  V30 10 N 1.101586 2.242688 -0.162238 0
M  V30 11 C 0.430249 3.271395 -0.722943 0
M  V30 12 C -0.808777 3.527274 -0.197603 0
M  V30 13 C -1.414164 2.843675 0.822514 0
M  V30 14 C -2.675645 3.041282 1.494658 0
M  V30 15 C -2.698316 2.752721 2.870628 0
M  V30 16 N -3.813502 2.870411 3.646299 0
M  V30 17 C -4.986933 3.286133 3.093885 0
M  V30 18 C -5.041502 3.580737 1.766833 0
M  V30 19 C -6.211885 3.974248 1.142580 0
M  V30 20 C -6.307831 4.248372 -0.226660 0
M  V30 21 C -5.128477 4.101003 -0.963623 0
M  V30 22 C -3.961119 3.703131 -0.306435 0
M  V30 23 C -3.898000 3.449446 1.017328 0
M  V30 24 N -0.659195 1.824871 1.323940 0
M  V30 25 C 0.113788 -1.158504 0.071370 0
M  V30 26 C -0.188824 -2.401477 -0.436957 0
M  V30 27 C 0.747301 -3.405550 -0.305406 0
M  V30 28 N 0.531975 -4.720736 -0.802608 0
M  V30 29 C -0.743354 -4.980635 -1.454780 0
M  V30 30 C 1.568305 -5.704940 -0.629232 0
M  V30 31 O 1.169537 -6.900671 -0.573147 0
M  V30 32 C 2.966273 -5.146715 -0.542842 0 CFG=1
M  V30 33 C 3.267256 -4.511730 -1.881183 0
M  V30 34 H 5.356163 -2.688712 0.659818 0
M  V30 35 H 6.000330 -3.850219 1.951139 0
M  V30 36 H 5.649775 -4.385070 0.288045 0
M  V30 37 H 4.036457 -5.195336 1.787048 0
M  V30 38 H 2.394586 -3.250570 2.889615 0
M  V30 39 H 3.582307 -4.208545 3.733490 0
M  V30 40 H 4.127212 -2.636639 3.212403 0
M  V30 41 H 3.133978 -1.638891 1.306612 0
M  V30 42 H 2.298511 0.684213 1.838023 0
M  V30 43 H 0.826348 3.873182 -1.538440 0
M  V30 44 H -1.290277 4.370477 -0.616069 0
M  V30 45 H -1.862271 2.407375 3.487580 0
M  V30 46 H -5.879285 3.384089 3.698975 0
M  V30 47 H -7.133729 4.093365 1.695890 0
M  V30 48 H -7.234675 4.555335 -0.684226 0
M  V30 49 H -5.240465 4.320852 -2.021032 0
M  V30 50 H -3.181112 3.604632 -1.023454 0
M  V30 51 H -0.662998 -0.395757 -0.060749 0
M  V30 52 H -1.131273 -2.577605 -0.921419 0
M  V30 53 H -1.456854 -5.178636 -0.618713 0
M  V30 54 H -0.670529 -5.945732 -2.030188 0
M  V30 55 H -1.075286 -4.196465 -2.133694 0
M  V30 56 H 3.653261 -5.957576 -0.279079 0
M  V30 57 H 2.854440 -3.462556 -1.811810 0
M  V30 58 H 2.721785 -5.019576 -2.705568 0
M  V30 59 H 4.358733 -4.411383 -2.076068 0
M  V30 END ATOM
M  V30 BEGIN BOND
M  V30 1 1 1 2
M  V30 2 1 2 3
M  V30 3 1 2 4
M  V30 4 1 4 5
M  V30 5 2 5 6
M  V30 6 1 6 7
M  V30 7 1 7 8
M  V30 8 1 8 9
M  V30 9 2 9 10
M  V30 10 1 10 11
M  V30 11 2 11 12
M  V30 12 1 12 13
M  V30 13 1 13 14
M  V30 14 2 14 15
M  V30 15 1 15 16
M  V30 16 2 16 17
M  V30 17 1 17 18
M  V30 18 2 18 19
M  V30 19 1 19 20
M  V30 20 2 20 21
M  V30 21 1 21 22
M  V30 22 2 22 23
M  V30 23 2 13 24
M  V30 24 2 7 25
M  V30 25 1 25 26
M  V30 26 2 26 27
M  V30 27 1 27 28
M  V30 28 1 28 29
M  V30 29 1 28 30
M  V30 30 2 30 31
M  V30 31 1 30 32
M  V30 32 1 32 33
M  V30 33 1 32 4
M  V30 34 1 27 5
M  V30 35 1 24 9
M  V30 36 1 23 14
M  V30 37 1 23 18
M  V30 38 1 1 34
M  V30 39 1 1 35
M  V30 40 1 1 36
M  V30 41 1 2 37
M  V30 42 1 3 38
M  V30 43 1 3 39
M  V30 44 1 3 40
M  V30 45 1 6 41
M  V30 46 1 8 42
M  V30 47 1 11 43
M  V30 48 1 12 44
M  V30 49 1 15 45
M  V30 50 1 17 46
M  V30 51 1 19 47
M  V30 52 1 20 48
M  V30 53 1 21 49
M  V30 54 1 22 50
M  V30 55 1 25 51
M  V30 56 1 26 52
M  V30 57 1 29 53
M  V30 58 1 29 54
M  V30 59 1 29 55
M  V30 60 1 32 56 CFG=1
M  V30 61 1 33 57
M  V30 62 1 33 58
M  V30 63 1 33 59
M  V30 END BOND
M  V30 END CTAB
M  END
>  <Dataset>  (656) 
ChEMBL_Kinases

>  <Ligand_Instance>  (656) 
nan

>  <PDB_ID>  (656) 
nan

>  <Standardized_SMILES>  (656) 
CC(C)N1c2cc(Nc3nccc(-c4cncc5ccccc45)n3)ccc2N(C)C(=O)[C@H]1C

>  <Name>  (656) 
nan

>  <Pocket>  (656) 
nan

>  <ATP_Site>  (656) 
nan

>  <Peripheral>  (656) 
nan

>  <Num_H_Atoms_ProtBoundConf>  (656) 
nan

>  <Num_Resolved_Atoms>  (656) 
nan

>  <Num_Not_Resolved_Atoms>  (656) 
nan

$$$$
CHEMBL4742906
     RDKit          3D

  0  0  0  0  0  0  0  0  0  0999 V3000
M  V30 BEGIN CTAB
M  V30 COUNTS 57 62 0 0 0
M  V30 BEGIN ATOM
M  V30 1 C 4.037848 -7.810804 1.977695 0
M  V30 2 C 4.064943 -6.584686 1.178468 0
M  V30 3 C 3.473876 -5.406961 1.575620 0
M  V30 4 C 3.475086 -4.208860 0.841222 0
M  V30 5 C 2.787069 -3.110244 1.487919 0
M  V30 6 C 3.148131 -2.753789 2.793320 0
M  V30 7 N 2.364964 -1.738725 3.209907 0
M  V30 8 C 1.514984 -1.436528 2.212320 0
M  V30 9 C 0.499337 -0.508035 2.084408 0
M  V30 10 C -0.264454 -0.395028 0.938975 0
M  V30 11 C -1.337477 0.596627 0.824042 0
M  V30 12 C -1.690484 1.182148 -0.383598 0
M  V30 13 C -2.702991 2.117317 -0.490888 0
M  V30 14 C -3.409694 2.503181 0.637798 0
M  V30 15 C -4.481406 3.506486 0.462712 0
M  V30 16 C -5.766053 2.950058 -0.053679 0
M  V30 17 N -6.258162 3.713585 -1.194649 0
M  V30 18 C -6.460762 5.068029 -0.733179 0
M  V30 19 C -5.141730 5.619284 -0.221347 0
M  V30 20 N -4.083309 4.623959 -0.377382 0
M  V30 21 C -3.060759 1.921950 1.842597 0
M  V30 22 C -2.048072 0.987325 1.946739 0
M  V30 23 C 0.058342 -1.278625 -0.075450 0
M  V30 24 C 1.073010 -2.197444 0.066494 0
M  V30 25 N 1.783371 -2.266212 1.195113 0
M  V30 26 C 4.143284 -4.313817 -0.352528 0
M  V30 27 C 4.164929 -3.139071 -1.069886 0
M  V30 28 C 4.811175 -3.086516 -2.285933 0
M  V30 29 C 5.422098 -4.236126 -2.742142 0
M  V30 30 C 5.391513 -5.421435 -1.998838 0
M  V30 31 C 4.740956 -5.476553 -0.772246 0
M  V30 32 N 4.693906 -6.584621 -0.009168 0
M  V30 33 H 4.947208 -7.815707 2.620418 0
M  V30 34 H 3.187160 -7.823681 2.714805 0
M  V30 35 H 3.952194 -8.739337 1.404124 0
M  V30 36 H 2.978615 -5.480741 2.555993 0
M  V30 37 H 3.904653 -3.129952 3.488194 0
M  V30 38 H 0.288930 0.162163 2.914680 0
M  V30 39 H -1.160072 0.904981 -1.286867 0
M  V30 40 H -2.946137 2.549753 -1.453802 0
M  V30 41 H -4.700532 3.958662 1.455784 0
M  V30 42 H -6.591262 2.950168 0.714982 0
M  V30 43 H -5.698395 1.906853 -0.392953 0
M  V30 44 H -7.131641 3.305183 -1.547372 0
M  V30 45 H -6.892987 5.701713 -1.536903 0
M  V30 46 H -7.239305 5.014105 0.061746 0
M  V30 47 H -5.294766 5.814208 0.878227 0
M  V30 48 H -4.922806 6.577305 -0.713886 0
M  V30 49 H -3.217551 5.070304 0.032868 0
M  V30 50 H -3.648899 2.259044 2.710109 0
M  V30 51 H -1.825383 0.569854 2.925636 0
M  V30 52 H -0.540408 -1.200913 -0.991143 0
M  V30 53 H 1.303919 -2.888484 -0.760532 0
M  V30 54 H 3.717563 -2.216796 -0.742707 0
M  V30 55 H 4.838847 -2.173778 -2.864509 0
M  V30 56 H 5.949504 -4.279655 -3.686181 0
M  V30 57 H 5.860097 -6.344872 -2.324057 0
M  V30 END ATOM
M  V30 BEGIN BOND
M  V30 1 1 1 2
M  V30 2 2 2 3
M  V30 3 1 3 4
M  V30 4 1 4 5
M  V30 5 2 5 6
M  V30 6 1 6 7
M  V30 7 2 7 8
M  V30 8 1 8 9
M  V30 9 2 9 10
M  V30 10 1 10 11
M  V30 11 2 11 12
M  V30 12 1 12 13
M  V30 13 2 13 14
M  V30 14 1 14 15
M  V30 15 1 15 16
M  V30 16 1 16 17
M  V30 17 1 17 18
M  V30 18 1 18 19
M  V30 19 1 19 20
M  V30 20 1 14 21
M  V30 21 2 21 22
M  V30 22 1 10 23
M  V30 23 2 23 24
M  V30 24 1 24 25
M  V30 25 2 4 26
M  V30 26 1 26 27
M  V30 27 2 27 28
M  V30 28 1 28 29
M  V30 29 2 29 30
M  V30 30 1 30 31
M  V30 31 2 31 32
M  V30 32 1 32 2
M  V30 33 1 25 5
M  V30 34 1 31 26
M  V30 35 1 25 8
M  V30 36 1 22 11
M  V30 37 1 20 15
M  V30 38 1 1 33
M  V30 39 1 1 34
M  V30 40 1 1 35
M  V30 41 1 3 36
M  V30 42 1 6 37
M  V30 43 1 9 38
M  V30 44 1 12 39
M  V30 45 1 13 40
M  V30 46 1 15 41
M  V30 47 1 16 42
M  V30 48 1 16 43
M  V30 49 1 17 44
M  V30 50 1 18 45
M  V30 51 1 18 46
M  V30 52 1 19 47
M  V30 53 1 19 48
M  V30 54 1 20 49
M  V30 55 1 21 50
M  V30 56 1 22 51
M  V30 57 1 23 52
M  V30 58 1 24 53
M  V30 59 1 27 54
M  V30 60 1 28 55
M  V30 61 1 29 56
M  V30 62 1 30 57
M  V30 END BOND
M  V30 END CTAB
M  END
>  <Dataset>  (657) 
ChEMBL_Kinases

>  <Ligand_Instance>  (657) 
nan

>  <PDB_ID>  (657) 
nan

>  <Standardized_SMILES>  (657) 
Cc1cc(-c2cnc3cc(-c4ccc(C5CNCCN5)cc4)ccn23)c2ccccc2n1

>  <Name>  (657) 
nan

>  <Pocket>  (657) 
nan

>  <ATP_Site>  (657) 
nan

>  <Peripheral>  (657) 
nan

>  <Num_H_Atoms_ProtBoundConf>  (657) 
nan

>  <Num_Resolved_Atoms>  (657) 
nan

>  <Num_Not_Resolved_Atoms>  (657) 
nan

$$$$
CHEMBL4743335
     RDKit          3D

  0  0  0  0  0  0  0  0  0  0999 V3000
M  V30 BEGIN CTAB
M  V30 COUNTS 66 72 0 0 0
M  V30 BEGIN ATOM
M  V30 1 C 4.180925 1.364047 5.980178 0
M  V30 2 C 3.613546 0.740013 4.867517 0
M  V30 3 C 4.400470 0.542388 3.757463 0
M  V30 4 C 3.776154 -0.100910 2.630936 0
M  V30 5 C 4.424075 -1.127128 2.013537 0
M  V30 6 C 3.819422 -1.757404 0.924070 0
M  V30 7 N 2.599866 -1.370169 0.466094 0
M  V30 8 C 1.966078 -0.351368 1.085631 0
M  V30 9 N 0.769942 0.211960 0.822346 0
M  V30 10 C 0.523398 1.214325 1.693863 0
M  V30 11 C -0.609738 2.120713 1.825567 0
M  V30 12 N -0.773758 3.115837 2.746954 0
M  V30 13 N -1.938325 3.700347 2.515613 0
M  V30 14 C -2.534173 3.098517 1.456382 0
M  V30 15 C -3.752230 3.412687 0.904855 0
M  V30 16 C -4.149682 2.643826 -0.184672 0
M  V30 17 C -3.345579 1.643787 -0.648054 0
M  V30 18 C -3.731099 0.816402 -1.784743 0
M  V30 19 C -4.902848 0.945818 -2.500599 0
M  V30 20 N -5.201492 0.147313 -3.542086 0
M  V30 21 C -4.358125 -0.844080 -3.954907 0
M  V30 22 C -3.155688 -1.045794 -3.291431 0
M  V30 23 C -2.261800 -2.109636 -3.746020 0
M  V30 24 N -2.465646 -3.390007 -3.172815 0
M  V30 25 C -2.356228 -3.512883 -1.766442 0
M  V30 26 C -0.989685 -3.329567 -1.182986 0
M  V30 27 C 0.015152 -4.316323 -1.699527 0
M  V30 28 C 0.651735 -5.005896 -0.531964 0
M  V30 29 C 0.035455 -4.456702 0.715162 0
M  V30 30 C -1.080891 -3.536778 0.329096 0
M  V30 31 C -2.908429 -0.195544 -2.233778 0
M  V30 32 N -2.164080 1.406630 -0.042695 0
M  V30 33 C -1.709163 2.089939 0.998839 0
M  V30 34 C 1.634257 1.251075 2.523731 0
M  V30 35 C 2.540771 0.284583 2.159705 0
M  V30 36 C 5.720120 0.962575 3.772321 0
M  V30 37 C 6.228208 1.580161 4.915595 0
M  V30 38 N 5.469289 1.775262 5.997227 0
M  V30 39 H 3.672248 1.581620 6.921782 0
M  V30 40 H 2.584396 0.478706 5.028085 0
M  V30 41 H 5.411848 -1.477932 2.346884 0
M  V30 42 H 4.333044 -2.582018 0.421401 0
M  V30 43 H 0.068391 -0.013199 0.087432 0
M  V30 44 H -2.209907 4.498874 3.152087 0
M  V30 45 H -4.382549 4.206904 1.279143 0
M  V30 46 H -5.100013 2.884388 -0.621000 0
M  V30 47 H -5.598709 1.719144 -2.206407 0
M  V30 48 H -4.643133 -1.461580 -4.798546 0
M  V30 49 H -2.386287 -2.220830 -4.854433 0
M  V30 50 H -1.208918 -1.776806 -3.601064 0
M  V30 51 H -2.023607 -4.125481 -3.740321 0
M  V30 52 H -2.643231 -4.578341 -1.522552 0
M  V30 53 H -3.066553 -2.844829 -1.270672 0
M  V30 54 H -0.653957 -2.300292 -1.323324 0
M  V30 55 H -0.479520 -5.004128 -2.415665 0
M  V30 56 H 0.810004 -3.751023 -2.247957 0
M  V30 57 H 1.758075 -4.786229 -0.482726 0
M  V30 58 H 0.584591 -6.110845 -0.596389 0
M  V30 59 H -0.354888 -5.338028 1.297425 0
M  V30 60 H 0.774419 -3.879412 1.339615 0
M  V30 61 H -2.049628 -4.039699 0.572713 0
M  V30 62 H -1.030125 -2.586880 0.893763 0
M  V30 63 H -1.965281 -0.328548 -1.687419 0
M  V30 64 H 1.766637 1.940515 3.334255 0
M  V30 65 H 6.332374 0.807484 2.907006 0
M  V30 66 H 7.276856 1.896149 4.884160 0
M  V30 END ATOM
M  V30 BEGIN BOND
M  V30 1 2 1 2
M  V30 2 1 2 3
M  V30 3 1 3 4
M  V30 4 2 4 5
M  V30 5 1 5 6
M  V30 6 2 6 7
M  V30 7 1 7 8
M  V30 8 1 8 9
M  V30 9 1 9 10
M  V30 10 1 10 11
M  V30 11 2 11 12
M  V30 12 1 12 13
M  V30 13 1 13 14
M  V30 14 2 14 15
M  V30 15 1 15 16
M  V30 16 2 16 17
M  V30 17 1 17 18
M  V30 18 2 18 19
M  V30 19 1 19 20
M  V30 20 2 20 21
M  V30 21 1 21 22
M  V30 22 1 22 23
M  V30 23 1 23 24
M  V30 24 1 24 25
M  V30 25 1 25 26
M  V30 26 1 26 27
M  V30 27 1 27 28
M  V30 28 1 28 29
M  V30 29 1 29 30
M  V30 30 2 22 31
M  V30 31 1 17 32
M  V30 32 2 32 33
M  V30 33 2 10 34
M  V30 34 1 34 35
M  V30 35 2 3 36
M  V30 36 1 36 37
M  V30 37 2 37 38
M  V30 38 1 38 1
M  V30 39 1 35 4
M  V30 40 2 35 8
M  V30 41 1 33 11
M  V30 42 1 33 14
M  V30 43 1 31 18
M  V30 44 1 30 26
M  V30 45 1 1 39
M  V30 46 1 2 40
M  V30 47 1 5 41
M  V30 48 1 6 42
M  V30 49 1 9 43
M  V30 50 1 13 44
M  V30 51 1 15 45
M  V30 52 1 16 46
M  V30 53 1 19 47
M  V30 54 1 21 48
M  V30 55 1 23 49
M  V30 56 1 23 50
M  V30 57 1 24 51
M  V30 58 1 25 52
M  V30 59 1 25 53
M  V30 60 1 26 54
M  V30 61 1 27 55
M  V30 62 1 27 56
M  V30 63 1 28 57
M  V30 64 1 28 58
M  V30 65 1 29 59
M  V30 66 1 29 60
M  V30 67 1 30 61
M  V30 68 1 30 62
M  V30 69 1 31 63
M  V30 70 1 34 64
M  V30 71 1 36 65
M  V30 72 1 37 66
M  V30 END BOND
M  V30 END CTAB
M  END
>  <Dataset>  (658) 
ChEMBL_Kinases

>  <Ligand_Instance>  (658) 
nan

>  <PDB_ID>  (658) 
nan

>  <Standardized_SMILES>  (658) 
c1cc(-c2ccnc3[nH]c(-c4n[nH]c5ccc(-c6cncc(CNCC7CCCC7)c6)nc45)cc23)ccn1

>  <Name>  (658) 
nan

>  <Pocket>  (658) 
nan

>  <ATP_Site>  (658) 
nan

>  <Peripheral>  (658) 
nan

>  <Num_H_Atoms_ProtBoundConf>  (658) 
nan

>  <Num_Resolved_Atoms>  (658) 
nan

>  <Num_Not_Resolved_Atoms>  (658) 
nan

$$$$
CHEMBL2017361
     RDKit          3D

  0  0  0  0  0  0  0  0  0  0999 V3000
M  V30 BEGIN CTAB
M  V30 COUNTS 41 45 0 0 0
M  V30 BEGIN ATOM
M  V30 1 C 1.009457 -6.025338 -0.182102 0
M  V30 2 C 0.773353 -4.722976 0.365628 0
M  V30 3 C 0.289065 -3.538108 -0.105643 0
M  V30 4 C 0.196992 -2.459433 0.727207 0
M  V30 5 C -0.264371 -1.198322 0.439542 0
M  V30 6 N -0.736084 -0.731983 -0.816328 0
M  V30 7 C 0.152788 0.059308 -1.599096 0
M  V30 8 C -0.452551 1.306664 -1.806846 0
M  V30 9 C 0.204789 2.294935 -2.544734 0
M  V30 10 C 1.472237 2.027820 -3.075610 0
M  V30 11 C 2.064120 0.787791 -2.865225 0
M  V30 12 C 1.392149 -0.162845 -2.134350 0
M  V30 13 F 1.844804 -1.395529 -1.858474 0
M  V30 14 N -0.290753 -0.254598 1.382268 0
M  V30 15 C 0.097243 -0.374275 2.654698 0
M  V30 16 C 0.028427 0.674374 3.543618 0
M  V30 17 C -0.474671 1.981631 3.159603 0
M  V30 18 N -0.558262 3.039887 4.002112 0
M  V30 19 N -1.054613 4.101728 3.370532 0
M  V30 20 C -1.309031 3.761351 2.094754 0
M  V30 21 N -0.941802 2.464306 2.011803 0
M  V30 22 C 0.463556 0.420561 4.827888 0
M  V30 23 C 0.938732 -0.846085 5.158905 0
M  V30 24 C 1.003208 -1.891990 4.256237 0
M  V30 25 C 0.569689 -1.619676 2.996880 0
M  V30 26 C 0.615501 -2.623434 2.062370 0
M  V30 27 S 1.153557 -4.316823 2.177726 0
M  V30 28 H 1.556648 -6.682299 0.522416 0
M  V30 29 H 0.042453 -6.524838 -0.403878 0
M  V30 30 H 1.647319 -5.979151 -1.108993 0
M  V30 31 H 0.005891 -3.557146 -1.144651 0
M  V30 32 H -1.676637 -0.953751 -1.146772 0
M  V30 33 H -1.425355 1.675890 -1.467714 0
M  V30 34 H -0.181202 3.275716 -2.752048 0
M  V30 35 H 2.062094 2.722112 -3.656975 0
M  V30 36 H 3.026664 0.461096 -3.216468 0
M  V30 37 H -1.724450 4.370129 1.281865 0
M  V30 38 H -1.034199 1.940707 1.120976 0
M  V30 39 H 0.421296 1.227520 5.542272 0
M  V30 40 H 1.266852 -0.973779 6.192959 0
M  V30 41 H 1.377931 -2.857200 4.548730 0
M  V30 END ATOM
M  V30 BEGIN BOND
M  V30 1 1 1 2
M  V30 2 2 2 3
M  V30 3 1 3 4
M  V30 4 2 4 5
M  V30 5 1 5 6
M  V30 6 1 6 7
M  V30 7 2 7 8
M  V30 8 1 8 9
M  V30 9 2 9 10
M  V30 10 1 10 11
M  V30 11 2 11 12
M  V30 12 1 12 13
M  V30 13 1 5 14
M  V30 14 2 14 15
M  V30 15 1 15 16
M  V30 16 1 16 17
M  V30 17 2 17 18
M  V30 18 1 18 19
M  V30 19 2 19 20
M  V30 20 1 20 21
M  V30 21 2 16 22
M  V30 22 1 22 23
M  V30 23 2 23 24
M  V30 24 1 24 25
M  V30 25 2 25 26
M  V30 26 1 26 27
M  V30 27 1 27 2
M  V30 28 1 26 4
M  V30 29 1 12 7
M  V30 30 1 25 15
M  V30 31 1 21 17
M  V30 32 1 1 28
M  V30 33 1 1 29
M  V30 34 1 1 30
M  V30 35 1 3 31
M  V30 36 1 6 32
M  V30 37 1 8 33
M  V30 38 1 9 34
M  V30 39 1 10 35
M  V30 40 1 11 36
M  V30 41 1 20 37
M  V30 42 1 21 38
M  V30 43 1 22 39
M  V30 44 1 23 40
M  V30 45 1 24 41
M  V30 END BOND
M  V30 END CTAB
M  END
>  <Dataset>  (659) 
ChEMBL_Kinases

>  <Ligand_Instance>  (659) 
nan

>  <PDB_ID>  (659) 
nan

>  <Standardized_SMILES>  (659) 
Cc1cc2c(Nc3ccccc3F)nc3c(-c4nnc[nH]4)cccc3c2s1

>  <Name>  (659) 
nan

>  <Pocket>  (659) 
nan

>  <ATP_Site>  (659) 
nan

>  <Peripheral>  (659) 
nan

>  <Num_H_Atoms_ProtBoundConf>  (659) 
nan

>  <Num_Resolved_Atoms>  (659) 
nan

>  <Num_Not_Resolved_Atoms>  (659) 
nan

$$$$
CHEMBL2017360
     RDKit          3D

  0  0  0  0  0  0  0  0  0  0999 V3000
M  V30 BEGIN CTAB
M  V30 COUNTS 39 42 0 0 0
M  V30 BEGIN ATOM
M  V30 1 C 3.477138 -2.788198 1.733461 0
M  V30 2 N 2.103191 -2.936065 1.311713 0
M  V30 3 C 1.762752 -2.544063 -0.005418 0
M  V30 4 O 2.577317 -2.068046 -0.859990 0
M  V30 5 C 0.577826 -2.500652 -0.842747 0
M  V30 6 C 0.258377 -3.446275 -1.816493 0
M  V30 7 C -0.901658 -3.313687 -2.571186 0
M  V30 8 C -1.751039 -2.243220 -2.363404 0
M  V30 9 C -1.398745 -1.333467 -1.390405 0
M  V30 10 C -0.259772 -1.432793 -0.625857 0
M  V30 11 N -0.100979 -0.456264 0.258071 0
M  V30 12 C -0.886222 0.579279 0.486237 0
M  V30 13 N -0.547884 1.524451 1.491707 0
M  V30 14 C 0.528062 1.579388 2.407428 0
M  V30 15 C 1.517451 2.519722 2.596145 0
M  V30 16 C 2.468538 2.362237 3.576961 0
M  V30 17 C 2.480879 1.279105 4.403157 0
M  V30 18 C 1.508609 0.318875 4.243296 0
M  V30 19 C 0.539300 0.474483 3.249852 0
M  V30 20 Cl -0.619314 -0.838662 3.195594 0
M  V30 21 C -2.043618 0.761738 -0.229223 0
M  V30 22 C -2.975230 1.735707 -0.161629 0
M  V30 23 C -4.060237 1.710588 -0.990159 0
M  V30 24 S -3.819555 0.216451 -1.980190 0
M  V30 25 C -2.231544 -0.242785 -1.153777 0
M  V30 26 H 3.577432 -1.948641 2.479429 0
M  V30 27 H 4.109046 -2.538778 0.877837 0
M  V30 28 H 3.857916 -3.696447 2.237348 0
M  V30 29 H 1.224803 -3.275867 1.738545 0
M  V30 30 H 0.951293 -4.274910 -1.950200 0
M  V30 31 H -1.107648 -4.072640 -3.310358 0
M  V30 32 H -2.654928 -2.141227 -2.954005 0
M  V30 33 H -1.132650 2.366191 1.667379 0
M  V30 34 H 1.421359 3.344617 1.891434 0
M  V30 35 H 3.207791 3.145346 3.652819 0
M  V30 36 H 3.238566 1.172690 5.172006 0
M  V30 37 H 1.549972 -0.529448 4.919504 0
M  V30 38 H -2.955515 2.577742 0.509525 0
M  V30 39 H -4.904114 2.312722 -1.148293 0
M  V30 END ATOM
M  V30 BEGIN BOND
M  V30 1 1 1 2
M  V30 2 1 2 3
M  V30 3 2 3 4
M  V30 4 1 3 5
M  V30 5 2 5 6
M  V30 6 1 6 7
M  V30 7 2 7 8
M  V30 8 1 8 9
M  V30 9 2 9 10
M  V30 10 1 10 11
M  V30 11 2 11 12
M  V30 12 1 12 13
M  V30 13 1 13 14
M  V30 14 2 14 15
M  V30 15 1 15 16
M  V30 16 2 16 17
M  V30 17 1 17 18
M  V30 18 2 18 19
M  V30 19 1 19 20
M  V30 20 1 12 21
M  V30 21 1 21 22
M  V30 22 2 22 23
M  V30 23 1 23 24
M  V30 24 1 24 25
M  V30 25 1 10 5
M  V30 26 1 19 14
M  V30 27 2 25 21
M  V30 28 1 25 9
M  V30 29 1 1 26
M  V30 30 1 1 27
M  V30 31 1 1 28
M  V30 32 1 2 29
M  V30 33 1 6 30
M  V30 34 1 7 31
M  V30 35 1 8 32
M  V30 36 1 13 33
M  V30 37 1 15 34
M  V30 38 1 16 35
M  V30 39 1 17 36
M  V30 40 1 18 37
M  V30 41 1 22 38
M  V30 42 1 23 39
M  V30 END BOND
M  V30 END CTAB
M  END
>  <Dataset>  (660) 
ChEMBL_Kinases

>  <Ligand_Instance>  (660) 
nan

>  <PDB_ID>  (660) 
nan

>  <Standardized_SMILES>  (660) 
CNC(=O)c1cccc2c1nc(Nc1ccccc1Cl)c1ccsc12

>  <Name>  (660) 
nan

>  <Pocket>  (660) 
nan

>  <ATP_Site>  (660) 
nan

>  <Peripheral>  (660) 
nan

>  <Num_H_Atoms_ProtBoundConf>  (660) 
nan

>  <Num_Resolved_Atoms>  (660) 
nan

>  <Num_Not_Resolved_Atoms>  (660) 
nan

$$$$
CHEMBL2017359
     RDKit          3D

  0  0  0  0  0  0  0  0  0  0999 V3000
M  V30 BEGIN CTAB
M  V30 COUNTS 36 39 0 0 0
M  V30 BEGIN ATOM
M  V30 1 N -1.569213 -4.948016 2.054991 0
M  V30 2 C -0.904102 -3.812219 1.520448 0
M  V30 3 O -1.798203 -3.225670 0.857284 0
M  V30 4 C 0.486863 -3.437999 1.710898 0
M  V30 5 C 1.346477 -4.184907 2.461830 0
M  V30 6 C 2.657305 -3.780038 2.603999 0
M  V30 7 C 3.087935 -2.623513 1.985815 0
M  V30 8 C 2.203189 -1.902304 1.243743 0
M  V30 9 C 0.877799 -2.298537 1.091643 0
M  V30 10 N 0.173323 -1.456848 0.327449 0
M  V30 11 C 0.589806 -0.351341 -0.262093 0
M  V30 12 N -0.379167 0.389829 -1.041125 0
M  V30 13 C -1.264086 1.464675 -0.751840 0
M  V30 14 C -1.088166 2.628088 -1.502220 0
M  V30 15 C -1.892370 3.725283 -1.297952 0
M  V30 16 C -2.879346 3.696821 -0.355887 0
M  V30 17 C -3.093638 2.558630 0.417970 0
M  V30 18 C -2.273309 1.490078 0.184096 0
M  V30 19 Cl -2.491049 0.032253 1.126323 0
M  V30 20 C 1.919771 0.085025 -0.134963 0
M  V30 21 C 2.477553 1.171342 -0.668190 0
M  V30 22 C 3.776729 1.399688 -0.414943 0
M  V30 23 S 4.226370 0.051896 0.599552 0
M  V30 24 C 2.694477 -0.722342 0.628829 0
M  V30 25 H -1.126181 -5.844326 1.770869 0
M  V30 26 H -2.388761 -5.077979 2.658961 0
M  V30 27 H 0.911171 -5.077895 2.907737 0
M  V30 28 H 3.313068 -4.388879 3.202681 0
M  V30 29 H 4.118875 -2.317482 2.106020 0
M  V30 30 H -0.460515 0.079068 -2.044462 0
M  V30 31 H -0.320660 2.737183 -2.278037 0
M  V30 32 H -1.768430 4.628775 -1.868941 0
M  V30 33 H -3.530682 4.553968 -0.175267 0
M  V30 34 H -3.863216 2.477957 1.182133 0
M  V30 35 H 1.980138 1.924065 -1.310977 0
M  V30 36 H 4.463911 2.228799 -0.741389 0
M  V30 END ATOM
M  V30 BEGIN BOND
M  V30 1 1 1 2
M  V30 2 2 2 3
M  V30 3 1 2 4
M  V30 4 2 4 5
M  V30 5 1 5 6
M  V30 6 2 6 7
M  V30 7 1 7 8
M  V30 8 2 8 9
M  V30 9 1 9 10
M  V30 10 2 10 11
M  V30 11 1 11 12
M  V30 12 1 12 13
M  V30 13 2 13 14
M  V30 14 1 14 15
M  V30 15 2 15 16
M  V30 16 1 16 17
M  V30 17 2 17 18
M  V30 18 1 18 19
M  V30 19 1 11 20
M  V30 20 1 20 21
M  V30 21 2 21 22
M  V30 22 1 22 23
M  V30 23 1 23 24
M  V30 24 1 9 4
M  V30 25 1 18 13
M  V30 26 2 24 20
M  V30 27 1 24 8
M  V30 28 1 1 25
M  V30 29 1 1 26
M  V30 30 1 5 27
M  V30 31 1 6 28
M  V30 32 1 7 29
M  V30 33 1 12 30
M  V30 34 1 14 31
M  V30 35 1 15 32
M  V30 36 1 16 33
M  V30 37 1 17 34
M  V30 38 1 21 35
M  V30 39 1 22 36
M  V30 END BOND
M  V30 END CTAB
M  END
>  <Dataset>  (661) 
ChEMBL_Kinases

>  <Ligand_Instance>  (661) 
nan

>  <PDB_ID>  (661) 
nan

>  <Standardized_SMILES>  (661) 
NC(=O)c1cccc2c1nc(Nc1ccccc1Cl)c1ccsc12

>  <Name>  (661) 
nan

>  <Pocket>  (661) 
nan

>  <ATP_Site>  (661) 
nan

>  <Peripheral>  (661) 
nan

>  <Num_H_Atoms_ProtBoundConf>  (661) 
nan

>  <Num_Resolved_Atoms>  (661) 
nan

>  <Num_Not_Resolved_Atoms>  (661) 
nan

$$$$
CHEMBL2017358
     RDKit          3D

  0  0  0  0  0  0  0  0  0  0999 V3000
M  V30 BEGIN CTAB
M  V30 COUNTS 35 38 0 0 0
M  V30 BEGIN ATOM
M  V30 1 O 1.697494 -3.086700 2.148738 0
M  V30 2 C 2.826474 -2.848458 1.653419 0
M  V30 3 O 3.700380 -3.723304 2.283661 0
M  V30 4 C 3.117135 -1.853842 0.632611 0
M  V30 5 C 4.404120 -1.691075 0.179924 0
M  V30 6 C 4.661021 -0.733397 -0.801039 0
M  V30 7 C 3.620664 0.030007 -1.296785 0
M  V30 8 C 2.354819 -0.183168 -0.800412 0
M  V30 9 C 2.071737 -1.117902 0.164638 0
M  V30 10 N 0.784987 -1.193712 0.532032 0
M  V30 11 C -0.194082 -0.440333 0.029936 0
M  V30 12 N -1.484188 -0.689681 0.565489 0
M  V30 13 C -2.438869 -0.362767 1.534976 0
M  V30 14 C -3.658211 0.089347 1.082565 0
M  V30 15 C -4.671651 0.442903 1.920222 0
M  V30 16 C -4.376690 0.310938 3.269428 0
M  V30 17 C -3.187976 -0.131199 3.788765 0
M  V30 18 C -2.168989 -0.485852 2.898264 0
M  V30 19 Cl -0.622755 -1.056253 3.453878 0
M  V30 20 C 0.007784 0.511566 -0.933231 0
M  V30 21 C -0.888698 1.348944 -1.534972 0
M  V30 22 C -0.398111 2.246503 -2.511501 0
M  V30 23 S 1.394973 1.900795 -2.588410 0
M  V30 24 C 1.380858 0.605270 -1.337418 0
M  V30 25 H 3.530586 -4.737866 2.231504 0
M  V30 26 H 5.165459 -2.333332 0.624766 0
M  V30 27 H 5.681492 -0.623350 -1.141194 0
M  V30 28 H 3.903589 0.754102 -2.058337 0
M  V30 29 H -1.847911 -1.461326 -0.069779 0
M  V30 30 H -3.852372 0.179917 0.012764 0
M  V30 31 H -5.628787 0.797688 1.607328 0
M  V30 32 H -5.120021 0.567950 4.011879 0
M  V30 33 H -3.012048 -0.214081 4.851303 0
M  V30 34 H -1.943101 1.368568 -1.312224 0
M  V30 35 H -0.914951 2.941645 -3.063499 0
M  V30 END ATOM
M  V30 BEGIN BOND
M  V30 1 2 1 2
M  V30 2 1 2 3
M  V30 3 1 2 4
M  V30 4 2 4 5
M  V30 5 1 5 6
M  V30 6 2 6 7
M  V30 7 1 7 8
M  V30 8 2 8 9
M  V30 9 1 9 10
M  V30 10 2 10 11
M  V30 11 1 11 12
M  V30 12 1 12 13
M  V30 13 2 13 14
M  V30 14 1 14 15
M  V30 15 2 15 16
M  V30 16 1 16 17
M  V30 17 2 17 18
M  V30 18 1 18 19
M  V30 19 1 11 20
M  V30 20 1 20 21
M  V30 21 2 21 22
M  V30 22 1 22 23
M  V30 23 1 23 24
M  V30 24 1 9 4
M  V30 25 1 18 13
M  V30 26 2 24 20
M  V30 27 1 24 8
M  V30 28 1 3 25
M  V30 29 1 5 26
M  V30 30 1 6 27
M  V30 31 1 7 28
M  V30 32 1 12 29
M  V30 33 1 14 30
M  V30 34 1 15 31
M  V30 35 1 16 32
M  V30 36 1 17 33
M  V30 37 1 21 34
M  V30 38 1 22 35
M  V30 END BOND
M  V30 END CTAB
M  END
>  <Dataset>  (662) 
ChEMBL_Kinases

>  <Ligand_Instance>  (662) 
nan

>  <PDB_ID>  (662) 
nan

>  <Standardized_SMILES>  (662) 
O=C(O)c1cccc2c1nc(Nc1ccccc1Cl)c1ccsc12

>  <Name>  (662) 
nan

>  <Pocket>  (662) 
nan

>  <ATP_Site>  (662) 
nan

>  <Peripheral>  (662) 
nan

>  <Num_H_Atoms_ProtBoundConf>  (662) 
nan

>  <Num_Resolved_Atoms>  (662) 
nan

>  <Num_Not_Resolved_Atoms>  (662) 
nan

$$$$
CHEMBL2017357
     RDKit          3D

  0  0  0  0  0  0  0  0  0  0999 V3000
M  V30 BEGIN CTAB
M  V30 COUNTS 42 46 0 0 0
M  V30 BEGIN ATOM
M  V30 1 N 5.674354 -2.863617 1.518398 0
M  V30 2 C 5.465349 -2.460952 0.196572 0
M  V30 3 O 6.504450 -2.517934 -0.495072 0
M  V30 4 C 4.107997 -2.049796 -0.154992 0
M  V30 5 C 3.043865 -2.080493 0.720386 0
M  V30 6 C 1.819526 -1.651298 0.249902 0
M  V30 7 C 1.675147 -1.204241 -1.067677 0
M  V30 8 N 0.372339 -0.763967 -1.487210 0
M  V30 9 C -0.683166 -0.884230 -0.537029 0
M  V30 10 N -0.685790 0.159149 0.300264 0
M  V30 11 C -1.509305 0.396841 1.304092 0
M  V30 12 C -1.498107 1.474623 2.160490 0
M  V30 13 C -0.468590 2.480961 1.947948 0
M  V30 14 N 0.490787 2.515720 1.004423 0
M  V30 15 N 1.243985 3.575991 1.113439 0
M  V30 16 C 0.790581 4.293758 2.163388 0
M  V30 17 N -0.247610 3.598254 2.643020 0
M  V30 18 C -2.427611 1.554861 3.148030 0
M  V30 19 C -3.378066 0.540512 3.275093 0
M  V30 20 C -3.421122 -0.567954 2.425599 0
M  V30 21 C -2.446428 -0.603315 1.429326 0
M  V30 22 C -2.527582 -1.701182 0.631043 0
M  V30 23 S -3.581943 -3.058268 0.581942 0
M  V30 24 C -2.737482 -3.864616 -0.898646 0
M  V30 25 C -1.610038 -2.920085 -1.252975 0
M  V30 26 C -1.631000 -1.872125 -0.391161 0
M  V30 27 C 2.752755 -1.179890 -1.934648 0
M  V30 28 C 3.987115 -1.612188 -1.461218 0
M  V30 29 H 5.569663 -3.130052 2.516204 0
M  V30 30 H 5.450496 -3.112219 2.513228 0
M  V30 31 H 3.295368 -2.447294 1.703160 0
M  V30 32 H 1.004633 -1.689106 0.968312 0
M  V30 33 H 0.284844 -0.385840 -2.462871 0
M  V30 34 H 1.268868 5.215470 2.437854 0
M  V30 35 H -0.807291 3.919913 3.475481 0
M  V30 36 H -2.405510 2.400583 3.807282 0
M  V30 37 H -4.127029 0.613171 4.075799 0
M  V30 38 H -4.171498 -1.344486 2.546781 0
M  V30 39 H -2.947385 -4.889255 -1.516217 0
M  V30 40 H -1.042539 -3.258942 -2.085310 0
M  V30 41 H 2.593860 -0.824102 -2.950808 0
M  V30 42 H 4.823999 -1.594907 -2.129910 0
M  V30 END ATOM
M  V30 BEGIN BOND
M  V30 1 1 1 2
M  V30 2 2 2 3
M  V30 3 1 2 4
M  V30 4 2 4 5
M  V30 5 1 5 6
M  V30 6 2 6 7
M  V30 7 1 7 8
M  V30 8 1 8 9
M  V30 9 2 9 10
M  V30 10 1 10 11
M  V30 11 2 11 12
M  V30 12 1 12 13
M  V30 13 2 13 14
M  V30 14 1 14 15
M  V30 15 2 15 16
M  V30 16 1 16 17
M  V30 17 1 12 18
M  V30 18 2 18 19
M  V30 19 1 19 20
M  V30 20 2 20 21
M  V30 21 1 21 22
M  V30 22 1 22 23
M  V30 23 1 23 24
M  V30 24 2 24 25
M  V30 25 1 25 26
M  V30 26 1 7 27
M  V30 27 2 27 28
M  V30 28 1 28 4
M  V30 29 1 26 9
M  V30 30 1 21 11
M  V30 31 2 26 22
M  V30 32 1 17 13
M  V30 33 1 1 29
M  V30 34 1 1 30
M  V30 35 1 5 31
M  V30 36 1 6 32
M  V30 37 1 8 33
M  V30 38 1 16 34
M  V30 39 1 17 35
M  V30 40 1 18 36
M  V30 41 1 19 37
M  V30 42 1 20 38
M  V30 43 1 24 39
M  V30 44 1 25 40
M  V30 45 1 27 41
M  V30 46 1 28 42
M  V30 END BOND
M  V30 END CTAB
M  END
>  <Dataset>  (663) 
ChEMBL_Kinases

>  <Ligand_Instance>  (663) 
nan

>  <PDB_ID>  (663) 
nan

>  <Standardized_SMILES>  (663) 
NC(=O)c1ccc(Nc2nc3c(-c4nnc[nH]4)cccc3c3sccc23)cc1

>  <Name>  (663) 
nan

>  <Pocket>  (663) 
nan

>  <ATP_Site>  (663) 
nan

>  <Peripheral>  (663) 
nan

>  <Num_H_Atoms_ProtBoundConf>  (663) 
nan

>  <Num_Resolved_Atoms>  (663) 
nan

>  <Num_Not_Resolved_Atoms>  (663) 
nan

$$$$
CHEMBL4741845
     RDKit          3D

  0  0  0  0  0  0  0  0  0  0999 V3000
M  V30 BEGIN CTAB
M  V30 COUNTS 136 140 0 0 0
M  V30 BEGIN ATOM
M  V30 1 C 2.271046 0.609512 -7.184325 0
M  V30 2 C 3.437622 1.490747 -6.899694 0
M  V30 3 N 4.643720 1.212651 -7.362121 0
M  V30 4 C 5.637785 1.796722 -7.219926 0
M  V30 5 S 4.983802 3.220617 -6.150520 0
M  V30 6 C 3.307240 2.598175 -6.158716 0
M  V30 7 C 2.272119 3.307750 -5.457823 0
M  V30 8 C 0.940105 2.986424 -5.398755 0
M  V30 9 C -0.065095 3.646370 -4.733195 0
M  V30 10 C 0.295835 4.797247 -4.016829 0
M  V30 11 C -0.751994 5.543186 -3.288654 0 CFG=2
M  V30 12 C -1.242721 6.650443 -4.201245 0
M  V30 13 N -0.424036 6.000142 -1.988451 0
M  V30 14 C -0.754492 5.500764 -0.709783 0
M  V30 15 O -1.462862 4.430934 -0.677310 0
M  V30 16 C -0.512691 5.871113 0.660815 0 CFG=2
M  V30 17 C 0.476908 7.010245 0.813390 0
M  V30 18 C 0.607346 7.001505 2.339316 0 CFG=1
M  V30 19 O -0.004549 8.139560 2.827507 0
M  V30 20 C -0.167565 5.723936 2.752766 0
M  V30 21 N 0.074055 4.908473 1.548135 0
M  V30 22 C 0.632309 3.683520 1.116377 0
M  V30 23 O 0.731135 3.256250 -0.057414 0
M  V30 24 C 1.278858 2.446744 1.521723 0 CFG=1
M  V30 25 N 1.755379 1.659873 0.404070 0
M  V30 26 C 1.512088 0.342781 -0.077621 0
M  V30 27 O 0.684706 -0.181242 0.694299 0
M  V30 28 C 2.347798 0.148665 -1.295128 0
M  V30 29 C 2.214594 -1.246145 -1.826090 0
M  V30 30 C 2.649931 -2.259235 -0.734506 0
M  V30 31 C 2.535916 -3.626081 -1.299838 0
M  V30 32 C 2.942759 -4.805987 -0.508811 0
M  V30 33 C 2.281862 -5.090111 0.789075 0
M  V30 34 C 2.556471 -4.165097 1.891945 0
M  V30 35 C 1.753376 -4.471784 3.177747 0
M  V30 36 C 0.303522 -4.373034 2.923216 0
M  V30 37 C -0.595819 -4.603416 4.077953 0
M  V30 38 N -0.652034 -3.791738 5.174909 0
M  V30 39 C -1.599936 -4.242510 6.164882 0
M  V30 40 C 0.248548 -2.883152 5.667564 0
M  V30 41 C 0.547648 -1.626288 4.902469 0
M  V30 42 C -0.714189 -0.805460 4.657258 0
M  V30 43 O -1.574002 -1.564040 3.862072 0
M  V30 44 N -2.639317 -0.833445 3.447797 0
M  V30 45 C -3.427951 -1.560677 2.527970 0
M  V30 46 O -2.882512 -2.673012 2.378631 0
M  V30 47 C -4.618661 -0.994681 1.945583 0
M  V30 48 C -5.087046 0.211668 2.370891 0
M  V30 49 C -6.236753 0.746619 1.831641 0
M  V30 50 C -6.917680 0.046854 0.848629 0
M  V30 51 F -8.046638 0.635009 0.365176 0
M  V30 52 C -6.418459 -1.186812 0.429055 0
M  V30 53 F -7.242059 -1.722329 -0.533735 0
M  V30 54 C -5.252592 -1.728685 0.975874 0
M  V30 55 N -4.911758 -2.971626 0.427458 0
M  V30 56 C -3.994722 -3.456711 -0.560389 0
M  V30 57 C -3.016741 -4.426638 -0.302353 0
M  V30 58 C -2.139120 -4.870177 -1.251717 0
M  V30 59 C -2.190322 -4.360491 -2.537489 0
M  V30 60 I -0.827517 -5.068379 -3.971083 0
M  V30 61 C -3.151267 -3.414177 -2.774023 0
M  V30 62 C -4.046381 -2.941109 -1.860153 0
M  V30 63 F -4.904934 -1.999756 -2.298363 0
M  V30 64 C 2.448727 2.582938 2.466483 0
M  V30 65 C 2.928447 1.131140 2.699521 0
M  V30 66 C 3.610059 3.322291 1.886824 0
M  V30 67 C 2.112486 3.109320 3.818097 0
M  V30 68 C 1.616619 5.182448 -4.029660 0
M  V30 69 C 2.562215 4.462092 -4.723818 0
M  V30 70 H 1.500876 1.095150 -7.818517 0
M  V30 71 H 2.541353 -0.312533 -7.758863 0
M  V30 72 H 1.847813 0.184873 -6.224498 0
M  V30 73 H 6.664396 1.625717 -7.571367 0
M  V30 74 H 0.602098 2.122046 -5.924954 0
M  V30 75 H -1.090646 3.315003 -4.745620 0
M  V30 76 H -1.595824 4.815960 -3.166520 0
M  V30 77 H -1.357067 6.235718 -5.223261 0
M  V30 78 H -0.542922 7.525210 -4.175503 0
M  V30 79 H -2.252453 6.939456 -3.848276 0
M  V30 80 H 0.178859 6.869295 -1.848591 0
M  V30 81 H -1.477313 6.285557 1.108375 0
M  V30 82 H 1.466292 6.689145 0.404477 0
M  V30 83 H 0.117691 7.956805 0.414802 0
M  V30 84 H 1.652417 6.932026 2.628748 0
M  V30 85 H -0.792198 7.931098 3.367882 0
M  V30 86 H -1.232701 5.985911 2.825301 0
M  V30 87 H 0.266684 5.313471 3.655792 0
M  V30 88 H 0.556460 1.760369 2.073314 0
M  V30 89 H 2.414597 2.388502 -0.024445 0
M  V30 90 H 3.411713 0.293217 -0.979713 0
M  V30 91 H 2.125436 0.913405 -2.062444 0
M  V30 92 H 1.176454 -1.537472 -2.070181 0
M  V30 93 H 2.889312 -1.422889 -2.673813 0
M  V30 94 H 1.800504 -2.099195 0.013946 0
M  V30 95 H 3.590997 -1.983095 -0.262746 0
M  V30 96 H 1.431931 -3.794424 -1.592767 0
M  V30 97 H 3.012275 -3.645043 -2.335547 0
M  V30 98 H 2.824636 -5.734593 -1.172381 0
M  V30 99 H 4.051437 -4.746793 -0.285080 0
M  V30 100 H 1.176131 -5.236902 0.611110 0
M  V30 101 H 2.608227 -6.144655 1.083578 0
M  V30 102 H 2.533267 -3.129663 1.648975 0
M  V30 103 H 3.633327 -4.361821 2.265335 0
M  V30 104 H 2.060903 -5.517755 3.444238 0
M  V30 105 H 2.146909 -3.806716 3.929241 0
M  V30 106 H -0.013013 -5.105809 2.108782 0
M  V30 107 H 0.013502 -3.381533 2.465779 0
M  V30 108 H -1.661463 -4.800741 3.647974 0
M  V30 109 H -0.384763 -5.686057 4.469367 0
M  V30 110 H -2.604625 -3.769766 6.032968 0
M  V30 111 H -1.278097 -3.927584 7.182549 0
M  V30 112 H -1.754575 -5.340220 6.121727 0
M  V30 113 H 1.240534 -3.328603 5.996815 0
M  V30 114 H -0.119385 -2.460947 6.696725 0
M  V30 115 H 1.018781 -1.786806 3.936220 0
M  V30 116 H 1.281635 -1.027684 5.513561 0
M  V30 117 H -0.423448 0.082868 4.057409 0
M  V30 118 H -1.190655 -0.463178 5.577470 0
M  V30 119 H -2.832249 0.138342 3.778135 0
M  V30 120 H -4.615072 0.800516 3.118975 0
M  V30 121 H -6.615645 1.710291 2.166813 0
M  V30 122 H -5.401405 -3.851683 0.770265 0
M  V30 123 H -2.963794 -4.836484 0.691439 0
M  V30 124 H -1.415101 -5.614596 -0.992113 0
M  V30 125 H -3.140888 -3.050868 -3.806747 0
M  V30 126 H 3.227009 0.720837 1.719919 0
M  V30 127 H 2.178225 0.528827 3.223112 0
M  V30 128 H 3.867844 1.186351 3.308088 0
M  V30 129 H 3.296625 4.156714 1.229179 0
M  V30 130 H 4.202986 2.610876 1.237545 0
M  V30 131 H 4.302015 3.624335 2.686422 0
M  V30 132 H 2.372566 4.201812 3.947236 0
M  V30 133 H 1.095720 2.886650 4.162374 0
M  V30 134 H 2.806886 2.614453 4.560842 0
M  V30 135 H 1.874240 6.063138 -3.476485 0
M  V30 136 H 3.560442 4.855854 -4.662208 0
M  V30 END ATOM
M  V30 BEGIN BOND
M  V30 1 1 1 2
M  V30 2 1 2 3
M  V30 3 2 3 4
M  V30 4 1 4 5
M  V30 5 1 5 6
M  V30 6 1 6 7
M  V30 7 2 7 8
M  V30 8 1 8 9
M  V30 9 2 9 10
M  V30 10 1 10 11
M  V30 11 1 11 12
M  V30 12 1 11 13
M  V30 13 1 13 14
M  V30 14 2 14 15
M  V30 15 1 14 16
M  V30 16 1 16 17
M  V30 17 1 17 18
M  V30 18 1 18 19
M  V30 19 1 18 20
M  V30 20 1 20 21
M  V30 21 1 21 22
M  V30 22 2 22 23
M  V30 23 1 22 24
M  V30 24 1 24 25
M  V30 25 1 25 26
M  V30 26 2 26 27
M  V30 27 1 26 28
M  V30 28 1 28 29
M  V30 29 1 29 30
M  V30 30 1 30 31
M  V30 31 1 31 32
M  V30 32 1 32 33
M  V30 33 1 33 34
M  V30 34 1 34 35
M  V30 35 1 35 36
M  V30 36 1 36 37
M  V30 37 1 37 38
M  V30 38 1 38 39
M  V30 39 1 38 40
M  V30 40 1 40 41
M  V30 41 1 41 42
M  V30 42 1 42 43
M  V30 43 1 43 44
M  V30 44 1 44 45
M  V30 45 2 45 46
M  V30 46 1 45 47
M  V30 47 2 47 48
M  V30 48 1 48 49
M  V30 49 2 49 50
M  V30 50 1 50 51
M  V30 51 1 50 52
M  V30 52 1 52 53
M  V30 53 2 52 54
M  V30 54 1 54 55
M  V30 55 1 55 56
M  V30 56 2 56 57
M  V30 57 1 57 58
M  V30 58 2 58 59
M  V30 59 1 59 60
M  V30 60 1 59 61
M  V30 61 2 61 62
M  V30 62 1 62 63
M  V30 63 1 24 64
M  V30 64 1 64 65
M  V30 65 1 64 66
M  V30 66 1 64 67
M  V30 67 1 10 68
M  V30 68 2 68 69
M  V30 69 2 6 2
M  V30 70 1 69 7
M  V30 71 1 21 16
M  V30 72 1 54 47
M  V30 73 1 62 56
M  V30 74 1 1 70
M  V30 75 1 1 71
M  V30 76 1 1 72
M  V30 77 1 4 73
M  V30 78 1 8 74
M  V30 79 1 9 75
M  V30 80 1 11 76 CFG=1
M  V30 81 1 12 77
M  V30 82 1 12 78
M  V30 83 1 12 79
M  V30 84 1 13 80
M  V30 85 1 16 81 CFG=1
M  V30 86 1 17 82
M  V30 87 1 17 83
M  V30 88 1 18 84 CFG=3
M  V30 89 1 19 85
M  V30 90 1 20 86
M  V30 91 1 20 87
M  V30 92 1 24 88 CFG=1
M  V30 93 1 25 89
M  V30 94 1 28 90
M  V30 95 1 28 91
M  V30 96 1 29 92
M  V30 97 1 29 93
M  V30 98 1 30 94
M  V30 99 1 30 95
M  V30 100 1 31 96
M  V30 101 1 31 97
M  V30 102 1 32 98
M  V30 103 1 32 99
M  V30 104 1 33 100
M  V30 105 1 33 101
M  V30 106 1 34 102
M  V30 107 1 34 103
M  V30 108 1 35 104
M  V30 109 1 35 105
M  V30 110 1 36 106
M  V30 111 1 36 107
M  V30 112 1 37 108
M  V30 113 1 37 109
M  V30 114 1 39 110
M  V30 115 1 39 111
M  V30 116 1 39 112
M  V30 117 1 40 113
M  V30 118 1 40 114
M  V30 119 1 41 115
M  V30 120 1 41 116
M  V30 121 1 42 117
M  V30 122 1 42 118
M  V30 123 1 44 119
M  V30 124 1 48 120
M  V30 125 1 49 121
M  V30 126 1 55 122
M  V30 127 1 57 123
M  V30 128 1 58 124
M  V30 129 1 61 125
M  V30 130 1 65 126
M  V30 131 1 65 127
M  V30 132 1 65 128
M  V30 133 1 66 129
M  V30 134 1 66 130
M  V30 135 1 66 131
M  V30 136 1 67 132
M  V30 137 1 67 133
M  V30 138 1 67 134
M  V30 139 1 68 135
M  V30 140 1 69 136
M  V30 END BOND
M  V30 END CTAB
M  END
>  <Dataset>  (664) 
ChEMBL_Kinases

>  <Ligand_Instance>  (664) 
nan

>  <PDB_ID>  (664) 
nan

>  <Standardized_SMILES>  (664) 
Cc1ncsc1-c1ccc([C@H](C)NC(=O)[C@@H]2C[C@@H](O)CN2C(=O)[C@@H](NC(=O)CCCCCCCCCCN(C)CCCONC(=O)c2ccc(F)c(F)c2Nc2ccc(I)cc2F)C(C)(C)C)cc1

>  <Name>  (664) 
nan

>  <Pocket>  (664) 
nan

>  <ATP_Site>  (664) 
nan

>  <Peripheral>  (664) 
nan

>  <Num_H_Atoms_ProtBoundConf>  (664) 
nan

>  <Num_Resolved_Atoms>  (664) 
nan

>  <Num_Not_Resolved_Atoms>  (664) 
nan

$$$$
CHEMBL2016887
     RDKit          3D

  0  0  0  0  0  0  0  0  0  0999 V3000
M  V30 BEGIN CTAB
M  V30 COUNTS 74 79 0 0 0
M  V30 BEGIN ATOM
M  V30 1 C 1.863774 -3.158101 -0.455627 0
M  V30 2 C 0.892893 -2.355145 0.320277 0
M  V30 3 C -0.467492 -2.507660 0.151655 0
M  V30 4 N -0.996571 -3.411127 -0.803176 0
M  V30 5 C -2.418857 -3.555211 -0.956544 0
M  V30 6 C -2.806626 -4.560541 -2.030384 0
M  V30 7 N -2.281412 -4.155202 -3.327398 0
M  V30 8 C -2.941166 -2.956197 -3.804349 0
M  V30 9 C -2.811759 -3.034345 -5.331141 0
M  V30 10 C -2.745035 -4.497498 -5.619560 0
M  V30 11 C -2.713066 -5.163298 -4.270394 0
M  V30 12 C -1.338403 -1.765268 0.913227 0
M  V30 13 C -0.881825 -0.857810 1.855592 0
M  V30 14 C -1.881267 -0.135912 2.594696 0
M  V30 15 O -3.102515 -0.323834 2.365421 0
M  V30 16 N -1.632262 0.821959 3.614876 0
M  V30 17 C -2.874243 1.338425 4.129876 0
M  V30 18 C -3.615562 0.823712 5.187744 0
M  V30 19 C -4.787131 1.459159 5.541132 0
M  V30 20 C -5.268441 2.572540 4.910710 0
M  V30 21 C -4.518672 3.079193 3.853443 0
M  V30 22 C -3.329885 2.476003 3.457044 0
M  V30 23 C 0.480241 -0.731066 1.996137 0
M  V30 24 C 1.396316 -1.464789 1.243561 0
M  V30 25 N 2.758958 -1.157238 1.505566 0
M  V30 26 C 3.154072 -0.541165 2.783937 0
M  V30 27 C 3.591170 0.864859 2.532378 0
M  V30 28 N 3.805266 1.048456 1.085839 0
M  V30 29 C 3.388079 1.865189 0.011849 0
M  V30 30 N 2.761947 1.096187 -0.918916 0
M  V30 31 C 2.263120 1.663196 -2.052688 0
M  V30 32 N 2.401181 2.981827 -2.229473 0
M  V30 33 C 2.998252 3.819042 -1.376481 0
M  V30 34 N 3.315876 5.114633 -1.209461 0
M  V30 35 N 3.958586 5.300862 -0.056648 0
M  V30 36 C 4.076783 4.130115 0.558838 0
M  V30 37 Br 4.922822 3.907079 2.227910 0
M  V30 38 C 3.478941 3.206025 -0.261972 0
M  V30 39 C 4.758134 -0.017437 0.742203 0
M  V30 40 C 3.946900 -1.329707 0.655666 0
M  V30 41 H 2.090989 -2.790683 -1.451602 0
M  V30 42 H 1.350635 -4.161516 -0.612525 0
M  V30 43 H 2.746642 -3.446323 0.167191 0
M  V30 44 H -0.448306 -4.017350 -1.447510 0
M  V30 45 H -2.906514 -2.599306 -1.280480 0
M  V30 46 H -2.861720 -3.824813 0.007795 0
M  V30 47 H -3.907374 -4.593584 -2.145302 0
M  V30 48 H -2.473316 -5.561303 -1.744612 0
M  V30 49 H -2.426411 -2.069429 -3.420150 0
M  V30 50 H -4.040010 -2.962845 -3.600376 0
M  V30 51 H -3.651684 -2.551720 -5.851004 0
M  V30 52 H -1.857959 -2.547304 -5.626880 0
M  V30 53 H -3.633784 -4.801279 -6.218959 0
M  V30 54 H -1.812034 -4.731754 -6.196346 0
M  V30 55 H -1.953804 -5.974229 -4.323147 0
M  V30 56 H -3.704083 -5.564257 -3.955251 0
M  V30 57 H -2.403903 -1.913734 0.751793 0
M  V30 58 H -0.657179 1.040222 3.871105 0
M  V30 59 H -3.191945 -0.048568 5.644380 0
M  V30 60 H -5.341070 1.031417 6.370589 0
M  V30 61 H -6.184908 3.055082 5.200557 0
M  V30 62 H -4.908326 3.965114 3.357308 0
M  V30 63 H -2.833247 2.957498 2.624232 0
M  V30 64 H 0.703241 0.022028 2.769288 0
M  V30 65 H 2.391809 -0.670540 3.570403 0
M  V30 66 H 4.055807 -1.114152 3.163484 0
M  V30 67 H 2.883234 1.637976 2.846414 0
M  V30 68 H 4.566782 1.032777 3.077301 0
M  V30 69 H 1.755572 1.110052 -2.831092 0
M  V30 70 H 3.052787 5.821304 -1.943413 0
M  V30 71 H 5.576849 -0.128681 1.465481 0
M  V30 72 H 5.228323 0.232246 -0.230684 0
M  V30 73 H 3.696572 -1.392616 -0.418857 0
M  V30 74 H 4.533418 -2.144842 1.066972 0
M  V30 END ATOM
M  V30 BEGIN BOND
M  V30 1 1 1 2
M  V30 2 2 2 3
M  V30 3 1 3 4
M  V30 4 1 4 5
M  V30 5 1 5 6
M  V30 6 1 6 7
M  V30 7 1 7 8
M  V30 8 1 8 9
M  V30 9 1 9 10
M  V30 10 1 10 11
M  V30 11 1 3 12
M  V30 12 2 12 13
M  V30 13 1 13 14
M  V30 14 2 14 15
M  V30 15 1 14 16
M  V30 16 1 16 17
M  V30 17 2 17 18
M  V30 18 1 18 19
M  V30 19 2 19 20
M  V30 20 1 20 21
M  V30 21 2 21 22
M  V30 22 1 13 23
M  V30 23 2 23 24
M  V30 24 1 24 25
M  V30 25 1 25 26
M  V30 26 1 26 27
M  V30 27 1 27 28
M  V30 28 1 28 29
M  V30 29 2 29 30
M  V30 30 1 30 31
M  V30 31 2 31 32
M  V30 32 1 32 33
M  V30 33 1 33 34
M  V30 34 1 34 35
M  V30 35 2 35 36
M  V30 36 1 36 37
M  V30 37 1 36 38
M  V30 38 1 28 39
M  V30 39 1 39 40
M  V30 40 1 24 2
M  V30 41 1 40 25
M  V30 42 1 11 7
M  V30 43 1 22 17
M  V30 44 1 38 29
M  V30 45 2 38 33
M  V30 46 1 1 41
M  V30 47 1 1 42
M  V30 48 1 1 43
M  V30 49 1 4 44
M  V30 50 1 5 45
M  V30 51 1 5 46
M  V30 52 1 6 47
M  V30 53 1 6 48
M  V30 54 1 8 49
M  V30 55 1 8 50
M  V30 56 1 9 51
M  V30 57 1 9 52
M  V30 58 1 10 53
M  V30 59 1 10 54
M  V30 60 1 11 55
M  V30 61 1 11 56
M  V30 62 1 12 57
M  V30 63 1 16 58
M  V30 64 1 18 59
M  V30 65 1 19 60
M  V30 66 1 20 61
M  V30 67 1 21 62
M  V30 68 1 22 63
M  V30 69 1 23 64
M  V30 70 1 26 65
M  V30 71 1 26 66
M  V30 72 1 27 67
M  V30 73 1 27 68
M  V30 74 1 31 69
M  V30 75 1 34 70
M  V30 76 1 39 71
M  V30 77 1 39 72
M  V30 78 1 40 73
M  V30 79 1 40 74
M  V30 END BOND
M  V30 END CTAB
M  END
>  <Dataset>  (665) 
ChEMBL_Kinases

>  <Ligand_Instance>  (665) 
nan

>  <PDB_ID>  (665) 
nan

>  <Standardized_SMILES>  (665) 
Cc1c(NCCN2CCCC2)cc(C(=O)Nc2ccccc2)cc1N1CCN(c2ncnc3[nH]nc(Br)c23)CC1

>  <Name>  (665) 
nan

>  <Pocket>  (665) 
nan

>  <ATP_Site>  (665) 
nan

>  <Peripheral>  (665) 
nan

>  <Num_H_Atoms_ProtBoundConf>  (665) 
nan

>  <Num_Resolved_Atoms>  (665) 
nan

>  <Num_Not_Resolved_Atoms>  (665) 
nan

$$$$
CHEMBL2016886
     RDKit          3D

  0  0  0  0  0  0  0  0  0  0999 V3000
M  V30 BEGIN CTAB
M  V30 COUNTS 73 77 0 0 0
M  V30 BEGIN ATOM
M  V30 1 C 1.178502 -0.575682 3.784987 0
M  V30 2 C 0.660169 -0.342508 2.414876 0
M  V30 3 C 1.592983 0.170392 1.579116 0
M  V30 4 N 2.932726 0.467256 1.913089 0
M  V30 5 C 3.868625 0.978627 0.940560 0
M  V30 6 C 4.369552 -0.103691 -0.002865 0
M  V30 7 N 5.282056 0.435935 -0.981536 0
M  V30 8 C 4.646728 1.299956 -1.954218 0
M  V30 9 C 5.302239 1.027046 -3.294975 0
M  V30 10 C 6.592128 0.313502 -2.871376 0
M  V30 11 C 6.007153 -0.549904 -1.733748 0
M  V30 12 C 1.076862 0.406181 0.318348 0
M  V30 13 C -0.216373 0.169001 -0.094429 0
M  V30 14 O -0.656555 0.428012 -1.410876 0
M  V30 15 C -2.024285 0.238613 -1.753982 0
M  V30 16 C -2.814964 1.346312 -1.109707 0
M  V30 17 C -2.293787 2.664874 -1.737241 0
M  V30 18 C -4.293174 1.223566 -1.363321 0
M  V30 19 C -1.056013 -0.365189 0.897580 0
M  V30 20 C -0.638394 -0.639843 2.192837 0
M  V30 21 N -1.618100 -1.246196 3.002549 0
M  V30 22 C -2.927849 -0.672233 2.956740 0
M  V30 23 C -3.933871 -1.580839 2.349026 0
M  V30 24 N -3.432914 -2.948839 2.094518 0
M  V30 25 C -3.733747 -3.363297 0.765184 0
M  V30 26 N -5.050213 -3.151676 0.412111 0
M  V30 27 C -5.434466 -3.533259 -0.823580 0
M  V30 28 N -4.625721 -4.111643 -1.755892 0
M  V30 29 C -3.317232 -4.331904 -1.431397 0
M  V30 30 N -2.288486 -4.861494 -2.113512 0
M  V30 31 N -1.232557 -4.807400 -1.271525 0
M  V30 32 C -1.653700 -4.251588 -0.122962 0
M  V30 33 Br -0.342608 -4.062485 1.222863 0
M  V30 34 C -2.985488 -3.927689 -0.172251 0
M  V30 35 C -2.855126 -3.326521 3.358912 0
M  V30 36 C -1.824029 -2.347003 3.887976 0
M  V30 37 H 2.142733 -1.115093 3.821007 0
M  V30 38 H 0.424968 -1.090767 4.388653 0
M  V30 39 H 1.372008 0.388116 4.314710 0
M  V30 40 H 3.216544 0.307222 2.885460 0
M  V30 41 H 4.756371 1.377726 1.481092 0
M  V30 42 H 3.356499 1.768876 0.323131 0
M  V30 43 H 3.545712 -0.558739 -0.547879 0
M  V30 44 H 4.851299 -0.946997 0.565615 0
M  V30 45 H 4.643296 2.370279 -1.683105 0
M  V30 46 H 3.562442 0.986764 -2.001895 0
M  V30 47 H 4.649549 0.316135 -3.839014 0
M  V30 48 H 5.493791 1.932039 -3.882055 0
M  V30 49 H 7.005534 -0.305669 -3.662625 0
M  V30 50 H 7.263933 1.050660 -2.424515 0
M  V30 51 H 6.807611 -1.056060 -1.197657 0
M  V30 52 H 5.297220 -1.228264 -2.256535 0
M  V30 53 H 1.678883 0.831692 -0.499535 0
M  V30 54 H -2.368752 -0.768735 -1.407589 0
M  V30 55 H -2.149618 0.284302 -2.841395 0
M  V30 56 H -2.620059 1.386220 -0.040204 0
M  V30 57 H -2.156880 2.550588 -2.831985 0
M  V30 58 H -1.274678 2.882551 -1.323493 0
M  V30 59 H -2.958580 3.498216 -1.504836 0
M  V30 60 H -4.509714 0.291562 -1.952529 0
M  V30 61 H -4.610526 2.071416 -1.999227 0
M  V30 62 H -4.906850 1.201449 -0.436455 0
M  V30 63 H -2.087800 -0.620193 0.630287 0
M  V30 64 H -3.239189 -0.349376 3.970741 0
M  V30 65 H -2.947635 0.281923 2.349797 0
M  V30 66 H -4.794996 -1.721265 3.031364 0
M  V30 67 H -4.399841 -1.138955 1.428882 0
M  V30 68 H -6.437303 -3.439405 -1.275108 0
M  V30 69 H -2.415712 -5.207155 -3.086124 0
M  V30 70 H -3.745200 -3.390763 4.072677 0
M  V30 71 H -2.477761 -4.371645 3.370161 0
M  V30 72 H -0.876275 -2.950199 4.007624 0
M  V30 73 H -2.110358 -2.092472 4.923805 0
M  V30 END ATOM
M  V30 BEGIN BOND
M  V30 1 1 1 2
M  V30 2 2 2 3
M  V30 3 1 3 4
M  V30 4 1 4 5
M  V30 5 1 5 6
M  V30 6 1 6 7
M  V30 7 1 7 8
M  V30 8 1 8 9
M  V30 9 1 9 10
M  V30 10 1 10 11
M  V30 11 1 3 12
M  V30 12 2 12 13
M  V30 13 1 13 14
M  V30 14 1 14 15
M  V30 15 1 15 16
M  V30 16 1 16 17
M  V30 17 1 16 18
M  V30 18 1 13 19
M  V30 19 2 19 20
M  V30 20 1 20 21
M  V30 21 1 21 22
M  V30 22 1 22 23
M  V30 23 1 23 24
M  V30 24 1 24 25
M  V30 25 2 25 26
M  V30 26 1 26 27
M  V30 27 2 27 28
M  V30 28 1 28 29
M  V30 29 1 29 30
M  V30 30 1 30 31
M  V30 31 2 31 32
M  V30 32 1 32 33
M  V30 33 1 32 34
M  V30 34 1 24 35
M  V30 35 1 35 36
M  V30 36 1 20 2
M  V30 37 1 36 21
M  V30 38 1 11 7
M  V30 39 1 34 25
M  V30 40 2 34 29
M  V30 41 1 1 37
M  V30 42 1 1 38
M  V30 43 1 1 39
M  V30 44 1 4 40
M  V30 45 1 5 41
M  V30 46 1 5 42
M  V30 47 1 6 43
M  V30 48 1 6 44
M  V30 49 1 8 45
M  V30 50 1 8 46
M  V30 51 1 9 47
M  V30 52 1 9 48
M  V30 53 1 10 49
M  V30 54 1 10 50
M  V30 55 1 11 51
M  V30 56 1 11 52
M  V30 57 1 12 53
M  V30 58 1 15 54
M  V30 59 1 15 55
M  V30 60 1 16 56
M  V30 61 1 17 57
M  V30 62 1 17 58
M  V30 63 1 17 59
M  V30 64 1 18 60
M  V30 65 1 18 61
M  V30 66 1 18 62
M  V30 67 1 19 63
M  V30 68 1 22 64
M  V30 69 1 22 65
M  V30 70 1 23 66
M  V30 71 1 23 67
M  V30 72 1 27 68
M  V30 73 1 30 69
M  V30 74 1 35 70
M  V30 75 1 35 71
M  V30 76 1 36 72
M  V30 77 1 36 73
M  V30 END BOND
M  V30 END CTAB
M  END
>  <Dataset>  (666) 
ChEMBL_Kinases

>  <Ligand_Instance>  (666) 
nan

>  <PDB_ID>  (666) 
nan

>  <Standardized_SMILES>  (666) 
Cc1c(NCCN2CCCC2)cc(OCC(C)C)cc1N1CCN(c2ncnc3[nH]nc(Br)c23)CC1

>  <Name>  (666) 
nan

>  <Pocket>  (666) 
nan

>  <ATP_Site>  (666) 
nan

>  <Peripheral>  (666) 
nan

>  <Num_H_Atoms_ProtBoundConf>  (666) 
nan

>  <Num_Resolved_Atoms>  (666) 
nan

>  <Num_Not_Resolved_Atoms>  (666) 
nan

$$$$
CHEMBL2016885
     RDKit          3D

  0  0  0  0  0  0  0  0  0  0999 V3000
M  V30 BEGIN CTAB
M  V30 COUNTS 67 71 0 0 0
M  V30 BEGIN ATOM
M  V30 1 C 1.901384 -1.044290 4.583649 0
M  V30 2 C 1.866159 0.411893 4.263062 0
M  V30 3 O 2.350506 0.760127 3.027430 0
M  V30 4 C 1.888002 0.393618 1.799544 0
M  V30 5 C 2.373244 0.738301 0.492326 0
M  V30 6 C 1.888378 0.359013 -0.899923 0
M  V30 7 N 2.907601 1.113279 -1.403958 0
M  V30 8 C 3.106191 1.446856 -2.789330 0
M  V30 9 C 2.306257 2.612200 -3.279439 0
M  V30 10 N 0.890583 2.323734 -3.236496 0
M  V30 11 C 0.124535 3.566695 -3.495365 0
M  V30 12 C -1.263613 3.001610 -3.783790 0
M  V30 13 C -0.937742 1.726907 -4.547770 0
M  V30 14 C 0.548667 1.545518 -4.465529 0
M  V30 15 C 0.912253 -0.363439 -0.416461 0
M  V30 16 C 0.399907 -0.723750 -1.813744 0
M  V30 17 C 0.240410 -0.852179 0.636996 0
M  V30 18 N -0.869286 -1.713896 0.446109 0
M  V30 19 C -1.238351 -3.046094 0.031205 0
M  V30 20 C -1.937598 -3.838005 1.104690 0
M  V30 21 N -2.182206 -2.994207 2.254870 0
M  V30 22 C -1.628777 -3.551038 3.437630 0
M  V30 23 N -0.290903 -3.545592 3.487050 0
M  V30 24 C 0.382444 -4.067547 4.528722 0
M  V30 25 N -0.282760 -4.612911 5.556873 0
M  V30 26 C -1.645329 -4.627276 5.526959 0
M  V30 27 N -2.567976 -5.083988 6.377746 0
M  V30 28 N -3.791508 -4.851582 5.875873 0
M  V30 29 C -3.701040 -4.236886 4.681601 0
M  V30 30 Br -5.081878 -3.674960 3.532937 0
M  V30 31 C -2.349597 -4.098238 4.468289 0
M  V30 32 C -2.934906 -1.870680 1.747311 0
M  V30 33 C -2.139768 -1.083175 0.730869 0
M  V30 34 C 0.785114 -0.429417 1.816507 0
M  V30 35 H 2.153173 -1.665781 3.714612 0
M  V30 36 H 0.923450 -1.307406 5.049413 0
M  V30 37 H 2.697152 -1.282123 5.357547 0
M  V30 38 H 0.847110 0.850528 4.484921 0
M  V30 39 H 2.521854 0.933402 5.023566 0
M  V30 40 H 3.227076 1.380545 0.915363 0
M  V30 41 H 3.733800 1.641910 -1.196963 0
M  V30 42 H 2.799526 0.508103 -3.395043 0
M  V30 43 H 4.173976 1.525682 -3.053392 0
M  V30 44 H 2.665778 2.834081 -4.313945 0
M  V30 45 H 2.482234 3.483215 -2.621605 0
M  V30 46 H 0.533772 4.137682 -4.338369 0
M  V30 47 H 0.067495 4.105603 -2.538111 0
M  V30 48 H -1.870287 3.669417 -4.426181 0
M  V30 49 H -1.818708 2.795493 -2.855225 0
M  V30 50 H -1.502494 0.901950 -4.097851 0
M  V30 51 H -1.251445 1.828408 -5.622834 0
M  V30 52 H 0.806117 0.502593 -4.364760 0
M  V30 53 H 1.022328 2.020768 -5.335966 0
M  V30 54 H 1.187958 -0.980006 -2.519957 0
M  V30 55 H -0.254313 0.043085 -2.216428 0
M  V30 56 H -0.155876 -1.707067 -1.694675 0
M  V30 57 H -0.293213 -3.581161 -0.300220 0
M  V30 58 H -1.881712 -3.059963 -0.875093 0
M  V30 59 H -2.946708 -4.144312 0.688864 0
M  V30 60 H -1.346900 -4.757110 1.331373 0
M  V30 61 H 1.470211 -4.045455 4.526949 0
M  V30 62 H -2.291762 -5.541718 7.279731 0
M  V30 63 H -3.836689 -2.226531 1.166801 0
M  V30 64 H -3.347902 -1.209057 2.540255 0
M  V30 65 H -2.067187 -0.049010 1.110636 0
M  V30 66 H -2.699966 -0.973828 -0.242699 0
M  V30 67 H 0.234517 -0.822754 2.647619 0
M  V30 END ATOM
M  V30 BEGIN BOND
M  V30 1 1 1 2
M  V30 2 1 2 3
M  V30 3 1 3 4
M  V30 4 2 4 5
M  V30 5 1 5 6
M  V30 6 1 6 7
M  V30 7 1 7 8
M  V30 8 1 8 9
M  V30 9 1 9 10
M  V30 10 1 10 11
M  V30 11 1 11 12
M  V30 12 1 12 13
M  V30 13 1 13 14
M  V30 14 2 6 15
M  V30 15 1 15 16
M  V30 16 1 15 17
M  V30 17 1 17 18
M  V30 18 1 18 19
M  V30 19 1 19 20
M  V30 20 1 20 21
M  V30 21 1 21 22
M  V30 22 2 22 23
M  V30 23 1 23 24
M  V30 24 2 24 25
M  V30 25 1 25 26
M  V30 26 1 26 27
M  V30 27 1 27 28
M  V30 28 2 28 29
M  V30 29 1 29 30
M  V30 30 1 29 31
M  V30 31 1 21 32
M  V30 32 1 32 33
M  V30 33 2 17 34
M  V30 34 1 34 4
M  V30 35 1 14 10
M  V30 36 1 33 18
M  V30 37 1 31 22
M  V30 38 2 31 26
M  V30 39 1 1 35
M  V30 40 1 1 36
M  V30 41 1 1 37
M  V30 42 1 2 38
M  V30 43 1 2 39
M  V30 44 1 5 40
M  V30 45 1 7 41
M  V30 46 1 8 42
M  V30 47 1 8 43
M  V30 48 1 9 44
M  V30 49 1 9 45
M  V30 50 1 11 46
M  V30 51 1 11 47
M  V30 52 1 12 48
M  V30 53 1 12 49
M  V30 54 1 13 50
M  V30 55 1 13 51
M  V30 56 1 14 52
M  V30 57 1 14 53
M  V30 58 1 16 54
M  V30 59 1 16 55
M  V30 60 1 16 56
M  V30 61 1 19 57
M  V30 62 1 19 58
M  V30 63 1 20 59
M  V30 64 1 20 60
M  V30 65 1 24 61
M  V30 66 1 27 62
M  V30 67 1 32 63
M  V30 68 1 32 64
M  V30 69 1 33 65
M  V30 70 1 33 66
M  V30 71 1 34 67
M  V30 END BOND
M  V30 END CTAB
M  END
>  <Dataset>  (667) 
ChEMBL_Kinases

>  <Ligand_Instance>  (667) 
nan

>  <PDB_ID>  (667) 
nan

>  <Standardized_SMILES>  (667) 
CCOc1cc(NCCN2CCCC2)c(C)c(N2CCN(c3ncnc4[nH]nc(Br)c34)CC2)c1

>  <Name>  (667) 
nan

>  <Pocket>  (667) 
nan

>  <ATP_Site>  (667) 
nan

>  <Peripheral>  (667) 
nan

>  <Num_H_Atoms_ProtBoundConf>  (667) 
nan

>  <Num_Resolved_Atoms>  (667) 
nan

>  <Num_Not_Resolved_Atoms>  (667) 
nan

$$$$
CHEMBL2016771
     RDKit          3D

  0  0  0  0  0  0  0  0  0  0999 V3000
M  V30 BEGIN CTAB
M  V30 COUNTS 60 64 0 0 0
M  V30 BEGIN ATOM
M  V30 1 C -0.319560 -0.921744 -0.011671 0
M  V30 2 C 0.960738 -0.214668 0.225102 0
M  V30 3 C 1.926497 -0.295619 -0.753498 0
M  V30 4 N 1.672729 -1.047939 -1.934073 0
M  V30 5 C 2.636838 -1.177903 -3.007396 0
M  V30 6 C 2.084084 -2.064862 -4.122136 0
M  V30 7 N 0.890693 -1.450896 -4.620995 0
M  V30 8 C 1.140587 -0.220319 -5.333123 0
M  V30 9 C -0.193324 0.077499 -5.977158 0
M  V30 10 C -0.947165 -1.252259 -5.955099 0
M  V30 11 C 0.177538 -2.238808 -5.604166 0
M  V30 12 C 3.139088 0.338855 -0.597505 0
M  V30 13 C 3.378035 1.067485 0.569852 0
M  V30 14 Cl 4.900048 1.883692 0.802917 0
M  V30 15 C 2.369122 1.108189 1.510228 0
M  V30 16 C 1.129565 0.485158 1.397891 0
M  V30 17 N 0.171431 0.610905 2.439025 0
M  V30 18 C -1.127857 1.186312 2.473717 0
M  V30 19 C -2.114663 0.343667 3.230823 0
M  V30 20 N -1.504405 -0.180043 4.435745 0
M  V30 21 C -2.271984 -1.008832 5.296254 0
M  V30 22 N -2.750109 -0.249843 6.327717 0
M  V30 23 C -3.565974 -0.805363 7.272101 0
M  V30 24 N -3.921076 -2.109989 7.215356 0
M  V30 25 C -3.467455 -2.875435 6.219146 0
M  V30 26 N -3.555343 -4.170021 5.800533 0
M  V30 27 N -2.844207 -4.372990 4.692274 0
M  V30 28 C -2.246879 -3.216925 4.318831 0
M  V30 29 Br -1.103381 -3.011070 2.814712 0
M  V30 30 C -2.647817 -2.329586 5.265525 0
M  V30 31 C -0.136211 0.104659 4.810474 0
M  V30 32 C 0.778307 0.003375 3.605416 0
M  V30 33 H -0.174150 -2.006462 -0.188411 0
M  V30 34 H -1.091049 -0.707558 0.751277 0
M  V30 35 H -0.776567 -0.554972 -0.978038 0
M  V30 36 H 0.752554 -1.536900 -2.049365 0
M  V30 37 H 2.857322 -0.155079 -3.399845 0
M  V30 38 H 3.618727 -1.561920 -2.624085 0
M  V30 39 H 1.900504 -3.052719 -3.668805 0
M  V30 40 H 2.854845 -2.187627 -4.910630 0
M  V30 41 H 1.877890 -0.442444 -6.149625 0
M  V30 42 H 1.485486 0.615046 -4.691339 0
M  V30 43 H -0.694247 0.853355 -5.361348 0
M  V30 44 H -0.074962 0.443836 -7.022395 0
M  V30 45 H -1.399862 -1.516815 -6.910004 0
M  V30 46 H -1.692488 -1.174355 -5.127248 0
M  V30 47 H -0.228067 -3.180491 -5.190242 0
M  V30 48 H 0.751755 -2.372061 -6.537157 0
M  V30 49 H 3.924850 0.306484 -1.331799 0
M  V30 50 H 2.613838 1.688886 2.395424 0
M  V30 51 H -1.026220 2.136460 3.082816 0
M  V30 52 H -1.505147 1.529206 1.500510 0
M  V30 53 H -2.951390 1.019365 3.637808 0
M  V30 54 H -2.604254 -0.431793 2.631407 0
M  V30 55 H -3.967873 -0.238659 8.106304 0
M  V30 56 H -4.130221 -4.891984 6.321065 0
M  V30 57 H 0.206820 -0.660691 5.536494 0
M  V30 58 H -0.038634 1.099329 5.319934 0
M  V30 59 H 1.666633 0.649866 3.870571 0
M  V30 60 H 1.162689 -1.008951 3.444779 0
M  V30 END ATOM
M  V30 BEGIN BOND
M  V30 1 1 1 2
M  V30 2 2 2 3
M  V30 3 1 3 4
M  V30 4 1 4 5
M  V30 5 1 5 6
M  V30 6 1 6 7
M  V30 7 1 7 8
M  V30 8 1 8 9
M  V30 9 1 9 10
M  V30 10 1 10 11
M  V30 11 1 3 12
M  V30 12 2 12 13
M  V30 13 1 13 14
M  V30 14 1 13 15
M  V30 15 2 15 16
M  V30 16 1 16 17
M  V30 17 1 17 18
M  V30 18 1 18 19
M  V30 19 1 19 20
M  V30 20 1 20 21
M  V30 21 2 21 22
M  V30 22 1 22 23
M  V30 23 2 23 24
M  V30 24 1 24 25
M  V30 25 1 25 26
M  V30 26 1 26 27
M  V30 27 2 27 28
M  V30 28 1 28 29
M  V30 29 1 28 30
M  V30 30 1 20 31
M  V30 31 1 31 32
M  V30 32 1 16 2
M  V30 33 1 32 17
M  V30 34 1 11 7
M  V30 35 1 30 21
M  V30 36 2 30 25
M  V30 37 1 1 33
M  V30 38 1 1 34
M  V30 39 1 1 35
M  V30 40 1 4 36
M  V30 41 1 5 37
M  V30 42 1 5 38
M  V30 43 1 6 39
M  V30 44 1 6 40
M  V30 45 1 8 41
M  V30 46 1 8 42
M  V30 47 1 9 43
M  V30 48 1 9 44
M  V30 49 1 10 45
M  V30 50 1 10 46
M  V30 51 1 11 47
M  V30 52 1 11 48
M  V30 53 1 12 49
M  V30 54 1 15 50
M  V30 55 1 18 51
M  V30 56 1 18 52
M  V30 57 1 19 53
M  V30 58 1 19 54
M  V30 59 1 23 55
M  V30 60 1 26 56
M  V30 61 1 31 57
M  V30 62 1 31 58
M  V30 63 1 32 59
M  V30 64 1 32 60
M  V30 END BOND
M  V30 END CTAB
M  END
>  <Dataset>  (668) 
ChEMBL_Kinases

>  <Ligand_Instance>  (668) 
nan

>  <PDB_ID>  (668) 
nan

>  <Standardized_SMILES>  (668) 
Cc1c(NCCN2CCCC2)cc(Cl)cc1N1CCN(c2ncnc3[nH]nc(Br)c23)CC1

>  <Name>  (668) 
nan

>  <Pocket>  (668) 
nan

>  <ATP_Site>  (668) 
nan

>  <Peripheral>  (668) 
nan

>  <Num_H_Atoms_ProtBoundConf>  (668) 
nan

>  <Num_Resolved_Atoms>  (668) 
nan

>  <Num_Not_Resolved_Atoms>  (668) 
nan

$$$$
CHEMBL4743561
     RDKit          3D

  0  0  0  0  0  0  0  0  0  0999 V3000
M  V30 BEGIN CTAB
M  V30 COUNTS 37 40 0 0 0
M  V30 BEGIN ATOM
M  V30 1 O -2.222651 -3.523097 1.386928 0
M  V30 2 C -1.255508 -2.741981 1.574624 0
M  V30 3 C -0.264403 -3.021837 2.508094 0
M  V30 4 C 0.810516 -2.187723 2.740069 0
M  V30 5 C 0.887892 -1.011348 1.990949 0
M  V30 6 C 2.050568 -0.177937 2.289083 0
M  V30 7 N 3.302404 -0.653960 2.427563 0
M  V30 8 N 4.137244 0.357650 2.696524 0
M  V30 9 C 3.403814 1.507668 2.731145 0
M  V30 10 N 3.764422 2.804868 2.961617 0
M  V30 11 C 2.773289 3.738172 2.925905 0
M  V30 12 C 1.453739 3.473262 2.678059 0
M  V30 13 Br 0.179657 4.880651 2.659737 0
M  V30 14 C 1.106745 2.161202 2.447804 0
M  V30 15 C 2.083820 1.188595 2.476027 0
M  V30 16 C -0.103545 -0.737731 1.061508 0
M  V30 17 N -1.127592 -1.578333 0.872042 0
M  V30 18 C -2.121855 -1.212316 -0.122879 0
M  V30 19 C -1.735968 -1.757002 -1.451148 0
M  V30 20 C -0.951555 -0.919915 -2.217538 0
M  V30 21 C -0.488532 -1.238017 -3.477681 0
M  V30 22 C -0.860667 -2.494029 -3.968274 0
M  V30 23 C -1.652833 -3.371576 -3.226317 0
M  V30 24 C -2.088417 -2.989644 -1.958620 0
M  V30 25 H -0.389828 -3.950211 3.051131 0
M  V30 26 H 1.517373 -2.514379 3.492982 0
M  V30 27 H 5.180964 0.295913 2.856524 0
M  V30 28 H 3.142803 4.735291 3.117929 0
M  V30 29 H 0.068794 1.899258 2.245737 0
M  V30 30 H 0.020605 0.188161 0.519216 0
M  V30 31 H -3.063553 -1.754116 0.165246 0
M  V30 32 H -2.290244 -0.119320 -0.185769 0
M  V30 33 H -0.636590 0.076137 -1.868926 0
M  V30 34 H 0.126573 -0.583214 -4.080258 0
M  V30 35 H -0.512314 -2.775628 -4.958392 0
M  V30 36 H -1.940570 -4.336000 -3.598922 0
M  V30 37 H -2.706953 -3.613939 -1.318750 0
M  V30 END ATOM
M  V30 BEGIN BOND
M  V30 1 2 1 2
M  V30 2 1 2 3
M  V30 3 2 3 4
M  V30 4 1 4 5
M  V30 5 1 5 6
M  V30 6 2 6 7
M  V30 7 1 7 8
M  V30 8 1 8 9
M  V30 9 2 9 10
M  V30 10 1 10 11
M  V30 11 2 11 12
M  V30 12 1 12 13
M  V30 13 1 12 14
M  V30 14 2 14 15
M  V30 15 2 5 16
M  V30 16 1 16 17
M  V30 17 1 17 18
M  V30 18 1 18 19
M  V30 19 2 19 20
M  V30 20 1 20 21
M  V30 21 2 21 22
M  V30 22 1 22 23
M  V30 23 2 23 24
M  V30 24 1 17 2
M  V30 25 1 24 19
M  V30 26 1 15 6
M  V30 27 1 15 9
M  V30 28 1 3 25
M  V30 29 1 4 26
M  V30 30 1 8 27
M  V30 31 1 11 28
M  V30 32 1 14 29
M  V30 33 1 16 30
M  V30 34 1 18 31
M  V30 35 1 18 32
M  V30 36 1 20 33
M  V30 37 1 21 34
M  V30 38 1 22 35
M  V30 39 1 23 36
M  V30 40 1 24 37
M  V30 END BOND
M  V30 END CTAB
M  END
>  <Dataset>  (669) 
ChEMBL_Kinases

>  <Ligand_Instance>  (669) 
nan

>  <PDB_ID>  (669) 
nan

>  <Standardized_SMILES>  (669) 
O=c1ccc(-c2n[nH]c3ncc(Br)cc23)cn1Cc1ccccc1

>  <Name>  (669) 
nan

>  <Pocket>  (669) 
nan

>  <ATP_Site>  (669) 
nan

>  <Peripheral>  (669) 
nan

>  <Num_H_Atoms_ProtBoundConf>  (669) 
nan

>  <Num_Resolved_Atoms>  (669) 
nan

>  <Num_Not_Resolved_Atoms>  (669) 
nan

$$$$
CHEMBL2012702
     RDKit          3D

  0  0  0  0  0  0  0  0  0  0999 V3000
M  V30 BEGIN CTAB
M  V30 COUNTS 56 59 0 0 0
M  V30 BEGIN ATOM
M  V30 1 C 0.611037 -1.700525 0.137380 0
M  V30 2 C 0.630922 -0.262850 -0.186125 0
M  V30 3 C 1.530741 0.605742 0.400950 0
M  V30 4 N 2.497515 0.132890 1.323992 0
M  V30 5 C 3.510749 0.848838 2.066782 0
M  V30 6 C 2.963935 1.729068 3.147233 0
M  V30 7 N 3.973152 2.448270 3.891430 0
M  V30 8 C 4.795405 1.589520 4.702484 0
M  V30 9 C 4.671515 3.447332 3.153569 0
M  V30 10 C 1.454881 1.929755 0.027992 0
M  V30 11 C 0.559755 2.461162 -0.878235 0
M  V30 12 Cl 0.520638 4.158648 -1.305117 0
M  V30 13 C -0.335595 1.559591 -1.453657 0
M  V30 14 C -0.277655 0.224179 -1.094452 0
M  V30 15 N -1.251026 -0.556170 -1.774415 0
M  V30 16 C -0.883942 -1.629011 -2.657544 0
M  V30 17 C -1.981366 -2.647125 -2.681187 0
M  V30 18 N -2.905073 -2.571355 -1.559568 0
M  V30 19 C -3.333835 -3.318194 -0.427090 0
M  V30 20 N -3.022538 -2.671495 0.728357 0
M  V30 21 C -3.350162 -3.253193 1.894806 0
M  V30 22 N -3.970164 -4.442859 1.953932 0
M  V30 23 C -4.304017 -5.128898 0.870590 0
M  V30 24 N -4.900468 -6.278615 0.532899 0
M  V30 25 N -4.937748 -6.397072 -0.803855 0
M  V30 26 C -4.364720 -5.324089 -1.361076 0
M  V30 27 Br -4.195163 -5.043837 -3.234660 0
M  V30 28 C -3.964329 -4.524761 -0.316305 0
M  V30 29 C -3.590700 -1.280241 -1.686849 0
M  V30 30 C -2.599750 -0.135662 -1.476314 0
M  V30 31 H -0.417205 -2.126690 -0.040933 0
M  V30 32 H 0.751056 -1.879986 1.245731 0
M  V30 33 H 1.377883 -2.301725 -0.356100 0
M  V30 34 H 2.495780 -0.913991 1.514086 0
M  V30 35 H 4.152110 1.467395 1.378108 0
M  V30 36 H 4.225998 0.155358 2.552455 0
M  V30 37 H 2.414837 1.123254 3.926297 0
M  V30 38 H 2.249699 2.452635 2.739111 0
M  V30 39 H 5.750140 1.390151 4.134889 0
M  V30 40 H 5.137264 2.065257 5.647521 0
M  V30 41 H 4.355590 0.585815 4.852106 0
M  V30 42 H 5.666198 3.584595 3.639759 0
M  V30 43 H 4.146000 4.416462 3.285210 0
M  V30 44 H 4.876300 3.229383 2.102490 0
M  V30 45 H 2.125238 2.678431 0.426682 0
M  V30 46 H -1.052308 1.979449 -2.178158 0
M  V30 47 H 0.058268 -2.135552 -2.353019 0
M  V30 48 H -0.784674 -1.174981 -3.672269 0
M  V30 49 H -2.510878 -2.536323 -3.651978 0
M  V30 50 H -1.493663 -3.659482 -2.759090 0
M  V30 51 H -3.128331 -2.787075 2.858497 0
M  V30 52 H -5.266715 -6.951646 1.245458 0
M  V30 53 H -4.381292 -1.126053 -0.944702 0
M  V30 54 H -4.072083 -1.257224 -2.671370 0
M  V30 55 H -2.877619 0.621643 -2.237212 0
M  V30 56 H -2.726082 0.325992 -0.496672 0
M  V30 END ATOM
M  V30 BEGIN BOND
M  V30 1 1 1 2
M  V30 2 2 2 3
M  V30 3 1 3 4
M  V30 4 1 4 5
M  V30 5 1 5 6
M  V30 6 1 6 7
M  V30 7 1 7 8
M  V30 8 1 7 9
M  V30 9 1 3 10
M  V30 10 2 10 11
M  V30 11 1 11 12
M  V30 12 1 11 13
M  V30 13 2 13 14
M  V30 14 1 14 15
M  V30 15 1 15 16
M  V30 16 1 16 17
M  V30 17 1 17 18
M  V30 18 1 18 19
M  V30 19 2 19 20
M  V30 20 1 20 21
M  V30 21 2 21 22
M  V30 22 1 22 23
M  V30 23 1 23 24
M  V30 24 1 24 25
M  V30 25 2 25 26
M  V30 26 1 26 27
M  V30 27 1 26 28
M  V30 28 1 18 29
M  V30 29 1 29 30
M  V30 30 1 14 2
M  V30 31 1 30 15
M  V30 32 1 28 19
M  V30 33 2 28 23
M  V30 34 1 1 31
M  V30 35 1 1 32
M  V30 36 1 1 33
M  V30 37 1 4 34
M  V30 38 1 5 35
M  V30 39 1 5 36
M  V30 40 1 6 37
M  V30 41 1 6 38
M  V30 42 1 8 39
M  V30 43 1 8 40
M  V30 44 1 8 41
M  V30 45 1 9 42
M  V30 46 1 9 43
M  V30 47 1 9 44
M  V30 48 1 10 45
M  V30 49 1 13 46
M  V30 50 1 16 47
M  V30 51 1 16 48
M  V30 52 1 17 49
M  V30 53 1 17 50
M  V30 54 1 21 51
M  V30 55 1 24 52
M  V30 56 1 29 53
M  V30 57 1 29 54
M  V30 58 1 30 55
M  V30 59 1 30 56
M  V30 END BOND
M  V30 END CTAB
M  END
>  <Dataset>  (670) 
ChEMBL_Kinases

>  <Ligand_Instance>  (670) 
nan

>  <PDB_ID>  (670) 
nan

>  <Standardized_SMILES>  (670) 
Cc1c(NCCN(C)C)cc(Cl)cc1N1CCN(c2ncnc3[nH]nc(Br)c23)CC1

>  <Name>  (670) 
nan

>  <Pocket>  (670) 
nan

>  <ATP_Site>  (670) 
nan

>  <Peripheral>  (670) 
nan

>  <Num_H_Atoms_ProtBoundConf>  (670) 
nan

>  <Num_Resolved_Atoms>  (670) 
nan

>  <Num_Not_Resolved_Atoms>  (670) 
nan

$$$$
CHEMBL2012701
     RDKit          3D

  0  0  0  0  0  0  0  0  0  0999 V3000
M  V30 BEGIN CTAB
M  V30 COUNTS 62 65 0 0 0
M  V30 BEGIN ATOM
M  V30 1 C 3.763001 1.272128 -1.670043 0
M  V30 2 C 4.075753 2.509942 -0.863283 0
M  V30 3 C 5.059115 2.287955 0.215872 0
M  V30 4 N 6.370493 2.670238 0.287663 0
M  V30 5 N 6.906576 2.284518 1.430074 0
M  V30 6 C 6.007015 1.617384 2.211911 0
M  V30 7 N 6.040906 1.034483 3.415407 0
M  V30 8 C 4.899660 0.439952 3.872090 0
M  V30 9 N 3.767731 0.444755 3.121079 0
M  V30 10 C 3.756692 1.045480 1.897855 0
M  V30 11 N 2.462105 0.921207 1.326965 0
M  V30 12 C 1.338611 1.734452 0.914099 0
M  V30 13 C 0.088127 1.362493 1.674287 0
M  V30 14 N -0.215307 -0.071606 1.576426 0
M  V30 15 C -1.475706 -0.486115 1.041094 0
M  V30 16 C -1.937664 0.351557 0.019178 0
M  V30 17 C -3.107055 0.068615 -0.648303 0
M  V30 18 Cl -3.764013 1.033217 -1.923296 0
M  V30 19 C -3.749998 -1.074371 -0.226947 0
M  V30 20 C -3.337240 -1.928739 0.771105 0
M  V30 21 N -4.126106 -3.079436 1.134010 0
M  V30 22 C -5.324463 -3.598211 0.602052 0
M  V30 23 C -5.277890 -4.503750 -0.568977 0
M  V30 24 N -4.727549 -4.119051 -1.779248 0
M  V30 25 C -3.341271 -3.930942 -1.944635 0
M  V30 26 C -5.489865 -3.286702 -2.652768 0
M  V30 27 C -2.160962 -1.615767 1.421254 0
M  V30 28 C -1.620801 -2.429554 2.539318 0
M  V30 29 C 0.965678 -0.798601 2.061349 0
M  V30 30 C 2.073162 -0.445714 1.053768 0
M  V30 31 C 4.892255 1.650982 1.414509 0
M  V30 32 H 4.353601 1.193854 -2.612189 0
M  V30 33 H 3.869640 0.352800 -1.049293 0
M  V30 34 H 2.707121 1.306244 -2.004051 0
M  V30 35 H 3.208088 3.110241 -0.604534 0
M  V30 36 H 4.636393 3.173422 -1.607943 0
M  V30 37 H 7.914115 2.463688 1.718768 0
M  V30 38 H 5.000680 -0.009061 4.848140 0
M  V30 39 H 1.204842 1.621703 -0.172170 0
M  V30 40 H 1.521352 2.819893 1.136673 0
M  V30 41 H 0.349252 1.546867 2.760894 0
M  V30 42 H -0.753496 2.005079 1.391637 0
M  V30 43 H -1.449870 1.265443 -0.342806 0
M  V30 44 H -4.677396 -1.347597 -0.709875 0
M  V30 45 H -3.782979 -3.668618 1.922965 0
M  V30 46 H -5.950500 -2.700250 0.259063 0
M  V30 47 H -5.967160 -4.011582 1.424152 0
M  V30 48 H -6.317774 -4.976882 -0.698106 0
M  V30 49 H -4.692963 -5.430294 -0.207497 0
M  V30 50 H -2.840508 -4.162883 -0.959683 0
M  V30 51 H -2.871906 -4.673108 -2.647568 0
M  V30 52 H -2.997287 -2.927556 -2.238325 0
M  V30 53 H -6.381866 -2.911500 -2.099185 0
M  V30 54 H -5.843314 -3.840325 -3.572989 0
M  V30 55 H -4.857985 -2.399909 -2.954282 0
M  V30 56 H -1.100322 -1.770214 3.276870 0
M  V30 57 H -2.503977 -2.807735 3.142191 0
M  V30 58 H -1.062500 -3.313098 2.246739 0
M  V30 59 H 0.841631 -1.899511 1.995498 0
M  V30 60 H 1.294615 -0.426726 3.031496 0
M  V30 61 H 2.872658 -1.190883 1.263137 0
M  V30 62 H 1.665647 -0.574539 0.022114 0
M  V30 END ATOM
M  V30 BEGIN BOND
M  V30 1 1 1 2
M  V30 2 1 2 3
M  V30 3 2 3 4
M  V30 4 1 4 5
M  V30 5 1 5 6
M  V30 6 2 6 7
M  V30 7 1 7 8
M  V30 8 2 8 9
M  V30 9 1 9 10
M  V30 10 1 10 11
M  V30 11 1 11 12
M  V30 12 1 12 13
M  V30 13 1 13 14
M  V30 14 1 14 15
M  V30 15 2 15 16
M  V30 16 1 16 17
M  V30 17 1 17 18
M  V30 18 2 17 19
M  V30 19 1 19 20
M  V30 20 1 20 21
M  V30 21 1 21 22
M  V30 22 1 22 23
M  V30 23 1 23 24
M  V30 24 1 24 25
M  V30 25 1 24 26
M  V30 26 2 20 27
M  V30 27 1 27 28
M  V30 28 1 14 29
M  V30 29 1 29 30
M  V30 30 2 10 31
M  V30 31 1 31 3
M  V30 32 1 31 6
M  V30 33 1 30 11
M  V30 34 1 27 15
M  V30 35 1 1 32
M  V30 36 1 1 33
M  V30 37 1 1 34
M  V30 38 1 2 35
M  V30 39 1 2 36
M  V30 40 1 5 37
M  V30 41 1 8 38
M  V30 42 1 12 39
M  V30 43 1 12 40
M  V30 44 1 13 41
M  V30 45 1 13 42
M  V30 46 1 16 43
M  V30 47 1 19 44
M  V30 48 1 21 45
M  V30 49 1 22 46
M  V30 50 1 22 47
M  V30 51 1 23 48
M  V30 52 1 23 49
M  V30 53 1 25 50
M  V30 54 1 25 51
M  V30 55 1 25 52
M  V30 56 1 26 53
M  V30 57 1 26 54
M  V30 58 1 26 55
M  V30 59 1 28 56
M  V30 60 1 28 57
M  V30 61 1 28 58
M  V30 62 1 29 59
M  V30 63 1 29 60
M  V30 64 1 30 61
M  V30 65 1 30 62
M  V30 END BOND
M  V30 END CTAB
M  END
>  <Dataset>  (671) 
ChEMBL_Kinases

>  <Ligand_Instance>  (671) 
nan

>  <PDB_ID>  (671) 
nan

>  <Standardized_SMILES>  (671) 
CCc1n[nH]c2ncnc(N3CCN(c4cc(Cl)cc(NCCN(C)C)c4C)CC3)c12

>  <Name>  (671) 
nan

>  <Pocket>  (671) 
nan

>  <ATP_Site>  (671) 
nan

>  <Peripheral>  (671) 
nan

>  <Num_H_Atoms_ProtBoundConf>  (671) 
nan

>  <Num_Resolved_Atoms>  (671) 
nan

>  <Num_Not_Resolved_Atoms>  (671) 
nan

$$$$
CHEMBL2012699
     RDKit          3D

  0  0  0  0  0  0  0  0  0  0999 V3000
M  V30 BEGIN CTAB
M  V30 COUNTS 66 70 0 0 0
M  V30 BEGIN ATOM
M  V30 1 C 2.798928 2.193401 4.344091 0
M  V30 2 C 3.262655 1.119286 3.371482 0
M  V30 3 C 4.506114 1.476232 2.702130 0
M  V30 4 N 5.728944 1.089179 3.171211 0
M  V30 5 N 6.673885 1.603048 2.404358 0
M  V30 6 C 6.114923 2.324325 1.431495 0
M  V30 7 N 6.540770 3.032891 0.399286 0
M  V30 8 C 5.682009 3.641796 -0.426616 0
M  V30 9 N 4.346849 3.554605 -0.235977 0
M  V30 10 C 3.858141 2.836601 0.814471 0
M  V30 11 N 2.435745 2.872099 0.834185 0
M  V30 12 C 1.308051 3.431961 1.556120 0
M  V30 13 C 0.172563 2.501450 1.778285 0
M  V30 14 N -0.114653 1.616510 0.651218 0
M  V30 15 C -0.863759 0.419945 0.845303 0
M  V30 16 C -0.531973 -0.247834 2.030984 0
M  V30 17 C -1.151462 -1.459211 2.320709 0
M  V30 18 Cl -0.811555 -2.389011 3.785908 0
M  V30 19 C -2.080621 -1.937082 1.390279 0
M  V30 20 C -2.409241 -1.279293 0.218676 0
M  V30 21 N -3.359691 -1.801550 -0.693758 0
M  V30 22 C -4.121377 -3.024232 -0.647116 0
M  V30 23 C -3.317589 -4.271569 -0.875064 0
M  V30 24 N -4.111244 -5.460527 -0.813113 0
M  V30 25 C -5.049848 -5.647152 -1.869982 0
M  V30 26 C -4.178185 -6.315158 -2.937076 0
M  V30 27 C -3.369676 -7.280040 -2.132819 0
M  V30 28 C -3.279704 -6.654967 -0.771351 0
M  V30 29 C -1.771102 -0.061368 -0.045901 0
M  V30 30 C -2.087024 0.722502 -1.246880 0
M  V30 31 C 0.501992 2.157879 -0.563481 0
M  V30 32 C 2.000551 2.035426 -0.262784 0
M  V30 33 C 4.765751 2.242857 1.618778 0
M  V30 34 H 1.716260 2.168841 4.503020 0
M  V30 35 H 3.239831 2.004827 5.367355 0
M  V30 36 H 3.156033 3.204605 4.082492 0
M  V30 37 H 3.400326 0.192023 3.948603 0
M  V30 38 H 2.414833 0.924163 2.689433 0
M  V30 39 H 7.698208 1.450137 2.560524 0
M  V30 40 H 6.131914 4.198001 -1.241924 0
M  V30 41 H 0.923651 4.236733 0.837938 0
M  V30 42 H 1.561760 3.946128 2.481547 0
M  V30 43 H -0.758949 3.158616 1.823453 0
M  V30 44 H 0.165874 1.999888 2.750111 0
M  V30 45 H 0.167799 0.021723 2.811526 0
M  V30 46 H -2.547078 -2.885222 1.671231 0
M  V30 47 H -3.576163 -1.260755 -1.554728 0
M  V30 48 H -5.007742 -3.016829 -1.279241 0
M  V30 49 H -4.534059 -3.055201 0.412648 0
M  V30 50 H -2.534548 -4.361163 -0.109576 0
M  V30 51 H -2.798524 -4.257683 -1.863409 0
M  V30 52 H -5.818886 -6.396949 -1.540471 0
M  V30 53 H -5.488617 -4.724509 -2.244637 0
M  V30 54 H -4.802079 -6.808113 -3.716674 0
M  V30 55 H -3.596756 -5.493440 -3.392561 0
M  V30 56 H -3.907416 -8.271056 -2.130060 0
M  V30 57 H -2.371913 -7.488598 -2.581234 0
M  V30 58 H -3.661857 -7.383587 -0.031740 0
M  V30 59 H -2.221719 -6.390506 -0.554326 0
M  V30 60 H -3.211197 0.676294 -1.396837 0
M  V30 61 H -1.937024 1.831625 -1.069697 0
M  V30 62 H -1.649764 0.389505 -2.179433 0
M  V30 63 H 0.336674 1.457884 -1.415099 0
M  V30 64 H 0.258118 3.197378 -0.761605 0
M  V30 65 H 2.585439 2.146214 -1.195609 0
M  V30 66 H 2.135185 0.971722 0.089160 0
M  V30 END ATOM
M  V30 BEGIN BOND
M  V30 1 1 1 2
M  V30 2 1 2 3
M  V30 3 2 3 4
M  V30 4 1 4 5
M  V30 5 1 5 6
M  V30 6 2 6 7
M  V30 7 1 7 8
M  V30 8 2 8 9
M  V30 9 1 9 10
M  V30 10 1 10 11
M  V30 11 1 11 12
M  V30 12 1 12 13
M  V30 13 1 13 14
M  V30 14 1 14 15
M  V30 15 2 15 16
M  V30 16 1 16 17
M  V30 17 1 17 18
M  V30 18 2 17 19
M  V30 19 1 19 20
M  V30 20 1 20 21
M  V30 21 1 21 22
M  V30 22 1 22 23
M  V30 23 1 23 24
M  V30 24 1 24 25
M  V30 25 1 25 26
M  V30 26 1 26 27
M  V30 27 1 27 28
M  V30 28 2 20 29
M  V30 29 1 29 30
M  V30 30 1 14 31
M  V30 31 1 31 32
M  V30 32 2 10 33
M  V30 33 1 33 3
M  V30 34 1 33 6
M  V30 35 1 32 11
M  V30 36 1 29 15
M  V30 37 1 28 24
M  V30 38 1 1 34
M  V30 39 1 1 35
M  V30 40 1 1 36
M  V30 41 1 2 37
M  V30 42 1 2 38
M  V30 43 1 5 39
M  V30 44 1 8 40
M  V30 45 1 12 41
M  V30 46 1 12 42
M  V30 47 1 13 43
M  V30 48 1 13 44
M  V30 49 1 16 45
M  V30 50 1 19 46
M  V30 51 1 21 47
M  V30 52 1 22 48
M  V30 53 1 22 49
M  V30 54 1 23 50
M  V30 55 1 23 51
M  V30 56 1 25 52
M  V30 57 1 25 53
M  V30 58 1 26 54
M  V30 59 1 26 55
M  V30 60 1 27 56
M  V30 61 1 27 57
M  V30 62 1 28 58
M  V30 63 1 28 59
M  V30 64 1 30 60
M  V30 65 1 30 61
M  V30 66 1 30 62
M  V30 67 1 31 63
M  V30 68 1 31 64
M  V30 69 1 32 65
M  V30 70 1 32 66
M  V30 END BOND
M  V30 END CTAB
M  END
>  <Dataset>  (672) 
ChEMBL_Kinases

>  <Ligand_Instance>  (672) 
nan

>  <PDB_ID>  (672) 
nan

>  <Standardized_SMILES>  (672) 
CCc1n[nH]c2ncnc(N3CCN(c4cc(Cl)cc(NCCN5CCCC5)c4C)CC3)c12

>  <Name>  (672) 
nan

>  <Pocket>  (672) 
nan

>  <ATP_Site>  (672) 
nan

>  <Peripheral>  (672) 
nan

>  <Num_H_Atoms_ProtBoundConf>  (672) 
nan

>  <Num_Resolved_Atoms>  (672) 
nan

>  <Num_Not_Resolved_Atoms>  (672) 
nan

$$$$
CHEMBL4743809
     RDKit          3D

  0  0  0  0  0  0  0  0  0  0999 V3000
M  V30 BEGIN CTAB
M  V30 COUNTS 45 48 0 0 0
M  V30 BEGIN ATOM
M  V30 1 N -1.383828 -3.096512 -0.858637 0
M  V30 2 C -0.676909 -3.455786 0.350311 0 CFG=1
M  V30 3 C 0.815186 -3.387117 0.223934 0
M  V30 4 O 1.385820 -2.214111 -0.077242 0
M  V30 5 C 1.622064 -0.976243 0.296673 0
M  V30 6 C 1.346134 -0.194479 1.387717 0
M  V30 7 C 1.702301 1.122586 1.564024 0
M  V30 8 C 2.403172 1.687366 0.532483 0
M  V30 9 C 2.756500 1.029279 -0.628674 0
M  V30 10 C 2.346536 -0.310462 -0.712777 0
M  V30 11 O 3.466771 1.662205 -1.631843 0
M  V30 12 C 3.882252 2.985311 -1.572306 0
M  V30 13 C 3.503080 3.685785 -0.330343 0
M  V30 14 C 3.899203 4.994532 -0.240686 0
M  V30 15 N 3.591777 5.701159 0.860628 0
M  V30 16 C 2.896934 5.140629 1.882977 0
M  V30 17 C 2.500787 3.809643 1.778249 0
M  V30 18 C 2.796913 3.065718 0.674398 0
M  V30 19 C -1.169275 -2.779043 1.565263 0
M  V30 20 C -2.612802 -3.112074 1.861192 0
M  V30 21 C -3.000801 -4.181752 2.649989 0
M  V30 22 C -4.340264 -4.427026 2.878472 0
M  V30 23 C -5.270913 -3.589030 2.307531 0
M  V30 24 C -4.938196 -2.505777 1.511017 0
M  V30 25 C -3.590401 -2.283185 1.298629 0
M  V30 26 H -2.311346 -3.541894 -0.884634 0
M  V30 27 H -0.813069 -3.255263 -1.717433 0
M  V30 28 H -0.887805 -4.582756 0.464403 0
M  V30 29 H 1.305436 -3.943764 1.087073 0
M  V30 30 H 1.059270 -4.111319 -0.640085 0
M  V30 31 H 0.811917 -0.719122 2.157673 0
M  V30 32 H 1.396118 1.564900 2.483188 0
M  V30 33 H 2.669430 -0.760358 -1.670738 0
M  V30 34 H 3.427291 3.568241 -2.405512 0
M  V30 35 H 4.982926 3.107449 -1.693368 0
M  V30 36 H 4.456858 5.570551 -0.975416 0
M  V30 37 H 2.675996 5.746952 2.741417 0
M  V30 38 H 1.963596 3.445093 2.615408 0
M  V30 39 H -0.566576 -3.068710 2.433092 0
M  V30 40 H -1.116641 -1.665218 1.388282 0
M  V30 41 H -2.226061 -4.810253 3.075272 0
M  V30 42 H -4.654819 -5.264674 3.496568 0
M  V30 43 H -6.353087 -3.729011 2.450027 0
M  V30 44 H -5.660907 -1.840797 1.057353 0
M  V30 45 H -3.261737 -1.454669 0.686598 0
M  V30 END ATOM
M  V30 BEGIN BOND
M  V30 1 1 1 2
M  V30 2 1 2 3
M  V30 3 1 3 4
M  V30 4 1 4 5
M  V30 5 2 5 6
M  V30 6 1 6 7
M  V30 7 2 7 8
M  V30 8 1 8 9
M  V30 9 2 9 10
M  V30 10 1 9 11
M  V30 11 1 11 12
M  V30 12 1 12 13
M  V30 13 2 13 14
M  V30 14 1 14 15
M  V30 15 2 15 16
M  V30 16 1 16 17
M  V30 17 2 17 18
M  V30 18 1 2 19
M  V30 19 1 19 20
M  V30 20 2 20 21
M  V30 21 1 21 22
M  V30 22 2 22 23
M  V30 23 1 23 24
M  V30 24 2 24 25
M  V30 25 1 10 5
M  V30 26 1 18 13
M  V30 27 1 25 20
M  V30 28 1 18 8
M  V30 29 1 1 26
M  V30 30 1 1 27
M  V30 31 1 2 28 CFG=1
M  V30 32 1 3 29
M  V30 33 1 3 30
M  V30 34 1 6 31
M  V30 35 1 7 32
M  V30 36 1 10 33
M  V30 37 1 12 34
M  V30 38 1 12 35
M  V30 39 1 14 36
M  V30 40 1 16 37
M  V30 41 1 17 38
M  V30 42 1 19 39
M  V30 43 1 19 40
M  V30 44 1 21 41
M  V30 45 1 22 42
M  V30 46 1 23 43
M  V30 47 1 24 44
M  V30 48 1 25 45
M  V30 END BOND
M  V30 END CTAB
M  END
>  <Dataset>  (673) 
ChEMBL_Kinases

>  <Ligand_Instance>  (673) 
nan

>  <PDB_ID>  (673) 
nan

>  <Standardized_SMILES>  (673) 
N[C@@H](COc1ccc2c(c1)OCc1cnccc1-2)Cc1ccccc1

>  <Name>  (673) 
nan

>  <Pocket>  (673) 
nan

>  <ATP_Site>  (673) 
nan

>  <Peripheral>  (673) 
nan

>  <Num_H_Atoms_ProtBoundConf>  (673) 
nan

>  <Num_Resolved_Atoms>  (673) 
nan

>  <Num_Not_Resolved_Atoms>  (673) 
nan

$$$$
CHEMBL2017337
     RDKit          3D

  0  0  0  0  0  0  0  0  0  0999 V3000
M  V30 BEGIN CTAB
M  V30 COUNTS 37 41 0 0 0
M  V30 BEGIN ATOM
M  V30 1 C 1.378729 -4.432044 0.860683 0
M  V30 2 C 2.445752 -4.998293 1.555835 0
M  V30 3 N 3.209357 -4.261949 2.370749 0
M  V30 4 C 2.970044 -2.939730 2.547797 0
M  V30 5 C 1.949470 -2.293597 1.913433 0
M  V30 6 N 1.747658 -0.902447 2.157012 0
M  V30 7 C 0.514382 -0.431398 1.574531 0
M  V30 8 N 0.485616 0.347780 0.495441 0
M  V30 9 C -0.599906 0.811345 -0.121964 0
M  V30 10 C -0.496785 1.616131 -1.223524 0
M  V30 11 C 0.743080 2.031667 -1.840594 0
M  V30 12 N 0.992603 2.802151 -2.888358 0
M  V30 13 N 2.243082 2.961144 -3.174613 0
M  V30 14 C 2.976508 2.242997 -2.257213 0
M  V30 15 N 2.014201 1.696874 -1.467197 0
M  V30 16 C -1.688005 2.041178 -1.772631 0
M  V30 17 C -2.905985 1.678813 -1.243963 0
M  V30 18 C -2.992647 0.866550 -0.130136 0
M  V30 19 C -1.807495 0.440955 0.418354 0
M  V30 20 C -1.830780 -0.357399 1.525170 0
M  V30 21 S -3.193916 -1.027911 2.482140 0
M  V30 22 C -2.129633 -1.932491 3.709909 0
M  V30 23 C -0.862771 -1.635097 3.274474 0
M  V30 24 C -0.645250 -0.851482 2.184409 0
M  V30 25 C 1.170156 -3.074409 1.072225 0
M  V30 26 H 0.711128 -4.951759 0.181064 0
M  V30 27 H 2.570593 -6.050771 1.367230 0
M  V30 28 H 3.607924 -2.361296 3.215045 0
M  V30 29 H 2.461740 -0.369859 2.696940 0
M  V30 30 H 4.036438 2.224272 -2.289488 0
M  V30 31 H 2.341762 1.097231 -0.689771 0
M  V30 32 H -1.766398 2.667370 -2.628267 0
M  V30 33 H -3.856559 2.002592 -1.661957 0
M  V30 34 H -3.922999 0.553615 0.322995 0
M  V30 35 H -2.543176 -2.480337 4.472891 0
M  V30 36 H -0.090368 -2.085683 3.879726 0
M  V30 37 H 0.360098 -2.601135 0.554595 0
M  V30 END ATOM
M  V30 BEGIN BOND
M  V30 1 2 1 2
M  V30 2 1 2 3
M  V30 3 2 3 4
M  V30 4 1 4 5
M  V30 5 1 5 6
M  V30 6 1 6 7
M  V30 7 2 7 8
M  V30 8 1 8 9
M  V30 9 2 9 10
M  V30 10 1 10 11
M  V30 11 2 11 12
M  V30 12 1 12 13
M  V30 13 2 13 14
M  V30 14 1 14 15
M  V30 15 1 10 16
M  V30 16 2 16 17
M  V30 17 1 17 18
M  V30 18 2 18 19
M  V30 19 1 19 20
M  V30 20 1 20 21
M  V30 21 1 21 22
M  V30 22 2 22 23
M  V30 23 1 23 24
M  V30 24 2 5 25
M  V30 25 1 25 1
M  V30 26 1 24 7
M  V30 27 1 19 9
M  V30 28 2 24 20
M  V30 29 1 15 11
M  V30 30 1 1 26
M  V30 31 1 2 27
M  V30 32 1 4 28
M  V30 33 1 6 29
M  V30 34 1 14 30
M  V30 35 1 15 31
M  V30 36 1 16 32
M  V30 37 1 17 33
M  V30 38 1 18 34
M  V30 39 1 22 35
M  V30 40 1 23 36
M  V30 41 1 25 37
M  V30 END BOND
M  V30 END CTAB
M  END
>  <Dataset>  (674) 
ChEMBL_Kinases

>  <Ligand_Instance>  (674) 
nan

>  <PDB_ID>  (674) 
nan

>  <Standardized_SMILES>  (674) 
c1cncc(Nc2nc3c(-c4nnc[nH]4)cccc3c3sccc23)c1

>  <Name>  (674) 
nan

>  <Pocket>  (674) 
nan

>  <ATP_Site>  (674) 
nan

>  <Peripheral>  (674) 
nan

>  <Num_H_Atoms_ProtBoundConf>  (674) 
nan

>  <Num_Resolved_Atoms>  (674) 
nan

>  <Num_Not_Resolved_Atoms>  (674) 
nan

$$$$
CHEMBL2012308
     RDKit          3D

  0  0  0  0  0  0  0  0  0  0999 V3000
M  V30 BEGIN CTAB
M  V30 COUNTS 39 41 0 0 0
M  V30 BEGIN ATOM
M  V30 1 C 0.768360 -3.934383 0.745458 0
M  V30 2 C 2.270005 -4.088602 0.940657 0
M  V30 3 C 2.562713 -4.246880 2.391696 0
M  V30 4 N 3.003882 -2.992691 0.382242 0
M  V30 5 N 4.304978 -2.946600 0.276944 0
M  V30 6 C 4.686988 -1.794831 -0.299423 0
M  V30 7 C 3.524554 -1.107381 -0.555245 0
M  V30 8 C 3.179197 0.111914 -1.122095 0
M  V30 9 N 1.912674 0.535246 -1.247637 0
M  V30 10 C 0.868081 -0.204113 -0.825714 0
M  V30 11 N -0.528763 0.015663 -0.861350 0
M  V30 12 C -1.362471 0.817785 -0.038929 0
M  V30 13 C -0.955247 1.710199 0.921716 0
M  V30 14 C -2.153063 2.188588 1.396360 0
M  V30 15 C -2.394287 3.179600 2.428391 0
M  V30 16 N -1.377370 3.879746 3.127674 0
M  V30 17 O -3.292000 3.770997 3.061197 0
M  V30 18 N -3.205527 1.620587 0.762401 0
M  V30 19 C -4.633562 1.875220 0.998517 0
M  V30 20 C -2.739636 0.753254 -0.146986 0
M  V30 21 N 1.200135 -1.373654 -0.282024 0
M  V30 22 C 2.428498 -1.868858 -0.119273 0
M  V30 23 H 0.483358 -3.755654 -0.300925 0
M  V30 24 H 0.344526 -3.135636 1.364872 0
M  V30 25 H 0.332208 -4.946298 0.995075 0
M  V30 26 H 2.539387 -4.996923 0.344512 0
M  V30 27 H 1.973468 -5.106211 2.816458 0
M  V30 28 H 3.638255 -4.497383 2.536046 0
M  V30 29 H 2.258606 -3.359853 2.939251 0
M  V30 30 H 5.679370 -1.413733 -0.544008 0
M  V30 31 H 3.954855 0.761827 -1.482281 0
M  V30 32 H -0.889490 -0.563278 -1.666243 0
M  V30 33 H 0.038778 1.983345 1.240102 0
M  V30 34 H -0.626202 3.947708 3.826483 0
M  V30 35 H -0.800403 4.715007 3.347460 0
M  V30 36 H -4.789331 2.353241 1.978876 0
M  V30 37 H -5.101199 2.434066 0.171941 0
M  V30 38 H -5.189061 0.900087 1.063100 0
M  V30 39 H -3.328298 0.138073 -0.819182 0
M  V30 END ATOM
M  V30 BEGIN BOND
M  V30 1 1 1 2
M  V30 2 1 2 3
M  V30 3 1 2 4
M  V30 4 1 4 5
M  V30 5 2 5 6
M  V30 6 1 6 7
M  V30 7 2 7 8
M  V30 8 1 8 9
M  V30 9 2 9 10
M  V30 10 1 10 11
M  V30 11 1 11 12
M  V30 12 1 12 13
M  V30 13 2 13 14
M  V30 14 1 14 15
M  V30 15 1 15 16
M  V30 16 2 15 17
M  V30 17 1 14 18
M  V30 18 1 18 19
M  V30 19 1 18 20
M  V30 20 1 10 21
M  V30 21 2 21 22
M  V30 22 1 22 4
M  V30 23 1 22 7
M  V30 24 2 20 12
M  V30 25 1 1 23
M  V30 26 1 1 24
M  V30 27 1 1 25
M  V30 28 1 2 26
M  V30 29 1 3 27
M  V30 30 1 3 28
M  V30 31 1 3 29
M  V30 32 1 6 30
M  V30 33 1 8 31
M  V30 34 1 11 32
M  V30 35 1 13 33
M  V30 36 1 16 34
M  V30 37 1 16 35
M  V30 38 1 19 36
M  V30 39 1 19 37
M  V30 40 1 19 38
M  V30 41 1 20 39
M  V30 END BOND
M  V30 END CTAB
M  END
>  <Dataset>  (675) 
ChEMBL_Kinases

>  <Ligand_Instance>  (675) 
nan

>  <PDB_ID>  (675) 
nan

>  <Standardized_SMILES>  (675) 
CC(C)n1ncc2cnc(Nc3cc(C(N)=O)n(C)c3)nc21

>  <Name>  (675) 
nan

>  <Pocket>  (675) 
nan

>  <ATP_Site>  (675) 
nan

>  <Peripheral>  (675) 
nan

>  <Num_H_Atoms_ProtBoundConf>  (675) 
nan

>  <Num_Resolved_Atoms>  (675) 
nan

>  <Num_Not_Resolved_Atoms>  (675) 
nan

$$$$
CHEMBL200946
     RDKit          3D

  0  0  0  0  0  0  0  0  0  0999 V3000
M  V30 BEGIN CTAB
M  V30 COUNTS 38 41 0 0 0
M  V30 BEGIN ATOM
M  V30 1 O 1.556571 -5.188406 3.940585 0
M  V30 2 C 2.705537 -4.800479 3.639743 0
M  V30 3 O 3.797699 -5.510625 4.103219 0
M  V30 4 C 2.892013 -3.622152 2.816136 0
M  V30 5 C 4.162278 -3.200883 2.488754 0
M  V30 6 C 4.343548 -2.085135 1.708825 0
M  V30 7 C 3.310644 -1.333806 1.215258 0
M  V30 8 N 3.557984 -0.190332 0.414276 0
M  V30 9 C 2.623907 0.699923 -0.178552 0
M  V30 10 N 3.048330 1.740343 -0.912788 0
M  V30 11 C 2.217646 2.613716 -1.496730 0
M  V30 12 C 0.854015 2.479836 -1.366516 0
M  V30 13 C 0.399401 1.437320 -0.630002 0
M  V30 14 C -1.013259 1.173040 -0.407860 0
M  V30 15 C -2.099984 1.831118 -0.835250 0
M  V30 16 C -3.351368 1.386712 -0.492395 0
M  V30 17 C -4.584351 1.913126 -0.824338 0
M  V30 18 C -5.720474 1.310922 -0.375028 0
M  V30 19 C -5.774647 0.182338 0.410330 0
M  V30 20 C -4.567388 -0.357046 0.751987 0
M  V30 21 C -3.403670 0.254465 0.295457 0
M  V30 22 S -1.650367 -0.183488 0.551747 0
M  V30 23 N 1.293356 0.608944 -0.079036 0
M  V30 24 C 2.069911 -1.804282 1.576006 0
M  V30 25 C 1.813689 -2.903532 2.346526 0
M  V30 26 H 3.666869 -6.501167 4.290848 0
M  V30 27 H 5.017772 -3.757977 2.852265 0
M  V30 28 H 5.385881 -1.812992 1.491285 0
M  V30 29 H 4.565592 0.026306 0.236285 0
M  V30 30 H 2.621504 3.433256 -2.076990 0
M  V30 31 H 0.132336 3.142215 -1.806885 0
M  V30 32 H -1.928377 2.723435 -1.459714 0
M  V30 33 H -4.695687 2.810353 -1.444480 0
M  V30 34 H -6.689626 1.748625 -0.652550 0
M  V30 35 H -6.669328 -0.300930 0.770439 0
M  V30 36 H -4.435702 -1.245290 1.365343 0
M  V30 37 H 1.180348 -1.293391 1.245532 0
M  V30 38 H 0.842116 -3.245213 2.610448 0
M  V30 END ATOM
M  V30 BEGIN BOND
M  V30 1 2 1 2
M  V30 2 1 2 3
M  V30 3 1 2 4
M  V30 4 2 4 5
M  V30 5 1 5 6
M  V30 6 2 6 7
M  V30 7 1 7 8
M  V30 8 1 8 9
M  V30 9 2 9 10
M  V30 10 1 10 11
M  V30 11 2 11 12
M  V30 12 1 12 13
M  V30 13 1 13 14
M  V30 14 2 14 15
M  V30 15 1 15 16
M  V30 16 2 16 17
M  V30 17 1 17 18
M  V30 18 2 18 19
M  V30 19 1 19 20
M  V30 20 2 20 21
M  V30 21 1 21 22
M  V30 22 2 13 23
M  V30 23 1 7 24
M  V30 24 2 24 25
M  V30 25 1 25 4
M  V30 26 1 23 9
M  V30 27 1 22 14
M  V30 28 1 21 16
M  V30 29 1 3 26
M  V30 30 1 5 27
M  V30 31 1 6 28
M  V30 32 1 8 29
M  V30 33 1 11 30
M  V30 34 1 12 31
M  V30 35 1 15 32
M  V30 36 1 17 33
M  V30 37 1 18 34
M  V30 38 1 19 35
M  V30 39 1 20 36
M  V30 40 1 24 37
M  V30 41 1 25 38
M  V30 END BOND
M  V30 END CTAB
M  END
>  <Dataset>  (676) 
ChEMBL_Kinases

>  <Ligand_Instance>  (676) 
nan

>  <PDB_ID>  (676) 
nan

>  <Standardized_SMILES>  (676) 
O=C(O)c1ccc(Nc2nccc(-c3cc4ccccc4s3)n2)cc1

>  <Name>  (676) 
nan

>  <Pocket>  (676) 
nan

>  <ATP_Site>  (676) 
nan

>  <Peripheral>  (676) 
nan

>  <Num_H_Atoms_ProtBoundConf>  (676) 
nan

>  <Num_Resolved_Atoms>  (676) 
nan

>  <Num_Not_Resolved_Atoms>  (676) 
nan

$$$$
CHEMBL200832
     RDKit          3D

  0  0  0  0  0  0  0  0  0  0999 V3000
M  V30 BEGIN CTAB
M  V30 COUNTS 53 56 0 0 0
M  V30 BEGIN ATOM
M  V30 1 C 2.809449 -1.204985 3.568891 0
M  V30 2 N 4.211823 -1.306253 3.520702 0
M  V30 3 C 4.774150 -2.590249 3.711744 0
M  V30 4 C 5.001566 -0.260619 3.053042 0
M  V30 5 C 4.982230 0.107526 1.615726 0
M  V30 6 N 3.694165 0.520221 1.146862 0
M  V30 7 C 3.364869 0.933535 -0.174357 0
M  V30 8 O 4.327202 0.940648 -1.020802 0
M  V30 9 C 2.035738 1.336997 -0.613332 0
M  V30 10 C 0.916457 1.268145 0.186479 0
M  V30 11 C -0.320705 1.664623 -0.305180 0
M  V30 12 C -0.509118 2.139819 -1.589554 0
M  V30 13 N -1.792177 2.512845 -2.095431 0
M  V30 14 C -2.834768 2.271809 -1.121697 0
M  V30 15 N -3.575563 3.112023 -0.339388 0
M  V30 16 C -4.456526 2.537633 0.494625 0
M  V30 17 C -4.683496 1.169668 0.635982 0
M  V30 18 C -3.913929 0.371019 -0.172000 0
M  V30 19 C -4.014926 -1.091366 -0.130340 0
M  V30 20 C -3.366472 -2.033970 -0.814845 0
M  V30 21 C -3.668952 -3.342962 -0.546417 0
M  V30 22 C -3.106066 -4.452292 -1.145295 0
M  V30 23 C -3.471625 -5.729436 -0.807704 0
M  V30 24 C -4.429582 -5.986325 0.155359 0
M  V30 25 C -5.012622 -4.901080 0.772997 0
M  V30 26 C -4.607792 -3.623419 0.396097 0
M  V30 27 S -5.099768 -1.968238 0.941712 0
M  V30 28 N -3.028669 0.941338 -1.011675 0
M  V30 29 C 0.629853 2.206113 -2.389697 0
M  V30 30 C 1.840460 1.804878 -1.868396 0
M  V30 31 H 2.490292 -0.206290 3.950176 0
M  V30 32 H 2.261202 -1.533649 2.675087 0
M  V30 33 H 2.448140 -1.912591 4.387369 0
M  V30 34 H 5.783516 -2.747711 3.346835 0
M  V30 35 H 4.812884 -2.765536 4.823343 0
M  V30 36 H 4.105133 -3.425289 3.353055 0
M  V30 37 H 6.070715 -0.463017 3.358395 0
M  V30 38 H 4.721748 0.675294 3.631645 0
M  V30 39 H 5.390396 -0.725682 0.961797 0
M  V30 40 H 5.758276 0.916636 1.484160 0
M  V30 41 H 2.861156 0.561795 1.760659 0
M  V30 42 H 0.974541 0.912008 1.197669 0
M  V30 43 H -1.164311 1.581666 0.384803 0
M  V30 44 H -1.853710 2.895554 -3.044286 0
M  V30 45 H -5.014101 3.246995 1.086537 0
M  V30 46 H -5.404140 0.766089 1.324949 0
M  V30 47 H -2.636417 -1.683426 -1.545044 0
M  V30 48 H -2.333505 -4.416545 -1.925071 0
M  V30 49 H -3.047068 -6.603657 -1.263703 0
M  V30 50 H -4.768819 -6.964523 0.472122 0
M  V30 51 H -5.778435 -4.931376 1.547451 0
M  V30 52 H 0.532971 2.569163 -3.392855 0
M  V30 53 H 2.680394 1.892467 -2.561599 0
M  V30 END ATOM
M  V30 BEGIN BOND
M  V30 1 1 1 2
M  V30 2 1 2 3
M  V30 3 1 2 4
M  V30 4 1 4 5
M  V30 5 1 5 6
M  V30 6 1 6 7
M  V30 7 2 7 8
M  V30 8 1 7 9
M  V30 9 2 9 10
M  V30 10 1 10 11
M  V30 11 2 11 12
M  V30 12 1 12 13
M  V30 13 1 13 14
M  V30 14 2 14 15
M  V30 15 1 15 16
M  V30 16 2 16 17
M  V30 17 1 17 18
M  V30 18 1 18 19
M  V30 19 2 19 20
M  V30 20 1 20 21
M  V30 21 2 21 22
M  V30 22 1 22 23
M  V30 23 2 23 24
M  V30 24 1 24 25
M  V30 25 2 25 26
M  V30 26 1 26 27
M  V30 27 2 18 28
M  V30 28 1 12 29
M  V30 29 2 29 30
M  V30 30 1 30 9
M  V30 31 1 28 14
M  V30 32 1 27 19
M  V30 33 1 26 21
M  V30 34 1 1 31
M  V30 35 1 1 32
M  V30 36 1 1 33
M  V30 37 1 3 34
M  V30 38 1 3 35
M  V30 39 1 3 36
M  V30 40 1 4 37
M  V30 41 1 4 38
M  V30 42 1 5 39
M  V30 43 1 5 40
M  V30 44 1 6 41
M  V30 45 1 10 42
M  V30 46 1 11 43
M  V30 47 1 13 44
M  V30 48 1 16 45
M  V30 49 1 17 46
M  V30 50 1 20 47
M  V30 51 1 22 48
M  V30 52 1 23 49
M  V30 53 1 24 50
M  V30 54 1 25 51
M  V30 55 1 29 52
M  V30 56 1 30 53
M  V30 END BOND
M  V30 END CTAB
M  END
>  <Dataset>  (677) 
ChEMBL_Kinases

>  <Ligand_Instance>  (677) 
nan

>  <PDB_ID>  (677) 
nan

>  <Standardized_SMILES>  (677) 
CN(C)CCNC(=O)c1ccc(Nc2nccc(-c3cc4ccccc4s3)n2)cc1

>  <Name>  (677) 
nan

>  <Pocket>  (677) 
nan

>  <ATP_Site>  (677) 
nan

>  <Peripheral>  (677) 
nan

>  <Num_H_Atoms_ProtBoundConf>  (677) 
nan

>  <Num_Resolved_Atoms>  (677) 
nan

>  <Num_Not_Resolved_Atoms>  (677) 
nan

$$$$
CHEMBL4744403
     RDKit          3D

  0  0  0  0  0  0  0  0  0  0999 V3000
M  V30 BEGIN CTAB
M  V30 COUNTS 60 63 0 0 0
M  V30 BEGIN ATOM
M  V30 1 C 1.409496 -4.055983 3.377692 0
M  V30 2 C 2.388440 -2.966530 3.436782 0
M  V30 3 O 2.435809 -2.259855 4.468630 0
M  V30 4 N 3.284674 -2.665882 2.394444 0
M  V30 5 C 4.231037 -1.595638 2.478244 0
M  V30 6 C 4.443934 -0.809589 1.233441 0
M  V30 7 N 3.930878 -1.415815 0.025378 0
M  V30 8 C 2.509680 -1.115371 -0.124073 0 CFG=1
M  V30 9 C 2.273758 0.378759 -0.184971 0
M  V30 10 C 0.931422 0.628572 -0.806712 0
M  V30 11 C 0.008202 -0.524783 -0.452472 0 CFG=1
M  V30 12 N -1.393974 -0.172768 -0.532145 0
M  V30 13 C -1.812996 0.817866 0.392534 0
M  V30 14 N -0.912941 1.313259 1.256920 0
M  V30 15 C -1.261226 2.258740 2.178761 0
M  V30 16 N -2.530664 2.697983 2.216809 0
M  V30 17 N -3.437346 2.228782 1.378454 0
M  V30 18 C -4.737501 2.545814 1.272961 0
M  V30 19 C -5.210579 1.763924 0.241878 0
M  V30 20 C -4.189778 0.962137 -0.287364 0
M  V30 21 C -4.412117 0.050807 -1.410304 0
M  V30 22 C -4.573816 -1.352432 -0.863666 0
M  V30 23 C -5.744246 0.353350 -2.105786 0
M  V30 24 C -3.098514 1.299844 0.470864 0
M  V30 25 C 0.423941 -1.673161 -1.322326 0
M  V30 26 C 1.953277 -1.657552 -1.421014 0
M  V30 27 C 4.159349 -2.825598 0.125734 0
M  V30 28 C 3.258918 -3.464517 1.181160 0
M  V30 29 H 0.425067 -3.684945 3.745285 0
M  V30 30 H 1.684580 -4.874946 4.078065 0
M  V30 31 H 1.258382 -4.489325 2.379282 0
M  V30 32 H 5.185300 -2.066706 2.855638 0
M  V30 33 H 3.921482 -0.943377 3.346312 0
M  V30 34 H 4.141146 0.249877 1.354668 0
M  V30 35 H 5.560618 -0.749588 1.068506 0
M  V30 36 H 1.996357 -1.614399 0.699646 0
M  V30 37 H 3.074339 0.805923 -0.825839 0
M  V30 38 H 2.281132 0.871347 0.807214 0
M  V30 39 H 1.032610 0.582628 -1.931893 0
M  V30 40 H 0.564220 1.612575 -0.540710 0
M  V30 41 H 0.134177 -0.786093 0.647943 0
M  V30 42 H -1.793879 -0.745401 -1.268126 0
M  V30 43 H -0.478389 2.618875 2.852430 0
M  V30 44 H -5.318243 3.256485 1.855470 0
M  V30 45 H -6.240957 1.794805 -0.085259 0
M  V30 46 H -3.673094 0.034576 -2.200784 0
M  V30 47 H -5.601570 -1.419820 -0.427127 0
M  V30 48 H -3.878790 -1.463790 0.004668 0
M  V30 49 H -4.405613 -2.131176 -1.632407 0
M  V30 50 H -5.731685 1.398047 -2.441688 0
M  V30 51 H -5.861630 -0.351338 -2.936327 0
M  V30 52 H -6.551482 0.188420 -1.371632 0
M  V30 53 H 0.046118 -2.655200 -0.986319 0
M  V30 54 H 0.063655 -1.469024 -2.347320 0
M  V30 55 H 2.341488 -2.655712 -1.671274 0
M  V30 56 H 2.289059 -0.983237 -2.263004 0
M  V30 57 H 4.058882 -3.332758 -0.850560 0
M  V30 58 H 5.198016 -2.988902 0.487753 0
M  V30 59 H 3.676844 -4.460293 1.440382 0
M  V30 60 H 2.231418 -3.636857 0.802023 0
M  V30 END ATOM
M  V30 BEGIN BOND
M  V30 1 1 1 2
M  V30 2 2 2 3
M  V30 3 1 2 4
M  V30 4 1 4 5
M  V30 5 1 5 6
M  V30 6 1 6 7
M  V30 7 1 7 8
M  V30 8 1 8 9
M  V30 9 1 9 10
M  V30 10 1 10 11
M  V30 11 1 11 12
M  V30 12 1 12 13
M  V30 13 2 13 14
M  V30 14 1 14 15
M  V30 15 2 15 16
M  V30 16 1 16 17
M  V30 17 1 17 18
M  V30 18 2 18 19
M  V30 19 1 19 20
M  V30 20 1 20 21
M  V30 21 1 21 22
M  V30 22 1 21 23
M  V30 23 2 20 24
M  V30 24 1 11 25
M  V30 25 1 25 26
M  V30 26 1 7 27
M  V30 27 1 27 28
M  V30 28 1 28 4
M  V30 29 1 26 8
M  V30 30 1 24 13
M  V30 31 1 24 17
M  V30 32 1 1 29
M  V30 33 1 1 30
M  V30 34 1 1 31
M  V30 35 1 5 32
M  V30 36 1 5 33
M  V30 37 1 6 34
M  V30 38 1 6 35
M  V30 39 1 8 36 CFG=1
M  V30 40 1 9 37
M  V30 41 1 9 38
M  V30 42 1 10 39
M  V30 43 1 10 40
M  V30 44 1 11 41 CFG=1
M  V30 45 1 12 42
M  V30 46 1 15 43
M  V30 47 1 18 44
M  V30 48 1 19 45
M  V30 49 1 21 46
M  V30 50 1 22 47
M  V30 51 1 22 48
M  V30 52 1 22 49
M  V30 53 1 23 50
M  V30 54 1 23 51
M  V30 55 1 23 52
M  V30 56 1 25 53
M  V30 57 1 25 54
M  V30 58 1 26 55
M  V30 59 1 26 56
M  V30 60 1 27 57
M  V30 61 1 27 58
M  V30 62 1 28 59
M  V30 63 1 28 60
M  V30 END BOND
M  V30 END CTAB
M  END
>  <Dataset>  (678) 
ChEMBL_Kinases

>  <Ligand_Instance>  (678) 
nan

>  <PDB_ID>  (678) 
nan

>  <Standardized_SMILES>  (678) 
CC(=O)N1CCN([C@H]2CC[C@@H](Nc3ncnn4ccc(C(C)C)c34)CC2)CC1

>  <Name>  (678) 
nan

>  <Pocket>  (678) 
nan

>  <ATP_Site>  (678) 
nan

>  <Peripheral>  (678) 
nan

>  <Num_H_Atoms_ProtBoundConf>  (678) 
nan

>  <Num_Resolved_Atoms>  (678) 
nan

>  <Num_Not_Resolved_Atoms>  (678) 
nan

$$$$
CHEMBL2006299
     RDKit          3D

  0  0  0  0  0  0  0  0  0  0999 V3000
M  V30 BEGIN CTAB
M  V30 COUNTS 42 44 0 0 0
M  V30 BEGIN ATOM
M  V30 1 C 0.185073 -7.308254 -1.287047 0
M  V30 2 O 0.169716 -5.952697 -1.685027 0
M  V30 3 C 1.228373 -5.120580 -1.467830 0
M  V30 4 C 2.445229 -5.404139 -0.861834 0
M  V30 5 C 3.375478 -4.381675 -0.754195 0
M  V30 6 C 3.140922 -3.106343 -1.221413 0
M  V30 7 C 1.935149 -2.822548 -1.822781 0
M  V30 8 C 1.677357 -1.438751 -2.323619 0
M  V30 9 N 1.041608 -0.596457 -1.358633 0
M  V30 10 C 1.598187 0.048940 -0.226086 0
M  V30 11 O 2.834515 -0.142150 -0.034606 0
M  V30 12 C 0.845810 0.889872 0.694156 0
M  V30 13 C -0.497134 1.196558 0.620016 0
M  V30 14 C -1.147595 2.003132 1.529077 0
M  V30 15 C -0.449361 2.552092 2.584730 0
M  V30 16 C -1.223805 3.390581 3.491534 0
M  V30 17 C -0.923264 3.493349 4.840866 0
M  V30 18 C -1.644771 4.280667 5.712221 0
M  V30 19 N -2.683132 4.973377 5.214906 0
M  V30 20 C -3.025038 4.914304 3.909681 0
M  V30 21 C -2.300819 4.124445 3.037126 0
M  V30 22 C 0.896948 2.273278 2.700169 0
M  V30 23 C 1.510006 1.460769 1.768349 0
M  V30 24 C 0.995703 -3.822192 -1.940969 0
M  V30 25 H 0.858436 -7.518844 -0.436042 0
M  V30 26 H -0.861209 -7.658910 -1.043701 0
M  V30 27 H 0.490706 -7.974096 -2.134803 0
M  V30 28 H 2.560109 -6.419030 -0.521301 0
M  V30 29 H 4.290804 -4.695847 -0.269159 0
M  V30 30 H 3.945074 -2.405024 -1.079726 0
M  V30 31 H 1.024384 -1.511684 -3.215382 0
M  V30 32 H 2.657150 -0.953494 -2.615059 0
M  V30 33 H 0.001184 -0.393567 -1.459036 0
M  V30 34 H -1.054482 0.776828 -0.195977 0
M  V30 35 H -2.211319 2.178333 1.373765 0
M  V30 36 H -0.078029 2.918728 5.200163 0
M  V30 37 H -1.321162 4.286518 6.748850 0
M  V30 38 H -3.864347 5.485108 3.553372 0
M  V30 39 H -2.606040 4.103112 1.997040 0
M  V30 40 H 1.398563 2.721918 3.536799 0
M  V30 41 H 2.572137 1.269031 1.900767 0
M  V30 42 H 0.077778 -3.507203 -2.427646 0
M  V30 END ATOM
M  V30 BEGIN BOND
M  V30 1 1 1 2
M  V30 2 1 2 3
M  V30 3 2 3 4
M  V30 4 1 4 5
M  V30 5 2 5 6
M  V30 6 1 6 7
M  V30 7 1 7 8
M  V30 8 1 8 9
M  V30 9 1 9 10
M  V30 10 2 10 11
M  V30 11 1 10 12
M  V30 12 2 12 13
M  V30 13 1 13 14
M  V30 14 2 14 15
M  V30 15 1 15 16
M  V30 16 2 16 17
M  V30 17 1 17 18
M  V30 18 2 18 19
M  V30 19 1 19 20
M  V30 20 2 20 21
M  V30 21 1 15 22
M  V30 22 2 22 23
M  V30 23 2 7 24
M  V30 24 1 24 3
M  V30 25 1 23 12
M  V30 26 1 21 16
M  V30 27 1 1 25
M  V30 28 1 1 26
M  V30 29 1 1 27
M  V30 30 1 4 28
M  V30 31 1 5 29
M  V30 32 1 6 30
M  V30 33 1 8 31
M  V30 34 1 8 32
M  V30 35 1 9 33
M  V30 36 1 13 34
M  V30 37 1 14 35
M  V30 38 1 17 36
M  V30 39 1 18 37
M  V30 40 1 20 38
M  V30 41 1 21 39
M  V30 42 1 22 40
M  V30 43 1 23 41
M  V30 44 1 24 42
M  V30 END BOND
M  V30 END CTAB
M  END
>  <Dataset>  (679) 
ChEMBL_Kinases

>  <Ligand_Instance>  (679) 
nan

>  <PDB_ID>  (679) 
nan

>  <Standardized_SMILES>  (679) 
COc1cccc(CNC(=O)c2ccc(-c3ccncc3)cc2)c1

>  <Name>  (679) 
nan

>  <Pocket>  (679) 
nan

>  <ATP_Site>  (679) 
nan

>  <Peripheral>  (679) 
nan

>  <Num_H_Atoms_ProtBoundConf>  (679) 
nan

>  <Num_Resolved_Atoms>  (679) 
nan

>  <Num_Not_Resolved_Atoms>  (679) 
nan

$$$$
CHEMBL200528
     RDKit          3D

  0  0  0  0  0  0  0  0  0  0999 V3000
M  V30 BEGIN CTAB
M  V30 COUNTS 41 44 0 0 0
M  V30 BEGIN ATOM
M  V30 1 C -0.193253 -3.981527 1.571482 0
M  V30 2 C 1.229970 -3.933913 1.973074 0
M  V30 3 O 1.647699 -4.882751 2.705960 0
M  V30 4 C 2.164805 -2.886056 1.587393 0
M  V30 5 C 3.457948 -3.002861 2.054019 0
M  V30 6 C 4.363500 -2.011460 1.694673 0
M  V30 7 C 3.933018 -0.978671 0.904103 0
M  V30 8 C 2.645959 -0.842980 0.427152 0
M  V30 9 C 2.335954 0.313413 -0.407230 0
M  V30 10 C 3.124844 0.770333 -1.442933 0
M  V30 11 N 2.527690 1.854156 -1.988622 0
M  V30 12 C 1.370004 2.097390 -1.318516 0
M  V30 13 C 0.341275 3.005776 -1.366348 0
M  V30 14 C -0.695861 2.902180 -0.466506 0
M  V30 15 C -0.785474 1.924758 0.511854 0
M  V30 16 N -1.864107 1.859030 1.433410 0
M  V30 17 C -2.015581 0.819909 2.421710 0
M  V30 18 C -2.378539 -0.518359 1.891648 0
M  V30 19 C -3.636504 -0.771928 1.144363 0
M  V30 20 C -2.323493 -0.733327 0.419671 0
M  V30 21 N 0.269353 1.067490 0.491872 0
M  V30 22 N 1.269114 1.156787 -0.365695 0
M  V30 23 C 1.750451 -1.840178 0.793146 0
M  V30 24 H -0.790770 -3.578585 2.418804 0
M  V30 25 H -0.511569 -5.056057 1.481352 0
M  V30 26 H -0.371815 -3.451079 0.618072 0
M  V30 27 H 3.787477 -3.821064 2.677506 0
M  V30 28 H 5.373332 -2.115942 2.068341 0
M  V30 29 H 4.707111 -0.265798 0.683129 0
M  V30 30 H 4.065819 0.406532 -1.832370 0
M  V30 31 H 0.383519 3.779138 -2.118034 0
M  V30 32 H -1.493573 3.642086 -0.537440 0
M  V30 33 H -2.571728 2.615086 1.371227 0
M  V30 34 H -2.705762 1.158312 3.249781 0
M  V30 35 H -1.028955 0.687572 2.963381 0
M  V30 36 H -2.009425 -1.403195 2.495512 0
M  V30 37 H -4.118790 -1.757991 1.238543 0
M  V30 38 H -4.336176 0.062023 0.939762 0
M  V30 39 H -1.945804 -1.728622 0.040255 0
M  V30 40 H -2.160575 0.085332 -0.296847 0
M  V30 41 H 0.741750 -1.741010 0.424425 0
M  V30 END ATOM
M  V30 BEGIN BOND
M  V30 1 1 1 2
M  V30 2 2 2 3
M  V30 3 1 2 4
M  V30 4 2 4 5
M  V30 5 1 5 6
M  V30 6 2 6 7
M  V30 7 1 7 8
M  V30 8 1 8 9
M  V30 9 2 9 10
M  V30 10 1 10 11
M  V30 11 2 11 12
M  V30 12 1 12 13
M  V30 13 2 13 14
M  V30 14 1 14 15
M  V30 15 1 15 16
M  V30 16 1 16 17
M  V30 17 1 17 18
M  V30 18 1 18 19
M  V30 19 1 19 20
M  V30 20 2 15 21
M  V30 21 1 21 22
M  V30 22 2 8 23
M  V30 23 1 23 4
M  V30 24 1 22 9
M  V30 25 1 22 12
M  V30 26 1 20 18
M  V30 27 1 1 24
M  V30 28 1 1 25
M  V30 29 1 1 26
M  V30 30 1 5 27
M  V30 31 1 6 28
M  V30 32 1 7 29
M  V30 33 1 10 30
M  V30 34 1 13 31
M  V30 35 1 14 32
M  V30 36 1 16 33
M  V30 37 1 17 34
M  V30 38 1 17 35
M  V30 39 1 18 36
M  V30 40 1 19 37
M  V30 41 1 19 38
M  V30 42 1 20 39
M  V30 43 1 20 40
M  V30 44 1 23 41
M  V30 END BOND
M  V30 END CTAB
M  END
>  <Dataset>  (680) 
ChEMBL_Kinases

>  <Ligand_Instance>  (680) 
nan

>  <PDB_ID>  (680) 
nan

>  <Standardized_SMILES>  (680) 
CC(=O)c1cccc(-c2cnc3ccc(NCC4CC4)nn23)c1

>  <Name>  (680) 
nan

>  <Pocket>  (680) 
nan

>  <ATP_Site>  (680) 
nan

>  <Peripheral>  (680) 
nan

>  <Num_H_Atoms_ProtBoundConf>  (680) 
nan

>  <Num_Resolved_Atoms>  (680) 
nan

>  <Num_Not_Resolved_Atoms>  (680) 
nan

$$$$
CHEMBL2005186
     RDKit          3D

  0  0  0  0  0  0  0  0  0  0999 V3000
M  V30 BEGIN CTAB
M  V30 COUNTS 58 62 0 0 0
M  V30 BEGIN ATOM
M  V30 1 C 5.596001 -0.190857 1.517521 0
M  V30 2 C 5.097041 0.663766 2.659218 0
M  V30 3 C 6.277402 1.008755 3.535495 0
M  V30 4 N 4.410479 1.809907 2.143623 0
M  V30 5 C 3.047127 2.181183 2.416095 0
M  V30 6 O 2.595895 1.300082 3.189671 0
M  V30 7 C 2.695672 3.449437 1.688399 0
M  V30 8 O 1.353468 3.755470 1.995800 0
M  V30 9 C 0.368356 2.855940 1.638855 0
M  V30 10 C -0.886756 3.328275 2.035750 0
M  V30 11 C -2.031006 2.566518 1.769284 0
M  V30 12 C -1.838821 1.366432 1.114094 0
M  V30 13 C -0.609645 0.889323 0.717510 0
M  V30 14 C -0.423929 -0.379380 0.027222 0
M  V30 15 N -1.420502 -1.205875 -0.296862 0
M  V30 16 C -1.349845 -2.367230 -0.916201 0
M  V30 17 N -2.421997 -3.219873 -1.249853 0
M  V30 18 C -3.805259 -3.020358 -1.037516 0
M  V30 19 C -4.323056 -1.843903 -0.547318 0
M  V30 20 C -5.643085 -1.591169 -0.317028 0
M  V30 21 C -6.586049 -2.573195 -0.584150 0
M  V30 22 N -7.921462 -2.668220 -0.481706 0
M  V30 23 N -8.309178 -3.884415 -0.893204 0
M  V30 24 C -7.217400 -4.578211 -1.263389 0
M  V30 25 C -6.119037 -3.769636 -1.076554 0
M  V30 26 C -4.781495 -3.959904 -1.285494 0
M  V30 27 C -0.072453 -2.747516 -1.258832 0
M  V30 28 C 0.261648 -3.902811 -1.905901 0
M  V30 29 C 1.521078 -4.296446 -2.254776 0
M  V30 30 C 2.593258 -3.463357 -1.935398 0
M  V30 31 C 2.320589 -2.282751 -1.281932 0
M  V30 32 C 1.021233 -1.956734 -0.964303 0
M  V30 33 N 0.811940 -0.783666 -0.323311 0
M  V30 34 C 0.488816 1.666097 0.997340 0
M  V30 35 H 6.673081 0.032931 1.376798 0
M  V30 36 H 5.041340 0.093168 0.585266 0
M  V30 37 H 5.447024 -1.277289 1.767681 0
M  V30 38 H 4.410585 0.062514 3.309721 0
M  V30 39 H 6.040039 1.762070 4.316466 0
M  V30 40 H 6.512910 0.072240 4.118131 0
M  V30 41 H 7.195363 1.230678 2.955043 0
M  V30 42 H 5.135280 2.296606 1.533701 0
M  V30 43 H 3.382904 4.275232 2.034001 0
M  V30 44 H 2.870007 3.284041 0.614186 0
M  V30 45 H -1.090485 4.276231 2.559572 0
M  V30 46 H -3.035551 2.894412 2.060448 0
M  V30 47 H -2.720723 0.801452 0.920645 0
M  V30 48 H -2.271998 -4.134175 -1.713912 0
M  V30 49 H -3.715923 -0.991246 -0.296425 0
M  V30 50 H -6.047700 -0.672937 0.065449 0
M  V30 51 H -8.543982 -1.890606 -0.128703 0
M  V30 52 H -7.204859 -5.594836 -1.642501 0
M  V30 53 H -4.487759 -4.926340 -1.674700 0
M  V30 54 H -0.497032 -4.596752 -2.188334 0
M  V30 55 H 1.749954 -5.218856 -2.767237 0
M  V30 56 H 3.594208 -3.735225 -2.191197 0
M  V30 57 H 3.141257 -1.604924 -1.016268 0
M  V30 58 H 1.467637 1.368082 0.717287 0
M  V30 END ATOM
M  V30 BEGIN BOND
M  V30 1 1 1 2
M  V30 2 1 2 3
M  V30 3 1 2 4
M  V30 4 1 4 5
M  V30 5 2 5 6
M  V30 6 1 5 7
M  V30 7 1 7 8
M  V30 8 1 8 9
M  V30 9 2 9 10
M  V30 10 1 10 11
M  V30 11 2 11 12
M  V30 12 1 12 13
M  V30 13 1 13 14
M  V30 14 2 14 15
M  V30 15 1 15 16
M  V30 16 1 16 17
M  V30 17 1 17 18
M  V30 18 2 18 19
M  V30 19 1 19 20
M  V30 20 2 20 21
M  V30 21 1 21 22
M  V30 22 1 22 23
M  V30 23 2 23 24
M  V30 24 1 24 25
M  V30 25 2 25 26
M  V30 26 2 16 27
M  V30 27 1 27 28
M  V30 28 2 28 29
M  V30 29 1 29 30
M  V30 30 2 30 31
M  V30 31 1 31 32
M  V30 32 2 32 33
M  V30 33 2 13 34
M  V30 34 1 34 9
M  V30 35 1 33 14
M  V30 36 1 26 18
M  V30 37 1 32 27
M  V30 38 1 25 21
M  V30 39 1 1 35
M  V30 40 1 1 36
M  V30 41 1 1 37
M  V30 42 1 2 38
M  V30 43 1 3 39
M  V30 44 1 3 40
M  V30 45 1 3 41
M  V30 46 1 4 42
M  V30 47 1 7 43
M  V30 48 1 7 44
M  V30 49 1 10 45
M  V30 50 1 11 46
M  V30 51 1 12 47
M  V30 52 1 17 48
M  V30 53 1 19 49
M  V30 54 1 20 50
M  V30 55 1 22 51
M  V30 56 1 24 52
M  V30 57 1 26 53
M  V30 58 1 28 54
M  V30 59 1 29 55
M  V30 60 1 30 56
M  V30 61 1 31 57
M  V30 62 1 34 58
M  V30 END BOND
M  V30 END CTAB
M  END
>  <Dataset>  (681) 
ChEMBL_Kinases

>  <Ligand_Instance>  (681) 
nan

>  <PDB_ID>  (681) 
nan

>  <Standardized_SMILES>  (681) 
CC(C)NC(=O)COc1cccc(-c2nc(Nc3ccc4[nH]ncc4c3)c3ccccc3n2)c1

>  <Name>  (681) 
BELUMOSUDIL

>  <Pocket>  (681) 
nan

>  <ATP_Site>  (681) 
nan

>  <Peripheral>  (681) 
nan

>  <Num_H_Atoms_ProtBoundConf>  (681) 
nan

>  <Num_Resolved_Atoms>  (681) 
nan

>  <Num_Not_Resolved_Atoms>  (681) 
nan

$$$$
CHEMBL4744511
     RDKit          3D

  0  0  0  0  0  0  0  0  0  0999 V3000
M  V30 BEGIN CTAB
M  V30 COUNTS 38 40 0 0 0
M  V30 BEGIN ATOM
M  V30 1 C -1.027098 -5.479398 2.463386 0
M  V30 2 O 0.352487 -5.535587 2.214586 0
M  V30 3 C 0.999284 -4.550348 1.460526 0
M  V30 4 C 2.361701 -4.850163 1.379559 0
M  V30 5 C 3.165759 -3.951734 0.656542 0
M  V30 6 N 2.574377 -2.874638 0.093929 0
M  V30 7 C 1.278407 -2.599939 0.170284 0
M  V30 8 N 0.716559 -1.426947 -0.437398 0
M  V30 9 C -0.654430 -1.314783 -0.851858 0
M  V30 10 O -1.443365 -2.305525 -0.688203 0
M  V30 11 C -1.297607 -0.129631 -1.478712 0
M  V30 12 C -0.653801 1.126561 -0.999450 0
M  V30 13 C 0.140657 2.007035 -1.703972 0
M  V30 14 C 0.659521 3.106675 -1.030778 0
M  V30 15 C 0.371686 3.293790 0.328412 0
M  V30 16 C 0.909343 4.408895 0.934264 0
M  V30 17 C 0.595573 4.583066 2.294261 0
M  V30 18 C -0.210491 3.699849 3.038028 0
M  V30 19 C -0.701663 2.615007 2.350346 0
M  V30 20 C -0.421848 2.403538 1.013679 0
M  V30 21 C -0.955441 1.292725 0.358188 0
M  V30 22 C 0.385797 -3.438499 0.879846 0
M  V30 23 H -1.634720 -5.100407 1.616513 0
M  V30 24 H -1.244784 -4.816691 3.351037 0
M  V30 25 H -1.451625 -6.497002 2.681804 0
M  V30 26 H 2.791411 -5.744912 1.851708 0
M  V30 27 H 4.212726 -4.078068 0.536239 0
M  V30 28 H 1.182456 -0.497950 -0.645292 0
M  V30 29 H -2.357114 -0.124422 -1.171919 0
M  V30 30 H -1.237022 -0.153293 -2.565689 0
M  V30 31 H 0.281473 1.741782 -2.725844 0
M  V30 32 H 1.289030 3.785304 -1.640485 0
M  V30 33 H 1.541671 5.137280 0.433035 0
M  V30 34 H 0.937713 5.416438 2.907415 0
M  V30 35 H -0.438439 3.864226 4.084893 0
M  V30 36 H -1.332451 1.896752 2.902636 0
M  V30 37 H -1.554191 0.637083 0.971731 0
M  V30 38 H -0.656823 -3.367204 1.048936 0
M  V30 END ATOM
M  V30 BEGIN BOND
M  V30 1 1 1 2
M  V30 2 1 2 3
M  V30 3 2 3 4
M  V30 4 1 4 5
M  V30 5 2 5 6
M  V30 6 1 6 7
M  V30 7 1 7 8
M  V30 8 1 8 9
M  V30 9 2 9 10
M  V30 10 1 9 11
M  V30 11 1 11 12
M  V30 12 2 12 13
M  V30 13 1 13 14
M  V30 14 2 14 15
M  V30 15 1 15 16
M  V30 16 2 16 17
M  V30 17 1 17 18
M  V30 18 2 18 19
M  V30 19 1 19 20
M  V30 20 2 20 21
M  V30 21 2 7 22
M  V30 22 1 22 3
M  V30 23 1 21 12
M  V30 24 1 20 15
M  V30 25 1 1 23
M  V30 26 1 1 24
M  V30 27 1 1 25
M  V30 28 1 4 26
M  V30 29 1 5 27
M  V30 30 1 8 28
M  V30 31 1 11 29
M  V30 32 1 11 30
M  V30 33 1 13 31
M  V30 34 1 14 32
M  V30 35 1 16 33
M  V30 36 1 17 34
M  V30 37 1 18 35
M  V30 38 1 19 36
M  V30 39 1 21 37
M  V30 40 1 22 38
M  V30 END BOND
M  V30 END CTAB
M  END
>  <Dataset>  (682) 
ChEMBL_Kinases

>  <Ligand_Instance>  (682) 
nan

>  <PDB_ID>  (682) 
nan

>  <Standardized_SMILES>  (682) 
COc1ccnc(NC(=O)Cc2ccc3ccccc3c2)c1

>  <Name>  (682) 
nan

>  <Pocket>  (682) 
nan

>  <ATP_Site>  (682) 
nan

>  <Peripheral>  (682) 
nan

>  <Num_H_Atoms_ProtBoundConf>  (682) 
nan

>  <Num_Resolved_Atoms>  (682) 
nan

>  <Num_Not_Resolved_Atoms>  (682) 
nan

$$$$
CHEMBL200462
     RDKit          3D

  0  0  0  0  0  0  0  0  0  0999 V3000
M  V30 BEGIN CTAB
M  V30 COUNTS 71 75 0 0 0
M  V30 BEGIN ATOM
M  V30 1 C 0.598312 0.241416 4.420828 0
M  V30 2 O 1.784194 0.564614 5.037173 0
M  V30 3 C 2.903954 0.413728 4.225039 0
M  V30 4 C 3.091039 -0.985318 3.728472 0
M  V30 5 C 4.314690 -1.169330 2.851102 0
M  V30 6 C 4.182093 -0.315560 1.612916 0
M  V30 7 C 5.129079 -0.212249 0.594451 0
M  V30 8 C 4.838350 0.610955 -0.437996 0
M  V30 9 C 3.691658 1.273844 -0.448715 0
M  V30 10 C 3.064131 2.222842 -1.397351 0
M  V30 11 C 3.713478 2.582646 -2.556776 0
M  V30 12 C 3.022171 3.458864 -3.358596 0
M  V30 13 N 1.800529 3.965645 -3.089647 0
M  V30 14 C 1.192153 3.602743 -1.960710 0
M  V30 15 N -0.047957 3.829391 -1.248952 0
M  V30 16 C -0.986690 2.769141 -1.539751 0
M  V30 17 C -1.900425 2.531169 -0.494737 0
M  V30 18 C -2.814711 1.506607 -0.729105 0
M  V30 19 C -2.838197 0.760877 -1.911105 0
M  V30 20 C -3.873107 -0.246698 -1.837272 0
M  V30 21 O -5.081329 -0.087835 -1.589645 0
M  V30 22 N -3.398047 -1.570148 -2.077756 0
M  V30 23 C -4.337260 -2.680336 -2.020293 0
M  V30 24 C -3.837308 -3.826877 -1.166267 0
M  V30 25 C -2.755955 -3.282631 -0.276074 0
M  V30 26 N -2.221462 -4.164911 0.687815 0
M  V30 27 C -3.133259 -4.843807 1.564880 0
M  V30 28 C -3.417651 -3.969261 2.749771 0
M  V30 29 C -2.420024 -2.860403 2.639811 0
M  V30 30 C -1.428732 -3.394381 1.629609 0
M  V30 31 C -1.601304 -2.994741 -1.255351 0
M  V30 32 C -2.112143 -2.129349 -2.383847 0
M  V30 33 C -1.920116 1.047609 -2.893141 0
M  V30 34 C -0.996620 2.045288 -2.711246 0
M  V30 35 N 1.824648 2.737929 -1.125491 0
M  V30 36 S 2.880692 0.812095 1.011323 0
M  V30 37 H 0.581001 -0.818739 4.103035 0
M  V30 38 H 0.365283 0.907451 3.555924 0
M  V30 39 H -0.226783 0.422575 5.158235 0
M  V30 40 H 2.886198 1.185501 3.459759 0
M  V30 41 H 3.771216 0.653640 4.891326 0
M  V30 42 H 3.086292 -1.730032 4.521670 0
M  V30 43 H 2.223293 -1.209589 3.036685 0
M  V30 44 H 5.254266 -0.960059 3.364430 0
M  V30 45 H 4.319172 -2.264568 2.573581 0
M  V30 46 H 6.063765 -0.791926 0.670989 0
M  V30 47 H 5.501535 0.765960 -1.277347 0
M  V30 48 H 4.689533 2.203945 -2.817473 0
M  V30 49 H 3.415164 3.820001 -4.294204 0
M  V30 50 H -0.302432 4.610367 -0.610142 0
M  V30 51 H -1.877764 3.108421 0.407150 0
M  V30 52 H -3.498335 1.376810 0.130549 0
M  V30 53 H -5.338751 -2.301793 -1.686183 0
M  V30 54 H -4.452826 -3.015710 -3.095596 0
M  V30 55 H -3.382058 -4.568769 -1.849545 0
M  V30 56 H -4.715504 -4.237992 -0.643519 0
M  V30 57 H -3.076058 -2.307090 0.109556 0
M  V30 58 H -2.525617 -5.710308 1.978480 0
M  V30 59 H -4.002111 -5.308103 1.099861 0
M  V30 60 H -4.475526 -3.641012 2.812377 0
M  V30 61 H -3.221775 -4.473003 3.720687 0
M  V30 62 H -1.903425 -2.645183 3.618778 0
M  V30 63 H -2.938511 -1.953298 2.313607 0
M  V30 64 H -0.917376 -2.530809 1.192825 0
M  V30 65 H -0.717092 -4.039619 2.188670 0
M  V30 66 H -0.706649 -2.614024 -0.777227 0
M  V30 67 H -1.364558 -4.001701 -1.712360 0
M  V30 68 H -2.174618 -2.677210 -3.348893 0
M  V30 69 H -1.314291 -1.349629 -2.522193 0
M  V30 70 H -2.011337 0.452568 -3.775593 0
M  V30 71 H -0.284921 2.269932 -3.471671 0
M  V30 END ATOM
M  V30 BEGIN BOND
M  V30 1 1 1 2
M  V30 2 1 2 3
M  V30 3 1 3 4
M  V30 4 1 4 5
M  V30 5 1 5 6
M  V30 6 2 6 7
M  V30 7 1 7 8
M  V30 8 2 8 9
M  V30 9 1 9 10
M  V30 10 2 10 11
M  V30 11 1 11 12
M  V30 12 2 12 13
M  V30 13 1 13 14
M  V30 14 1 14 15
M  V30 15 1 15 16
M  V30 16 2 16 17
M  V30 17 1 17 18
M  V30 18 2 18 19
M  V30 19 1 19 20
M  V30 20 2 20 21
M  V30 21 1 20 22
M  V30 22 1 22 23
M  V30 23 1 23 24
M  V30 24 1 24 25
M  V30 25 1 25 26
M  V30 26 1 26 27
M  V30 27 1 27 28
M  V30 28 1 28 29
M  V30 29 1 29 30
M  V30 30 1 25 31
M  V30 31 1 31 32
M  V30 32 1 19 33
M  V30 33 2 33 34
M  V30 34 2 14 35
M  V30 35 1 9 36
M  V30 36 1 36 6
M  V30 37 1 35 10
M  V30 38 1 34 16
M  V30 39 1 32 22
M  V30 40 1 30 26
M  V30 41 1 1 37
M  V30 42 1 1 38
M  V30 43 1 1 39
M  V30 44 1 3 40
M  V30 45 1 3 41
M  V30 46 1 4 42
M  V30 47 1 4 43
M  V30 48 1 5 44
M  V30 49 1 5 45
M  V30 50 1 7 46
M  V30 51 1 8 47
M  V30 52 1 11 48
M  V30 53 1 12 49
M  V30 54 1 15 50
M  V30 55 1 17 51
M  V30 56 1 18 52
M  V30 57 1 23 53
M  V30 58 1 23 54
M  V30 59 1 24 55
M  V30 60 1 24 56
M  V30 61 1 25 57
M  V30 62 1 27 58
M  V30 63 1 27 59
M  V30 64 1 28 60
M  V30 65 1 28 61
M  V30 66 1 29 62
M  V30 67 1 29 63
M  V30 68 1 30 64
M  V30 69 1 30 65
M  V30 70 1 31 66
M  V30 71 1 31 67
M  V30 72 1 32 68
M  V30 73 1 32 69
M  V30 74 1 33 70
M  V30 75 1 34 71
M  V30 END BOND
M  V30 END CTAB
M  END
>  <Dataset>  (683) 
ChEMBL_Kinases

>  <Ligand_Instance>  (683) 
nan

>  <PDB_ID>  (683) 
nan

>  <Standardized_SMILES>  (683) 
COCCCc1ccc(-c2ccnc(Nc3ccc(C(=O)N4CCC(N5CCCC5)CC4)cc3)n2)s1

>  <Name>  (683) 
nan

>  <Pocket>  (683) 
nan

>  <ATP_Site>  (683) 
nan

>  <Peripheral>  (683) 
nan

>  <Num_H_Atoms_ProtBoundConf>  (683) 
nan

>  <Num_Resolved_Atoms>  (683) 
nan

>  <Num_Not_Resolved_Atoms>  (683) 
nan

$$$$
CHEMBL4743829
     RDKit          3D

  0  0  0  0  0  0  0  0  0  0999 V3000
M  V30 BEGIN CTAB
M  V30 COUNTS 47 50 0 0 0
M  V30 BEGIN ATOM
M  V30 1 C 1.239656 -4.535526 2.375937 0
M  V30 2 C 0.974939 -3.116951 2.035079 0
M  V30 3 C 1.961087 -2.431640 1.360548 0
M  V30 4 C 1.715864 -1.107552 1.041538 0
M  V30 5 N 2.763408 -0.446624 0.349246 0
M  V30 6 C 2.652823 0.129125 -0.935412 0
M  V30 7 C 1.520539 0.140431 -1.719787 0
M  V30 8 N 1.924167 0.799764 -2.833067 0
M  V30 9 C 1.063650 1.070891 -3.980380 0
M  V30 10 N 3.203585 1.172802 -2.756925 0
M  V30 11 C 3.690590 0.767303 -1.578354 0
M  V30 12 N 5.025873 0.987759 -1.144322 0
M  V30 13 C 0.514782 -0.549563 1.408295 0
M  V30 14 O 0.462431 0.652475 1.044489 0
M  V30 15 N -0.488669 -1.156672 2.063257 0
M  V30 16 C -0.187437 -2.437122 2.345182 0
M  V30 17 C -1.279550 -3.062121 3.123644 0
M  V30 18 O -1.503849 -4.182333 3.619184 0
M  V30 19 N -2.206149 -1.993866 3.243156 0
M  V30 20 C -1.801702 -0.767523 2.504696 0
M  V30 21 C -1.831261 0.395096 3.408785 0
M  V30 22 C -2.499709 1.631714 2.959957 0
M  V30 23 C -2.508186 1.852396 1.478405 0
M  V30 24 C -2.717781 0.609590 0.681026 0
M  V30 25 C -2.837367 -0.655535 1.431027 0
M  V30 26 H 0.260099 -5.061810 2.364709 0
M  V30 27 H 1.920065 -4.964630 1.622523 0
M  V30 28 H 1.690287 -4.544937 3.393217 0
M  V30 29 H 2.879323 -2.932073 1.103257 0
M  V30 30 H 3.645273 -0.431848 0.905646 0
M  V30 31 H 0.539047 -0.257245 -1.545076 0
M  V30 32 H 0.284817 0.287721 -4.065955 0
M  V30 33 H 1.713251 0.955061 -4.875429 0
M  V30 34 H 0.664037 2.091882 -3.983991 0
M  V30 35 H 5.132402 1.975538 -0.794396 0
M  V30 36 H 5.802385 0.276888 -1.164606 0
M  V30 37 H -3.118390 -1.916021 3.755677 0
M  V30 38 H -2.349160 0.084401 4.368647 0
M  V30 39 H -0.771290 0.576114 3.773436 0
M  V30 40 H -3.519634 1.760154 3.379073 0
M  V30 41 H -1.904361 2.493113 3.379921 0
M  V30 42 H -1.624325 2.419897 1.125618 0
M  V30 43 H -3.368689 2.538594 1.275829 0
M  V30 44 H -3.676130 0.694263 0.057101 0
M  V30 45 H -1.943114 0.499150 -0.111391 0
M  V30 46 H -2.684789 -1.499191 0.702507 0
M  V30 47 H -3.832751 -0.755609 1.930075 0
M  V30 END ATOM
M  V30 BEGIN BOND
M  V30 1 1 1 2
M  V30 2 1 2 3
M  V30 3 2 3 4
M  V30 4 1 4 5
M  V30 5 1 5 6
M  V30 6 2 6 7
M  V30 7 1 7 8
M  V30 8 1 8 9
M  V30 9 1 8 10
M  V30 10 2 10 11
M  V30 11 1 11 12
M  V30 12 1 4 13
M  V30 13 2 13 14
M  V30 14 1 13 15
M  V30 15 1 15 16
M  V30 16 1 16 17
M  V30 17 2 17 18
M  V30 18 1 17 19
M  V30 19 1 19 20
M  V30 20 1 20 21
M  V30 21 1 21 22
M  V30 22 1 22 23
M  V30 23 1 23 24
M  V30 24 1 24 25
M  V30 25 2 16 2
M  V30 26 1 25 20
M  V30 27 1 11 6
M  V30 28 1 20 15
M  V30 29 1 1 26
M  V30 30 1 1 27
M  V30 31 1 1 28
M  V30 32 1 3 29
M  V30 33 1 5 30
M  V30 34 1 7 31
M  V30 35 1 9 32
M  V30 36 1 9 33
M  V30 37 1 9 34
M  V30 38 1 12 35
M  V30 39 1 12 36
M  V30 40 1 19 37
M  V30 41 1 21 38
M  V30 42 1 21 39
M  V30 43 1 22 40
M  V30 44 1 22 41
M  V30 45 1 23 42
M  V30 46 1 23 43
M  V30 47 1 24 44
M  V30 48 1 24 45
M  V30 49 1 25 46
M  V30 50 1 25 47
M  V30 END BOND
M  V30 END CTAB
M  END
>  <Dataset>  (684) 
ChEMBL_Kinases

>  <Ligand_Instance>  (684) 
nan

>  <PDB_ID>  (684) 
nan

>  <Standardized_SMILES>  (684) 
Cc1cc(Nc2cn(C)nc2N)c(=O)n2c1C(=O)NC21CCCCC1

>  <Name>  (684) 
nan

>  <Pocket>  (684) 
nan

>  <ATP_Site>  (684) 
nan

>  <Peripheral>  (684) 
nan

>  <Num_H_Atoms_ProtBoundConf>  (684) 
nan

>  <Num_Resolved_Atoms>  (684) 
nan

>  <Num_Not_Resolved_Atoms>  (684) 
nan

$$$$
CHEMBL2017336
     RDKit          3D

  0  0  0  0  0  0  0  0  0  0999 V3000
M  V30 BEGIN CTAB
M  V30 COUNTS 41 45 0 0 0
M  V30 BEGIN ATOM
M  V30 1 C 3.483794 -4.681592 2.000224 0
M  V30 2 C 3.753452 -3.448958 2.602491 0
M  V30 3 C 2.676382 -2.660656 2.945480 0
M  V30 4 C 1.363641 -3.067963 2.705017 0
M  V30 5 C 0.168411 -2.243104 3.064422 0
M  V30 6 N -0.287981 -1.339407 2.090406 0
M  V30 7 C -0.754559 -0.414817 1.094032 0
M  V30 8 N -0.086374 0.587251 0.537767 0
M  V30 9 C -0.464445 1.450810 -0.362911 0
M  V30 10 C 0.315446 2.438073 -0.857205 0
M  V30 11 C 1.669978 2.634402 -0.424711 0
M  V30 12 N 2.482787 3.607604 -0.892664 0
M  V30 13 N 3.676678 3.548749 -0.313857 0
M  V30 14 C 3.657699 2.527583 0.546453 0
M  V30 15 N 2.427256 1.983376 0.464522 0
M  V30 16 C -0.280465 3.239832 -1.801808 0
M  V30 17 C -1.595707 3.056265 -2.226695 0
M  V30 18 C -2.358123 2.015995 -1.679022 0
M  V30 19 C -1.753012 1.221190 -0.736862 0
M  V30 20 C -2.574585 0.211848 -0.241981 0
M  V30 21 S -4.227200 -0.246284 -0.583078 0
M  V30 22 C -4.250604 -1.642955 0.592647 0
M  V30 23 C -2.954210 -1.631083 1.155407 0
M  V30 24 C -2.072821 -0.671723 0.730065 0
M  V30 25 C 1.180154 -4.297367 2.107160 0
M  V30 26 C 2.204325 -5.141855 1.735490 0
M  V30 27 H 4.355033 -5.263861 1.749313 0
M  V30 28 H 4.773906 -3.137528 2.786587 0
M  V30 29 H 2.822371 -1.693160 3.415955 0
M  V30 30 H 0.347111 -1.717010 4.049184 0
M  V30 31 H -0.652886 -3.008142 3.323301 0
M  V30 32 H 0.711114 -0.946821 2.176011 0
M  V30 33 H 4.468798 2.179607 1.201248 0
M  V30 34 H 2.148850 1.176744 1.027261 0
M  V30 35 H 0.282453 4.061647 -2.251694 0
M  V30 36 H -2.012080 3.722319 -2.976435 0
M  V30 37 H -3.364276 1.957753 -2.073736 0
M  V30 38 H -5.088124 -2.329430 0.805446 0
M  V30 39 H -2.816128 -2.417277 1.883858 0
M  V30 40 H 0.151061 -4.618718 1.917954 0
M  V30 41 H 2.025714 -6.097389 1.270039 0
M  V30 END ATOM
M  V30 BEGIN BOND
M  V30 1 2 1 2
M  V30 2 1 2 3
M  V30 3 2 3 4
M  V30 4 1 4 5
M  V30 5 1 5 6
M  V30 6 1 6 7
M  V30 7 2 7 8
M  V30 8 1 8 9
M  V30 9 2 9 10
M  V30 10 1 10 11
M  V30 11 2 11 12
M  V30 12 1 12 13
M  V30 13 2 13 14
M  V30 14 1 14 15
M  V30 15 1 10 16
M  V30 16 2 16 17
M  V30 17 1 17 18
M  V30 18 2 18 19
M  V30 19 1 19 20
M  V30 20 1 20 21
M  V30 21 1 21 22
M  V30 22 2 22 23
M  V30 23 1 23 24
M  V30 24 1 4 25
M  V30 25 2 25 26
M  V30 26 1 26 1
M  V30 27 1 24 7
M  V30 28 1 19 9
M  V30 29 2 24 20
M  V30 30 1 15 11
M  V30 31 1 1 27
M  V30 32 1 2 28
M  V30 33 1 3 29
M  V30 34 1 5 30
M  V30 35 1 5 31
M  V30 36 1 6 32
M  V30 37 1 14 33
M  V30 38 1 15 34
M  V30 39 1 16 35
M  V30 40 1 17 36
M  V30 41 1 18 37
M  V30 42 1 22 38
M  V30 43 1 23 39
M  V30 44 1 25 40
M  V30 45 1 26 41
M  V30 END BOND
M  V30 END CTAB
M  END
>  <Dataset>  (685) 
ChEMBL_Kinases

>  <Ligand_Instance>  (685) 
nan

>  <PDB_ID>  (685) 
nan

>  <Standardized_SMILES>  (685) 
c1ccc(CNc2nc3c(-c4nnc[nH]4)cccc3c3sccc23)cc1

>  <Name>  (685) 
nan

>  <Pocket>  (685) 
nan

>  <ATP_Site>  (685) 
nan

>  <Peripheral>  (685) 
nan

>  <Num_H_Atoms_ProtBoundConf>  (685) 
nan

>  <Num_Resolved_Atoms>  (685) 
nan

>  <Num_Not_Resolved_Atoms>  (685) 
nan

$$$$
CHEMBL2017335
     RDKit          3D

  0  0  0  0  0  0  0  0  0  0999 V3000
M  V30 BEGIN CTAB
M  V30 COUNTS 39 43 0 0 0
M  V30 BEGIN ATOM
M  V30 1 C -0.485429 -4.309066 3.073718 0
M  V30 2 C 0.767451 -4.242605 2.505436 0
M  V30 3 C 1.192588 -3.181875 1.736426 0
M  V30 4 C 2.501215 -3.085412 1.127873 0
M  V30 5 N 3.417436 -4.060406 1.280374 0
M  V30 6 N 4.531188 -3.768615 0.646072 0
M  V30 7 C 4.348074 -2.573431 0.060445 0
M  V30 8 N 3.108336 -2.178395 0.367012 0
M  V30 9 C 0.272349 -2.173673 1.567193 0
M  V30 10 N 0.475564 -1.073402 0.870363 0
M  V30 11 C -0.350970 -0.056209 0.656397 0
M  V30 12 N 0.137719 1.004328 -0.139679 0
M  V30 13 C -0.428333 1.445811 -1.368231 0
M  V30 14 C -0.610162 2.948596 -1.365643 0
M  V30 15 O -0.128838 3.465515 -0.151996 0
M  V30 16 C 1.230916 3.112940 -0.027293 0
M  V30 17 C 1.315284 1.659258 0.388151 0
M  V30 18 C -1.613092 -0.079764 1.204794 0
M  V30 19 C -2.559883 0.890637 1.067868 0
M  V30 20 C -3.799294 0.665454 1.718576 0
M  V30 21 S -3.558346 -1.021632 2.552655 0
M  V30 22 C -1.914598 -1.216828 1.963731 0
M  V30 23 C -0.979490 -2.239952 2.134929 0
M  V30 24 C -1.405869 -3.291875 2.899580 0
M  V30 25 H -0.730991 -5.184583 3.663772 0
M  V30 26 H 1.475544 -5.059060 2.658224 0
M  V30 27 H 5.072852 -2.032577 -0.547104 0
M  V30 28 H 2.674538 -1.297699 0.062239 0
M  V30 29 H -1.322094 0.907440 -1.687634 0
M  V30 30 H 0.354109 1.259100 -2.161286 0
M  V30 31 H -0.151354 3.455559 -2.231925 0
M  V30 32 H -1.704337 3.214881 -1.400358 0
M  V30 33 H 1.633290 3.194458 -1.071417 0
M  V30 34 H 1.760683 3.742171 0.697269 0
M  V30 35 H 2.206446 1.157631 -0.088919 0
M  V30 36 H 1.422713 1.553783 1.490724 0
M  V30 37 H -2.492535 1.816985 0.525251 0
M  V30 38 H -4.695664 1.335713 1.726825 0
M  V30 39 H -2.380053 -3.344006 3.341701 0
M  V30 END ATOM
M  V30 BEGIN BOND
M  V30 1 2 1 2
M  V30 2 1 2 3
M  V30 3 1 3 4
M  V30 4 2 4 5
M  V30 5 1 5 6
M  V30 6 2 6 7
M  V30 7 1 7 8
M  V30 8 2 3 9
M  V30 9 1 9 10
M  V30 10 2 10 11
M  V30 11 1 11 12
M  V30 12 1 12 13
M  V30 13 1 13 14
M  V30 14 1 14 15
M  V30 15 1 15 16
M  V30 16 1 16 17
M  V30 17 1 11 18
M  V30 18 1 18 19
M  V30 19 2 19 20
M  V30 20 1 20 21
M  V30 21 1 21 22
M  V30 22 1 22 23
M  V30 23 2 23 24
M  V30 24 1 24 1
M  V30 25 1 8 4
M  V30 26 1 23 9
M  V30 27 1 17 12
M  V30 28 2 22 18
M  V30 29 1 1 25
M  V30 30 1 2 26
M  V30 31 1 7 27
M  V30 32 1 8 28
M  V30 33 1 13 29
M  V30 34 1 13 30
M  V30 35 1 14 31
M  V30 36 1 14 32
M  V30 37 1 16 33
M  V30 38 1 16 34
M  V30 39 1 17 35
M  V30 40 1 17 36
M  V30 41 1 19 37
M  V30 42 1 20 38
M  V30 43 1 24 39
M  V30 END BOND
M  V30 END CTAB
M  END
>  <Dataset>  (686) 
ChEMBL_Kinases

>  <Ligand_Instance>  (686) 
nan

>  <PDB_ID>  (686) 
nan

>  <Standardized_SMILES>  (686) 
c1cc(-c2nnc[nH]2)c2nc(N3CCOCC3)c3ccsc3c2c1

>  <Name>  (686) 
nan

>  <Pocket>  (686) 
nan

>  <ATP_Site>  (686) 
nan

>  <Peripheral>  (686) 
nan

>  <Num_H_Atoms_ProtBoundConf>  (686) 
nan

>  <Num_Resolved_Atoms>  (686) 
nan

>  <Num_Not_Resolved_Atoms>  (686) 
nan

$$$$
CHEMBL2017334
     RDKit          3D

  0  0  0  0  0  0  0  0  0  0999 V3000
M  V30 BEGIN CTAB
M  V30 COUNTS 35 39 0 0 0
M  V30 BEGIN ATOM
M  V30 1 C -1.778167 -3.412937 3.025675 0
M  V30 2 C -0.487710 -3.745112 2.671721 0
M  V30 3 C 0.296244 -2.936414 1.854772 0
M  V30 4 C 1.653332 -3.327991 1.507673 0
M  V30 5 N 2.248360 -4.454742 1.924335 0
M  V30 6 N 3.463021 -4.554719 1.464442 0
M  V30 7 C 3.722276 -3.473690 0.709686 0
M  V30 8 N 2.601028 -2.745080 0.755203 0
M  V30 9 C -0.296997 -1.777725 1.418250 0
M  V30 10 N 0.341740 -0.932264 0.641030 0
M  V30 11 C -0.100987 0.220758 0.143202 0
M  V30 12 N 0.789259 0.959047 -0.667615 0
M  V30 13 C 0.722152 2.177877 -1.419644 0
M  V30 14 C 1.923987 2.790342 -2.065055 0
M  V30 15 C 1.130431 3.484551 -0.922539 0
M  V30 16 C -1.370275 0.621222 0.448664 0
M  V30 17 C -2.015871 1.749872 0.062875 0
M  V30 18 C -3.356240 2.024358 0.481573 0
M  V30 19 S -3.718493 0.493975 1.541584 0
M  V30 20 C -2.117389 -0.291255 1.311804 0
M  V30 21 C -1.579337 -1.439256 1.764999 0
M  V30 22 C -2.352003 -2.222991 2.562248 0
M  V30 23 H -2.341464 -4.080914 3.664434 0
M  V30 24 H -0.091089 -4.675094 3.056082 0
M  V30 25 H 4.648811 -3.273265 0.194080 0
M  V30 26 H 2.483626 -1.833956 0.262729 0
M  V30 27 H 1.775236 0.575459 -0.800297 0
M  V30 28 H -0.150379 2.167372 -2.152943 0
M  V30 29 H 1.846794 3.246134 -3.069713 0
M  V30 30 H 2.941307 2.444432 -1.814509 0
M  V30 31 H 0.551426 4.402459 -1.230193 0
M  V30 32 H 1.700645 3.655985 -0.012426 0
M  V30 33 H -1.734675 2.583155 -0.540570 0
M  V30 34 H -4.093411 2.693511 0.406038 0
M  V30 35 H -3.361023 -1.984558 2.851695 0
M  V30 END ATOM
M  V30 BEGIN BOND
M  V30 1 2 1 2
M  V30 2 1 2 3
M  V30 3 1 3 4
M  V30 4 2 4 5
M  V30 5 1 5 6
M  V30 6 2 6 7
M  V30 7 1 7 8
M  V30 8 2 3 9
M  V30 9 1 9 10
M  V30 10 2 10 11
M  V30 11 1 11 12
M  V30 12 1 12 13
M  V30 13 1 13 14
M  V30 14 1 14 15
M  V30 15 1 11 16
M  V30 16 1 16 17
M  V30 17 2 17 18
M  V30 18 1 18 19
M  V30 19 1 19 20
M  V30 20 1 20 21
M  V30 21 2 21 22
M  V30 22 1 22 1
M  V30 23 1 8 4
M  V30 24 1 21 9
M  V30 25 1 15 13
M  V30 26 2 20 16
M  V30 27 1 1 23
M  V30 28 1 2 24
M  V30 29 1 7 25
M  V30 30 1 8 26
M  V30 31 1 12 27
M  V30 32 1 13 28
M  V30 33 1 14 29
M  V30 34 1 14 30
M  V30 35 1 15 31
M  V30 36 1 15 32
M  V30 37 1 17 33
M  V30 38 1 18 34
M  V30 39 1 22 35
M  V30 END BOND
M  V30 END CTAB
M  END
>  <Dataset>  (687) 
ChEMBL_Kinases

>  <Ligand_Instance>  (687) 
nan

>  <PDB_ID>  (687) 
nan

>  <Standardized_SMILES>  (687) 
c1cc(-c2nnc[nH]2)c2nc(NC3CC3)c3ccsc3c2c1

>  <Name>  (687) 
nan

>  <Pocket>  (687) 
nan

>  <ATP_Site>  (687) 
nan

>  <Peripheral>  (687) 
nan

>  <Num_H_Atoms_ProtBoundConf>  (687) 
nan

>  <Num_Resolved_Atoms>  (687) 
nan

>  <Num_Not_Resolved_Atoms>  (687) 
nan

$$$$
CHEMBL2017333
     RDKit          3D

  0  0  0  0  0  0  0  0  0  0999 V3000
M  V30 BEGIN CTAB
M  V30 COUNTS 38 42 0 0 0
M  V30 BEGIN ATOM
M  V30 1 F 0.351448 -3.308781 2.792045 0
M  V30 2 C 0.648562 -2.222111 3.538062 0
M  V30 3 C 1.618982 -2.187163 4.511319 0
M  V30 4 C 1.867674 -1.030839 5.236428 0
M  V30 5 C 1.147688 0.119559 5.001739 0
M  V30 6 C 0.179782 0.027403 4.006903 0
M  V30 7 C -0.114919 -1.114077 3.242318 0
M  V30 8 N -1.146274 -0.943218 2.276733 0
M  V30 9 C -0.946717 -1.145742 0.879527 0
M  V30 10 N -0.295768 -0.147357 0.255711 0
M  V30 11 C -0.009139 -0.128179 -1.056979 0
M  V30 12 C 0.666351 0.956237 -1.573160 0
M  V30 13 C 1.109622 2.113757 -0.814438 0
M  V30 14 N 1.783144 3.161594 -1.307045 0
M  V30 15 N 2.024590 4.028878 -0.317045 0
M  V30 16 C 1.505734 3.542162 0.821571 0
M  V30 17 N 0.942538 2.359523 0.507511 0
M  V30 18 C 0.920896 0.892752 -2.920491 0
M  V30 19 C 0.527901 -0.183975 -3.711500 0
M  V30 20 C -0.150249 -1.250103 -3.140349 0
M  V30 21 C -0.423078 -1.221208 -1.789452 0
M  V30 22 N -1.076890 -2.242671 -1.206975 0
M  V30 23 C -1.594586 -3.407525 -1.636435 0
M  V30 24 N -2.160259 -4.072666 -0.600076 0
M  V30 25 C -2.017644 -3.339625 0.540073 0
M  V30 26 C -1.342689 -2.220137 0.109967 0
M  V30 27 H 2.144015 -3.127323 4.639655 0
M  V30 28 H 2.637046 -1.057990 5.984877 0
M  V30 29 H 1.299899 1.027536 5.529810 0
M  V30 30 H -0.387001 0.955370 3.832232 0
M  V30 31 H -2.134805 -0.665337 2.449977 0
M  V30 32 H 1.579173 4.073766 1.760352 0
M  V30 33 H 0.477726 1.800651 1.242489 0
M  V30 34 H 1.458731 1.736284 -3.375212 0
M  V30 35 H 0.771032 -0.150557 -4.764493 0
M  V30 36 H -0.463877 -2.097444 -3.745568 0
M  V30 37 H -1.568731 -3.769847 -2.655122 0
M  V30 38 H -2.355191 -3.582732 1.537219 0
M  V30 END ATOM
M  V30 BEGIN BOND
M  V30 1 1 1 2
M  V30 2 2 2 3
M  V30 3 1 3 4
M  V30 4 2 4 5
M  V30 5 1 5 6
M  V30 6 2 6 7
M  V30 7 1 7 8
M  V30 8 1 8 9
M  V30 9 2 9 10
M  V30 10 1 10 11
M  V30 11 2 11 12
M  V30 12 1 12 13
M  V30 13 2 13 14
M  V30 14 1 14 15
M  V30 15 2 15 16
M  V30 16 1 16 17
M  V30 17 1 12 18
M  V30 18 2 18 19
M  V30 19 1 19 20
M  V30 20 2 20 21
M  V30 21 1 21 22
M  V30 22 1 22 23
M  V30 23 2 23 24
M  V30 24 1 24 25
M  V30 25 2 25 26
M  V30 26 1 7 2
M  V30 27 1 26 9
M  V30 28 1 21 11
M  V30 29 1 26 22
M  V30 30 1 17 13
M  V30 31 1 3 27
M  V30 32 1 4 28
M  V30 33 1 5 29
M  V30 34 1 6 30
M  V30 35 1 8 31
M  V30 36 1 16 32
M  V30 37 1 17 33
M  V30 38 1 18 34
M  V30 39 1 19 35
M  V30 40 1 20 36
M  V30 41 1 23 37
M  V30 42 1 25 38
M  V30 END BOND
M  V30 END CTAB
M  END
>  <Dataset>  (688) 
ChEMBL_Kinases

>  <Ligand_Instance>  (688) 
nan

>  <PDB_ID>  (688) 
nan

>  <Standardized_SMILES>  (688) 
Fc1ccccc1Nc1nc2c(-c3nnc[nH]3)cccc2n2cncc12

>  <Name>  (688) 
nan

>  <Pocket>  (688) 
nan

>  <ATP_Site>  (688) 
nan

>  <Peripheral>  (688) 
nan

>  <Num_H_Atoms_ProtBoundConf>  (688) 
nan

>  <Num_Resolved_Atoms>  (688) 
nan

>  <Num_Not_Resolved_Atoms>  (688) 
nan

$$$$
CHEMBL2017332
     RDKit          3D

  0  0  0  0  0  0  0  0  0  0999 V3000
M  V30 BEGIN CTAB
M  V30 COUNTS 39 43 0 0 0
M  V30 BEGIN ATOM
M  V30 1 F 0.583803 -3.058954 2.926803 0
M  V30 2 C 1.217765 -1.993542 3.476039 0
M  V30 3 C 2.431599 -1.956058 4.115830 0
M  V30 4 C 2.961699 -0.804716 4.628838 0
M  V30 5 C 2.206434 0.358875 4.475184 0
M  V30 6 C 0.988660 0.329001 3.834720 0
M  V30 7 C 0.454037 -0.861602 3.310898 0
M  V30 8 N -0.800790 -0.571256 2.708470 0
M  V30 9 C -0.902931 -0.880715 1.308616 0
M  V30 10 N -0.266094 -0.020254 0.497836 0
M  V30 11 C -0.241541 -0.121785 -0.837844 0
M  V30 12 C 0.450442 0.822102 -1.559800 0
M  V30 13 C 1.179896 1.949871 -1.002202 0
M  V30 14 N 1.853953 2.873480 -1.698727 0
M  V30 15 N 2.394939 3.744440 -0.876672 0
M  V30 16 C 2.085185 3.408209 0.379050 0
M  V30 17 N 1.318522 2.276532 0.307362 0
M  V30 18 C 0.426784 0.640422 -2.919062 0
M  V30 19 C -0.235842 -0.403464 -3.524421 0
M  V30 20 C -0.921733 -1.333502 -2.757743 0
M  V30 21 C -0.922819 -1.187344 -1.385799 0
M  V30 22 N -1.575110 -2.073140 -0.602712 0
M  V30 23 C -2.306617 -3.174315 -0.852078 0
M  V30 24 C -2.763142 -3.722381 0.347850 0
M  V30 25 C -2.292128 -2.923872 1.375650 0
M  V30 26 C -1.575187 -1.936252 0.735400 0
M  V30 27 H 2.929933 -2.915182 4.177430 0
M  V30 28 H 3.921643 -0.869862 5.114169 0
M  V30 29 H 2.657617 1.250164 4.894947 0
M  V30 30 H 0.534724 1.330775 3.807740 0
M  V30 31 H -1.585088 -0.151848 3.291504 0
M  V30 32 H 2.440397 4.006308 1.202910 0
M  V30 33 H 0.962981 1.833634 1.160266 0
M  V30 34 H 0.963481 1.363894 -3.529303 0
M  V30 35 H -0.201433 -0.466431 -4.601818 0
M  V30 36 H -1.450643 -2.162806 -3.208220 0
M  V30 37 H -2.500914 -3.564062 -1.829228 0
M  V30 38 H -3.378736 -4.615449 0.425430 0
M  V30 39 H -2.456780 -3.059720 2.428799 0
M  V30 END ATOM
M  V30 BEGIN BOND
M  V30 1 1 1 2
M  V30 2 2 2 3
M  V30 3 1 3 4
M  V30 4 2 4 5
M  V30 5 1 5 6
M  V30 6 2 6 7
M  V30 7 1 7 8
M  V30 8 1 8 9
M  V30 9 2 9 10
M  V30 10 1 10 11
M  V30 11 2 11 12
M  V30 12 1 12 13
M  V30 13 2 13 14
M  V30 14 1 14 15
M  V30 15 2 15 16
M  V30 16 1 16 17
M  V30 17 1 12 18
M  V30 18 2 18 19
M  V30 19 1 19 20
M  V30 20 2 20 21
M  V30 21 1 21 22
M  V30 22 1 22 23
M  V30 23 2 23 24
M  V30 24 1 24 25
M  V30 25 2 25 26
M  V30 26 1 7 2
M  V30 27 1 26 9
M  V30 28 1 21 11
M  V30 29 1 26 22
M  V30 30 1 17 13
M  V30 31 1 3 27
M  V30 32 1 4 28
M  V30 33 1 5 29
M  V30 34 1 6 30
M  V30 35 1 8 31
M  V30 36 1 16 32
M  V30 37 1 17 33
M  V30 38 1 18 34
M  V30 39 1 19 35
M  V30 40 1 20 36
M  V30 41 1 23 37
M  V30 42 1 24 38
M  V30 43 1 25 39
M  V30 END BOND
M  V30 END CTAB
M  END
>  <Dataset>  (689) 
ChEMBL_Kinases

>  <Ligand_Instance>  (689) 
nan

>  <PDB_ID>  (689) 
nan

>  <Standardized_SMILES>  (689) 
Fc1ccccc1Nc1nc2c(-c3nnc[nH]3)cccc2n2cccc12

>  <Name>  (689) 
nan

>  <Pocket>  (689) 
nan

>  <ATP_Site>  (689) 
nan

>  <Peripheral>  (689) 
nan

>  <Num_H_Atoms_ProtBoundConf>  (689) 
nan

>  <Num_Resolved_Atoms>  (689) 
nan

>  <Num_Not_Resolved_Atoms>  (689) 
nan

$$$$
CHEMBL2017331
     RDKit          3D

  0  0  0  0  0  0  0  0  0  0999 V3000
M  V30 BEGIN CTAB
M  V30 COUNTS 39 43 0 0 0
M  V30 BEGIN ATOM
M  V30 1 Cl 0.834615 -3.443745 2.738205 0
M  V30 2 C 1.494226 -2.015283 3.507063 0
M  V30 3 C 2.672067 -1.971134 4.191439 0
M  V30 4 C 3.163645 -0.810606 4.786809 0
M  V30 5 C 2.376462 0.321800 4.644850 0
M  V30 6 C 1.193530 0.252471 3.950297 0
M  V30 7 C 0.689915 -0.907770 3.347889 0
M  V30 8 N -0.549392 -0.697957 2.683961 0
M  V30 9 C -0.814715 -0.920246 1.300211 0
M  V30 10 N -0.207558 -0.064062 0.462577 0
M  V30 11 C -0.322752 -0.090224 -0.873170 0
M  V30 12 C 0.352615 0.836687 -1.627922 0
M  V30 13 C 1.204010 1.891492 -1.106367 0
M  V30 14 N 1.884252 2.790736 -1.828525 0
M  V30 15 N 2.556760 3.599774 -0.992792 0
M  V30 16 C 2.286633 3.194224 0.251219 0
M  V30 17 N 1.448692 2.134552 0.202327 0
M  V30 18 C 0.190258 0.742583 -2.987331 0
M  V30 19 C -0.600846 -0.219239 -3.578514 0
M  V30 20 C -1.265831 -1.138200 -2.758352 0
M  V30 21 C -1.131818 -1.082076 -1.381115 0
M  V30 22 N -1.770049 -1.971350 -0.600064 0
M  V30 23 C -2.593521 -3.002754 -0.813366 0
M  V30 24 C -2.957989 -3.576499 0.386699 0
M  V30 25 C -2.329307 -2.867245 1.408996 0
M  V30 26 C -1.615912 -1.895630 0.731539 0
M  V30 27 H 3.211945 -2.928932 4.238755 0
M  V30 28 H 4.093640 -0.826475 5.313520 0
M  V30 29 H 2.732135 1.232452 5.097826 0
M  V30 30 H 0.659706 1.214867 3.906766 0
M  V30 31 H -1.362633 -0.344634 3.276409 0
M  V30 32 H 2.746999 3.734854 1.065349 0
M  V30 33 H 1.142450 1.698549 1.084232 0
M  V30 34 H 0.688301 1.436409 -3.644057 0
M  V30 35 H -0.697197 -0.250871 -4.652008 0
M  V30 36 H -1.903537 -1.916595 -3.192209 0
M  V30 37 H -2.911120 -3.319132 -1.808353 0
M  V30 38 H -3.613690 -4.425216 0.540060 0
M  V30 39 H -2.388024 -3.036382 2.473260 0
M  V30 END ATOM
M  V30 BEGIN BOND
M  V30 1 1 1 2
M  V30 2 2 2 3
M  V30 3 1 3 4
M  V30 4 2 4 5
M  V30 5 1 5 6
M  V30 6 2 6 7
M  V30 7 1 7 8
M  V30 8 1 8 9
M  V30 9 2 9 10
M  V30 10 1 10 11
M  V30 11 2 11 12
M  V30 12 1 12 13
M  V30 13 2 13 14
M  V30 14 1 14 15
M  V30 15 2 15 16
M  V30 16 1 16 17
M  V30 17 1 12 18
M  V30 18 2 18 19
M  V30 19 1 19 20
M  V30 20 2 20 21
M  V30 21 1 21 22
M  V30 22 1 22 23
M  V30 23 2 23 24
M  V30 24 1 24 25
M  V30 25 2 25 26
M  V30 26 1 7 2
M  V30 27 1 26 9
M  V30 28 1 21 11
M  V30 29 1 26 22
M  V30 30 1 17 13
M  V30 31 1 3 27
M  V30 32 1 4 28
M  V30 33 1 5 29
M  V30 34 1 6 30
M  V30 35 1 8 31
M  V30 36 1 16 32
M  V30 37 1 17 33
M  V30 38 1 18 34
M  V30 39 1 19 35
M  V30 40 1 20 36
M  V30 41 1 23 37
M  V30 42 1 24 38
M  V30 43 1 25 39
M  V30 END BOND
M  V30 END CTAB
M  END
>  <Dataset>  (690) 
ChEMBL_Kinases

>  <Ligand_Instance>  (690) 
nan

>  <PDB_ID>  (690) 
nan

>  <Standardized_SMILES>  (690) 
Clc1ccccc1Nc1nc2c(-c3nnc[nH]3)cccc2n2cccc12

>  <Name>  (690) 
nan

>  <Pocket>  (690) 
nan

>  <ATP_Site>  (690) 
nan

>  <Peripheral>  (690) 
nan

>  <Num_H_Atoms_ProtBoundConf>  (690) 
nan

>  <Num_Resolved_Atoms>  (690) 
nan

>  <Num_Not_Resolved_Atoms>  (690) 
nan

$$$$
CHEMBL2017330
     RDKit          3D

  0  0  0  0  0  0  0  0  0  0999 V3000
M  V30 BEGIN CTAB
M  V30 COUNTS 39 43 0 0 0
M  V30 BEGIN ATOM
M  V30 1 C 1.083131 -2.910361 4.938983 0
M  V30 2 C 2.291789 -3.276206 4.362310 0
M  V30 3 C 2.602881 -2.869969 3.055820 0
M  V30 4 C 1.710462 -2.092157 2.306716 0
M  V30 5 N 2.038034 -1.694271 0.975418 0
M  V30 6 C 0.932679 -1.050392 0.337871 0
M  V30 7 N 0.813057 0.253448 0.050739 0
M  V30 8 C -0.283945 0.739645 -0.535268 0
M  V30 9 C -0.355472 2.085932 -0.812075 0
M  V30 10 C 0.683563 3.050110 -0.496427 0
M  V30 11 N 0.655635 4.367472 -0.749172 0
M  V30 12 N 1.748695 4.970262 -0.335250 0
M  V30 13 C 2.559519 4.024033 0.225636 0
M  V30 14 N 1.885361 2.875909 0.111203 0
M  V30 15 C -1.498890 2.530871 -1.414132 0
M  V30 16 C -2.539169 1.699515 -1.737479 0
M  V30 17 C -2.463607 0.340057 -1.457310 0
M  V30 18 C -1.326079 -0.139619 -0.851430 0
M  V30 19 N -1.192718 -1.464149 -0.553300 0
M  V30 20 C -2.065233 -2.443813 -0.767926 0
M  V30 21 C -1.527455 -3.632173 -0.307469 0
M  V30 22 C -0.264984 -3.349193 0.211475 0
M  V30 23 C -0.078213 -1.971060 0.043465 0
M  V30 24 C 0.542453 -1.783164 2.969569 0
M  V30 25 C 0.172265 -2.143948 4.240228 0
M  V30 26 H 0.816007 -3.213819 5.954307 0
M  V30 27 H 2.986879 -3.870756 4.910621 0
M  V30 28 H 3.533102 -3.138790 2.573728 0
M  V30 29 H 3.006740 -1.903456 0.643334 0
M  V30 30 H 3.512364 4.319035 0.625863 0
M  V30 31 H 2.297262 2.008336 0.471431 0
M  V30 32 H -1.588881 3.578291 -1.641478 0
M  V30 33 H -3.448345 2.044797 -2.213194 0
M  V30 34 H -3.261992 -0.367973 -1.694086 0
M  V30 35 H -3.042861 -2.511559 -1.195955 0
M  V30 36 H -1.859742 -4.662100 -0.264510 0
M  V30 37 H 0.466291 -4.008794 0.663782 0
M  V30 38 H -0.182246 -1.179098 2.425523 0
M  V30 39 H -0.771375 -1.851696 4.674554 0
M  V30 END ATOM
M  V30 BEGIN BOND
M  V30 1 2 1 2
M  V30 2 1 2 3
M  V30 3 2 3 4
M  V30 4 1 4 5
M  V30 5 1 5 6
M  V30 6 2 6 7
M  V30 7 1 7 8
M  V30 8 2 8 9
M  V30 9 1 9 10
M  V30 10 2 10 11
M  V30 11 1 11 12
M  V30 12 2 12 13
M  V30 13 1 13 14
M  V30 14 1 9 15
M  V30 15 2 15 16
M  V30 16 1 16 17
M  V30 17 2 17 18
M  V30 18 1 18 19
M  V30 19 1 19 20
M  V30 20 2 20 21
M  V30 21 1 21 22
M  V30 22 2 22 23
M  V30 23 1 4 24
M  V30 24 2 24 25
M  V30 25 1 25 1
M  V30 26 1 23 6
M  V30 27 1 18 8
M  V30 28 1 23 19
M  V30 29 1 14 10
M  V30 30 1 1 26
M  V30 31 1 2 27
M  V30 32 1 3 28
M  V30 33 1 5 29
M  V30 34 1 13 30
M  V30 35 1 14 31
M  V30 36 1 15 32
M  V30 37 1 16 33
M  V30 38 1 17 34
M  V30 39 1 20 35
M  V30 40 1 21 36
M  V30 41 1 22 37
M  V30 42 1 24 38
M  V30 43 1 25 39
M  V30 END BOND
M  V30 END CTAB
M  END
>  <Dataset>  (691) 
ChEMBL_Kinases

>  <Ligand_Instance>  (691) 
nan

>  <PDB_ID>  (691) 
nan

>  <Standardized_SMILES>  (691) 
c1ccc(Nc2nc3c(-c4nnc[nH]4)cccc3n3cccc23)cc1

>  <Name>  (691) 
nan

>  <Pocket>  (691) 
nan

>  <ATP_Site>  (691) 
nan

>  <Peripheral>  (691) 
nan

>  <Num_H_Atoms_ProtBoundConf>  (691) 
nan

>  <Num_Resolved_Atoms>  (691) 
nan

>  <Num_Not_Resolved_Atoms>  (691) 
nan

$$$$
CHEMBL2017329
     RDKit          3D

  0  0  0  0  0  0  0  0  0  0999 V3000
M  V30 BEGIN CTAB
M  V30 COUNTS 37 41 0 0 0
M  V30 BEGIN ATOM
M  V30 1 Cl 0.583578 -4.191188 2.504157 0
M  V30 2 C 0.551772 -2.823147 3.564459 0
M  V30 3 C 1.136334 -2.876617 4.803166 0
M  V30 4 C 1.026787 -1.699475 5.532205 0
M  V30 5 C 0.409639 -0.561511 5.116076 0
M  V30 6 C -0.168552 -0.563174 3.847055 0
M  V30 7 C -0.092613 -1.720424 3.059547 0
M  V30 8 N -0.734766 -1.504973 1.814072 0
M  V30 9 C -0.531322 -1.487084 0.406791 0
M  V30 10 N -0.044267 -0.314519 -0.021994 0
M  V30 11 C 0.247065 0.027406 -1.271833 0
M  V30 12 C 0.744290 1.243657 -1.658004 0
M  V30 13 C 0.996177 2.288798 -0.683350 0
M  V30 14 N 1.494439 3.483789 -1.029429 0
M  V30 15 N 1.644421 4.271366 0.015315 0
M  V30 16 C 1.230804 3.572846 1.087557 0
M  V30 17 N 0.831639 2.344730 0.641100 0
M  V30 18 C 0.984531 1.405695 -3.002436 0
M  V30 19 C 0.745276 0.414857 -3.931055 0
M  V30 20 C 0.243752 -0.813159 -3.549977 0
M  V30 21 C 0.005048 -0.972110 -2.203672 0
M  V30 22 C -0.500440 -2.200466 -1.788155 0
M  V30 23 S -0.923962 -3.675448 -2.672500 0
M  V30 24 C -1.464777 -4.555848 -1.048609 0
M  V30 25 N -1.257680 -3.714993 -0.281436 0
M  V30 26 C -0.790810 -2.515386 -0.476173 0
M  V30 27 H 1.617509 -3.782444 5.119711 0
M  V30 28 H 1.470235 -1.691894 6.518285 0
M  V30 29 H 0.376674 0.312365 5.760651 0
M  V30 30 H -0.648185 0.386086 3.574293 0
M  V30 31 H -1.764159 -1.253436 1.843196 0
M  V30 32 H 1.204061 3.898227 2.134305 0
M  V30 33 H 0.461941 1.577196 1.236557 0
M  V30 34 H 1.382739 2.375118 -3.304527 0
M  V30 35 H 0.947512 0.593438 -4.985795 0
M  V30 36 H 0.040597 -1.627482 -4.230790 0
M  V30 37 H -1.857640 -5.607220 -0.995795 0
M  V30 END ATOM
M  V30 BEGIN BOND
M  V30 1 1 1 2
M  V30 2 2 2 3
M  V30 3 1 3 4
M  V30 4 2 4 5
M  V30 5 1 5 6
M  V30 6 2 6 7
M  V30 7 1 7 8
M  V30 8 1 8 9
M  V30 9 2 9 10
M  V30 10 1 10 11
M  V30 11 2 11 12
M  V30 12 1 12 13
M  V30 13 2 13 14
M  V30 14 1 14 15
M  V30 15 2 15 16
M  V30 16 1 16 17
M  V30 17 1 12 18
M  V30 18 2 18 19
M  V30 19 1 19 20
M  V30 20 2 20 21
M  V30 21 1 21 22
M  V30 22 1 22 23
M  V30 23 1 23 24
M  V30 24 2 24 25
M  V30 25 1 25 26
M  V30 26 1 7 2
M  V30 27 1 26 9
M  V30 28 1 21 11
M  V30 29 2 26 22
M  V30 30 1 17 13
M  V30 31 1 3 27
M  V30 32 1 4 28
M  V30 33 1 5 29
M  V30 34 1 6 30
M  V30 35 1 8 31
M  V30 36 1 16 32
M  V30 37 1 17 33
M  V30 38 1 18 34
M  V30 39 1 19 35
M  V30 40 1 20 36
M  V30 41 1 24 37
M  V30 END BOND
M  V30 END CTAB
M  END
>  <Dataset>  (692) 
ChEMBL_Kinases

>  <Ligand_Instance>  (692) 
nan

>  <PDB_ID>  (692) 
nan

>  <Standardized_SMILES>  (692) 
Clc1ccccc1Nc1nc2c(-c3nnc[nH]3)cccc2c2scnc12

>  <Name>  (692) 
nan

>  <Pocket>  (692) 
nan

>  <ATP_Site>  (692) 
nan

>  <Peripheral>  (692) 
nan

>  <Num_H_Atoms_ProtBoundConf>  (692) 
nan

>  <Num_Resolved_Atoms>  (692) 
nan

>  <Num_Not_Resolved_Atoms>  (692) 
nan

$$$$
CHEMBL2017328
     RDKit          3D

  0  0  0  0  0  0  0  0  0  0999 V3000
M  V30 BEGIN CTAB
M  V30 COUNTS 38 42 0 0 0
M  V30 BEGIN ATOM
M  V30 1 Cl 0.314790 -3.538963 3.218915 0
M  V30 2 C 1.290378 -2.268302 3.860457 0
M  V30 3 C 2.375094 -2.455722 4.668148 0
M  V30 4 C 3.056574 -1.354817 5.100003 0
M  V30 5 C 2.701644 -0.054781 4.758450 0
M  V30 6 C 1.588757 0.092125 3.932067 0
M  V30 7 C 0.866452 -1.019578 3.471144 0
M  V30 8 N -0.192417 -0.538553 2.655778 0
M  V30 9 C -0.667968 -0.658600 1.325113 0
M  V30 10 N 0.000841 0.018456 0.367377 0
M  V30 11 C -0.440473 -0.072671 -0.900597 0
M  V30 12 C 0.243280 0.618128 -1.878963 0
M  V30 13 C 1.412609 1.427541 -1.590105 0
M  V30 14 N 2.114545 2.124325 -2.507345 0
M  V30 15 N 3.117294 2.761660 -1.973958 0
M  V30 16 C 3.139103 2.520638 -0.649509 0
M  V30 17 N 2.081523 1.702389 -0.460230 0
M  V30 18 C -0.174582 0.551641 -3.190214 0
M  V30 19 C -1.258488 -0.174827 -3.616794 0
M  V30 20 C -1.928523 -0.857169 -2.628572 0
M  V30 21 C -1.532984 -0.811597 -1.293892 0
M  V30 22 C -2.228270 -1.509940 -0.323698 0
M  V30 23 C -3.328534 -2.286028 -0.512464 0
M  V30 24 C -3.914616 -2.908555 0.524716 0
M  V30 25 S -2.788919 -2.341862 1.949192 0
M  V30 26 C -1.760005 -1.402798 0.961362 0
M  V30 27 H 2.576730 -3.483042 4.879785 0
M  V30 28 H 3.909179 -1.541336 5.737255 0
M  V30 29 H 3.300668 0.741663 5.148328 0
M  V30 30 H 1.412653 1.161587 3.735869 0
M  V30 31 H -0.909394 0.106117 3.028045 0
M  V30 32 H 3.826868 2.883762 0.098379 0
M  V30 33 H 1.852100 1.352241 0.474584 0
M  V30 34 H 0.354590 1.093092 -3.988046 0
M  V30 35 H -1.544290 -0.194494 -4.654956 0
M  V30 36 H -2.793590 -1.445249 -2.925099 0
M  V30 37 H -3.849640 -2.500661 -1.433123 0
M  V30 38 H -4.748262 -3.556954 0.714779 0
M  V30 END ATOM
M  V30 BEGIN BOND
M  V30 1 1 1 2
M  V30 2 2 2 3
M  V30 3 1 3 4
M  V30 4 2 4 5
M  V30 5 1 5 6
M  V30 6 2 6 7
M  V30 7 1 7 8
M  V30 8 1 8 9
M  V30 9 2 9 10
M  V30 10 1 10 11
M  V30 11 2 11 12
M  V30 12 1 12 13
M  V30 13 2 13 14
M  V30 14 1 14 15
M  V30 15 2 15 16
M  V30 16 1 16 17
M  V30 17 1 12 18
M  V30 18 2 18 19
M  V30 19 1 19 20
M  V30 20 2 20 21
M  V30 21 1 21 22
M  V30 22 1 22 23
M  V30 23 2 23 24
M  V30 24 1 24 25
M  V30 25 1 25 26
M  V30 26 1 7 2
M  V30 27 1 26 9
M  V30 28 1 21 11
M  V30 29 2 26 22
M  V30 30 1 17 13
M  V30 31 1 3 27
M  V30 32 1 4 28
M  V30 33 1 5 29
M  V30 34 1 6 30
M  V30 35 1 8 31
M  V30 36 1 16 32
M  V30 37 1 17 33
M  V30 38 1 18 34
M  V30 39 1 19 35
M  V30 40 1 20 36
M  V30 41 1 23 37
M  V30 42 1 24 38
M  V30 END BOND
M  V30 END CTAB
M  END
>  <Dataset>  (693) 
ChEMBL_Kinases

>  <Ligand_Instance>  (693) 
nan

>  <PDB_ID>  (693) 
nan

>  <Standardized_SMILES>  (693) 
Clc1ccccc1Nc1nc2c(-c3nnc[nH]3)cccc2c2ccsc12

>  <Name>  (693) 
nan

>  <Pocket>  (693) 
nan

>  <ATP_Site>  (693) 
nan

>  <Peripheral>  (693) 
nan

>  <Num_H_Atoms_ProtBoundConf>  (693) 
nan

>  <Num_Resolved_Atoms>  (693) 
nan

>  <Num_Not_Resolved_Atoms>  (693) 
nan

$$$$
CHEMBL2016888
     RDKit          3D

  0  0  0  0  0  0  0  0  0  0999 V3000
M  V30 BEGIN CTAB
M  V30 COUNTS 70 74 0 0 0
M  V30 BEGIN ATOM
M  V30 1 C -0.229645 -2.002305 3.528549 0
M  V30 2 C 0.039838 -1.263786 2.280713 0
M  V30 3 C 1.373933 -1.198166 1.865714 0
M  V30 4 N 2.422873 -1.800485 2.587005 0
M  V30 5 C 3.816963 -1.833745 2.286859 0
M  V30 6 C 4.205238 -2.673204 1.104528 0
M  V30 7 N 5.587622 -2.717991 0.790610 0
M  V30 8 C 5.831100 -3.587648 -0.342030 0
M  V30 9 C 5.393584 -2.734610 -1.507780 0
M  V30 10 C 5.667493 -1.335563 -1.019262 0
M  V30 11 C 6.222234 -1.513759 0.402524 0
M  V30 12 C 1.557806 -0.478137 0.691899 0
M  V30 13 C 0.568296 0.138357 -0.046613 0
M  V30 14 C 0.859379 0.885160 -1.289447 0
M  V30 15 O 1.129666 2.235559 -1.052182 0
M  V30 16 C 0.089334 2.903628 -0.454144 0
M  V30 17 C 0.417361 4.372094 -0.204819 0
M  V30 18 F 0.698170 5.020304 -1.391446 0
M  V30 19 F -0.705244 4.978482 0.327754 0
M  V30 20 F 1.471257 4.506930 0.669450 0
M  V30 21 C -0.733321 0.037638 0.414665 0
M  V30 22 C -0.973784 -0.664962 1.574586 0
M  V30 23 N -2.349949 -0.704871 1.940227 0
M  V30 24 C -3.346324 -1.764083 2.165667 0
M  V30 25 C -4.687569 -1.322655 1.604208 0
M  V30 26 N -4.520874 -0.394577 0.504906 0
M  V30 27 C -4.765807 -0.461347 -0.889409 0
M  V30 28 N -3.631469 -0.401328 -1.648655 0
M  V30 29 C -3.654922 -0.464937 -2.987348 0
M  V30 30 N -4.805181 -0.593197 -3.679392 0
M  V30 31 C -5.951397 -0.656994 -2.986409 0
M  V30 32 N -7.267281 -0.777891 -3.278222 0
M  V30 33 N -8.008560 -0.786269 -2.164253 0
M  V30 34 C -7.180579 -0.669522 -1.110717 0
M  V30 35 Br -7.774136 -0.625683 0.691351 0
M  V30 36 C -5.923519 -0.591424 -1.618042 0
M  V30 37 C -3.975025 0.846107 1.056464 0
M  V30 38 C -2.960325 0.621215 2.137361 0
M  V30 39 H -1.243819 -1.858995 3.877796 0
M  V30 40 H 0.447136 -1.551149 4.308820 0
M  V30 41 H 0.049583 -3.076610 3.487458 0
M  V30 42 H 2.119126 -2.296631 3.470639 0
M  V30 43 H 4.361033 -2.249031 3.158856 0
M  V30 44 H 4.236427 -0.786517 2.195764 0
M  V30 45 H 3.681772 -2.376713 0.179447 0
M  V30 46 H 3.863681 -3.742929 1.268475 0
M  V30 47 H 6.900839 -3.884298 -0.428324 0
M  V30 48 H 5.188358 -4.507006 -0.251626 0
M  V30 49 H 4.299395 -2.938767 -1.662758 0
M  V30 50 H 5.965510 -2.973146 -2.432044 0
M  V30 51 H 6.364532 -0.833628 -1.687368 0
M  V30 52 H 4.674684 -0.804465 -0.986884 0
M  V30 53 H 7.320948 -1.555069 0.381851 0
M  V30 54 H 5.853680 -0.673573 1.013849 0
M  V30 55 H 2.544718 -0.349885 0.281277 0
M  V30 56 H 1.668834 0.455662 -1.901441 0
M  V30 57 H -0.063751 0.898730 -1.940669 0
M  V30 58 H -0.122985 2.424828 0.521815 0
M  V30 59 H -0.807518 2.932451 -1.120497 0
M  V30 60 H -1.493188 0.524606 -0.165352 0
M  V30 61 H -3.017214 -2.746380 1.834535 0
M  V30 62 H -3.495370 -1.799941 3.282428 0
M  V30 63 H -5.284043 -0.818796 2.395824 0
M  V30 64 H -5.223263 -2.250749 1.327810 0
M  V30 65 H -2.744728 -0.416195 -3.591355 0
M  V30 66 H -7.577833 -0.850914 -4.289176 0
M  V30 67 H -4.804473 1.433456 1.552796 0
M  V30 68 H -3.645540 1.501449 0.232117 0
M  V30 69 H -3.432038 0.581570 3.144889 0
M  V30 70 H -2.209959 1.427977 2.204680 0
M  V30 END ATOM
M  V30 BEGIN BOND
M  V30 1 1 1 2
M  V30 2 2 2 3
M  V30 3 1 3 4
M  V30 4 1 4 5
M  V30 5 1 5 6
M  V30 6 1 6 7
M  V30 7 1 7 8
M  V30 8 1 8 9
M  V30 9 1 9 10
M  V30 10 1 10 11
M  V30 11 1 3 12
M  V30 12 2 12 13
M  V30 13 1 13 14
M  V30 14 1 14 15
M  V30 15 1 15 16
M  V30 16 1 16 17
M  V30 17 1 17 18
M  V30 18 1 17 19
M  V30 19 1 17 20
M  V30 20 1 13 21
M  V30 21 2 21 22
M  V30 22 1 22 23
M  V30 23 1 23 24
M  V30 24 1 24 25
M  V30 25 1 25 26
M  V30 26 1 26 27
M  V30 27 2 27 28
M  V30 28 1 28 29
M  V30 29 2 29 30
M  V30 30 1 30 31
M  V30 31 1 31 32
M  V30 32 1 32 33
M  V30 33 2 33 34
M  V30 34 1 34 35
M  V30 35 1 34 36
M  V30 36 1 26 37
M  V30 37 1 37 38
M  V30 38 1 22 2
M  V30 39 1 38 23
M  V30 40 1 11 7
M  V30 41 1 36 27
M  V30 42 2 36 31
M  V30 43 1 1 39
M  V30 44 1 1 40
M  V30 45 1 1 41
M  V30 46 1 4 42
M  V30 47 1 5 43
M  V30 48 1 5 44
M  V30 49 1 6 45
M  V30 50 1 6 46
M  V30 51 1 8 47
M  V30 52 1 8 48
M  V30 53 1 9 49
M  V30 54 1 9 50
M  V30 55 1 10 51
M  V30 56 1 10 52
M  V30 57 1 11 53
M  V30 58 1 11 54
M  V30 59 1 12 55
M  V30 60 1 14 56
M  V30 61 1 14 57
M  V30 62 1 16 58
M  V30 63 1 16 59
M  V30 64 1 21 60
M  V30 65 1 24 61
M  V30 66 1 24 62
M  V30 67 1 25 63
M  V30 68 1 25 64
M  V30 69 1 29 65
M  V30 70 1 32 66
M  V30 71 1 37 67
M  V30 72 1 37 68
M  V30 73 1 38 69
M  V30 74 1 38 70
M  V30 END BOND
M  V30 END CTAB
M  END
>  <Dataset>  (694) 
ChEMBL_Kinases

>  <Ligand_Instance>  (694) 
nan

>  <PDB_ID>  (694) 
nan

>  <Standardized_SMILES>  (694) 
Cc1c(NCCN2CCCC2)cc(COCC(F)(F)F)cc1N1CCN(c2ncnc3[nH]nc(Br)c23)CC1

>  <Name>  (694) 
nan

>  <Pocket>  (694) 
nan

>  <ATP_Site>  (694) 
nan

>  <Peripheral>  (694) 
nan

>  <Num_H_Atoms_ProtBoundConf>  (694) 
nan

>  <Num_Resolved_Atoms>  (694) 
nan

>  <Num_Not_Resolved_Atoms>  (694) 
nan

$$$$
CHEMBL2017326
     RDKit          3D

  0  0  0  0  0  0  0  0  0  0999 V3000
M  V30 BEGIN CTAB
M  V30 COUNTS 38 42 0 0 0
M  V30 BEGIN ATOM
M  V30 1 Cl 0.572465 -3.645786 2.719727 0
M  V30 2 C 0.756189 -2.214600 3.741284 0
M  V30 3 C 1.598139 -2.159256 4.819263 0
M  V30 4 C 1.663478 -0.991593 5.544180 0
M  V30 5 C 0.879900 0.080844 5.160767 0
M  V30 6 C 0.052400 -0.024269 4.072717 0
M  V30 7 C -0.051058 -1.195431 3.297635 0
M  V30 8 N -0.968449 -1.029193 2.233810 0
M  V30 9 C -0.853552 -1.122058 0.827294 0
M  V30 10 N -0.156502 -0.157093 0.212792 0
M  V30 11 C 0.025014 -0.111638 -1.109254 0
M  V30 12 C 0.766715 0.919237 -1.630871 0
M  V30 13 C 1.371085 2.006748 -0.894782 0
M  V30 14 N 2.127455 2.987702 -1.381120 0
M  V30 15 N 2.494526 3.786272 -0.390051 0
M  V30 16 C 1.953340 3.296212 0.764189 0
M  V30 17 N 1.243141 2.168494 0.436106 0
M  V30 18 C 0.923699 0.901514 -2.996756 0
M  V30 19 C 0.388276 -0.066674 -3.817327 0
M  V30 20 C -0.341947 -1.065840 -3.217153 0
M  V30 21 C -0.539868 -1.113835 -1.867656 0
M  V30 22 C -1.262811 -2.122445 -1.279373 0
M  V30 23 C -1.881915 -3.191132 -1.982184 0
M  V30 24 S -2.678361 -4.181199 -0.695392 0
M  V30 25 C -2.171878 -3.174990 0.629446 0
M  V30 26 C -1.416305 -2.121074 0.067160 0
M  V30 27 H 2.167485 -3.064762 5.029795 0
M  V30 28 H 2.334515 -0.963505 6.391380 0
M  V30 29 H 0.973804 0.969286 5.768325 0
M  V30 30 H -0.508350 0.903155 3.889721 0
M  V30 31 H -1.950322 -0.790212 2.521923 0
M  V30 32 H 2.208411 3.901990 1.647694 0
M  V30 33 H 0.784002 1.696492 1.209939 0
M  V30 34 H 1.499172 1.678446 -3.508893 0
M  V30 35 H 0.530740 -0.052343 -4.885959 0
M  V30 36 H -0.754133 -1.814760 -3.879338 0
M  V30 37 H -1.880820 -3.377855 -3.068397 0
M  V30 38 H -2.422961 -3.365983 1.701539 0
M  V30 END ATOM
M  V30 BEGIN BOND
M  V30 1 1 1 2
M  V30 2 2 2 3
M  V30 3 1 3 4
M  V30 4 2 4 5
M  V30 5 1 5 6
M  V30 6 2 6 7
M  V30 7 1 7 8
M  V30 8 1 8 9
M  V30 9 2 9 10
M  V30 10 1 10 11
M  V30 11 2 11 12
M  V30 12 1 12 13
M  V30 13 2 13 14
M  V30 14 1 14 15
M  V30 15 2 15 16
M  V30 16 1 16 17
M  V30 17 1 12 18
M  V30 18 2 18 19
M  V30 19 1 19 20
M  V30 20 2 20 21
M  V30 21 1 21 22
M  V30 22 2 22 23
M  V30 23 1 23 24
M  V30 24 1 24 25
M  V30 25 2 25 26
M  V30 26 1 7 2
M  V30 27 1 26 9
M  V30 28 1 21 11
M  V30 29 1 26 22
M  V30 30 1 17 13
M  V30 31 1 3 27
M  V30 32 1 4 28
M  V30 33 1 5 29
M  V30 34 1 6 30
M  V30 35 1 8 31
M  V30 36 1 16 32
M  V30 37 1 17 33
M  V30 38 1 18 34
M  V30 39 1 19 35
M  V30 40 1 20 36
M  V30 41 1 23 37
M  V30 42 1 25 38
M  V30 END BOND
M  V30 END CTAB
M  END
>  <Dataset>  (695) 
ChEMBL_Kinases

>  <Ligand_Instance>  (695) 
nan

>  <PDB_ID>  (695) 
nan

>  <Standardized_SMILES>  (695) 
Clc1ccccc1Nc1nc2c(-c3nnc[nH]3)cccc2c2cscc12

>  <Name>  (695) 
nan

>  <Pocket>  (695) 
nan

>  <ATP_Site>  (695) 
nan

>  <Peripheral>  (695) 
nan

>  <Num_H_Atoms_ProtBoundConf>  (695) 
nan

>  <Num_Resolved_Atoms>  (695) 
nan

>  <Num_Not_Resolved_Atoms>  (695) 
nan

$$$$
CHEMBL2017325
     RDKit          3D

  0  0  0  0  0  0  0  0  0  0999 V3000
M  V30 BEGIN CTAB
M  V30 COUNTS 38 42 0 0 0
M  V30 BEGIN ATOM
M  V30 1 C 1.506351 -3.488743 4.790007 0
M  V30 2 C 2.403933 -4.062312 3.920724 0
M  V30 3 C 2.349437 -3.564640 2.628172 0
M  V30 4 C 1.475005 -2.563590 2.182954 0
M  V30 5 N 1.542461 -2.173055 0.816331 0
M  V30 6 C 0.468926 -1.370658 0.295222 0
M  V30 7 N 0.682901 -0.089755 -0.022094 0
M  V30 8 C -0.331368 0.616832 -0.497747 0
M  V30 9 C -0.100322 1.936547 -0.828162 0
M  V30 10 C 1.225385 2.523800 -0.682403 0
M  V30 11 N 2.379329 1.975241 -0.264734 0
M  V30 12 N 3.378132 2.865387 -0.298693 0
M  V30 13 C 2.884295 4.025285 -0.745357 0
M  V30 14 N 1.577955 3.799090 -0.971800 0
M  V30 15 C -1.123601 2.713103 -1.329878 0
M  V30 16 C -2.397671 2.221535 -1.522760 0
M  V30 17 C -2.563821 0.883794 -1.170478 0
M  V30 18 C -1.580060 0.069521 -0.668368 0
M  V30 19 C -1.796096 -1.246206 -0.341450 0
M  V30 20 C -3.062499 -1.875118 -0.496901 0
M  V30 21 S -2.738461 -3.631821 0.096336 0
M  V30 22 C -1.011935 -3.301482 0.460323 0
M  V30 23 C -0.762162 -1.961526 0.140880 0
M  V30 24 C 0.617626 -2.056660 3.135703 0
M  V30 25 C 0.606936 -2.497736 4.449998 0
M  V30 26 H 1.522273 -3.863015 5.828929 0
M  V30 27 H 3.103845 -4.841097 4.194731 0
M  V30 28 H 3.069858 -4.023642 1.934857 0
M  V30 29 H 2.363925 -2.466558 0.243382 0
M  V30 30 H 3.328780 5.017924 -0.932094 0
M  V30 31 H 0.884455 4.518665 -1.337164 0
M  V30 32 H -0.985562 3.753287 -1.602935 0
M  V30 33 H -3.231792 2.778349 -1.910498 0
M  V30 34 H -3.586187 0.501966 -1.330502 0
M  V30 35 H -4.018020 -1.470792 -0.869736 0
M  V30 36 H -0.450572 -4.141635 0.855692 0
M  V30 37 H -0.055049 -1.273263 2.764916 0
M  V30 38 H -0.101911 -2.058154 5.166776 0
M  V30 END ATOM
M  V30 BEGIN BOND
M  V30 1 2 1 2
M  V30 2 1 2 3
M  V30 3 2 3 4
M  V30 4 1 4 5
M  V30 5 1 5 6
M  V30 6 2 6 7
M  V30 7 1 7 8
M  V30 8 2 8 9
M  V30 9 1 9 10
M  V30 10 2 10 11
M  V30 11 1 11 12
M  V30 12 2 12 13
M  V30 13 1 13 14
M  V30 14 1 9 15
M  V30 15 2 15 16
M  V30 16 1 16 17
M  V30 17 2 17 18
M  V30 18 1 18 19
M  V30 19 2 19 20
M  V30 20 1 20 21
M  V30 21 1 21 22
M  V30 22 2 22 23
M  V30 23 1 4 24
M  V30 24 2 24 25
M  V30 25 1 25 1
M  V30 26 1 23 6
M  V30 27 1 18 8
M  V30 28 1 23 19
M  V30 29 1 14 10
M  V30 30 1 1 26
M  V30 31 1 2 27
M  V30 32 1 3 28
M  V30 33 1 5 29
M  V30 34 1 13 30
M  V30 35 1 14 31
M  V30 36 1 15 32
M  V30 37 1 16 33
M  V30 38 1 17 34
M  V30 39 1 20 35
M  V30 40 1 22 36
M  V30 41 1 24 37
M  V30 42 1 25 38
M  V30 END BOND
M  V30 END CTAB
M  END
>  <Dataset>  (696) 
ChEMBL_Kinases

>  <Ligand_Instance>  (696) 
nan

>  <PDB_ID>  (696) 
nan

>  <Standardized_SMILES>  (696) 
c1ccc(Nc2nc3c(-c4nnc[nH]4)cccc3c3cscc23)cc1

>  <Name>  (696) 
nan

>  <Pocket>  (696) 
nan

>  <ATP_Site>  (696) 
nan

>  <Peripheral>  (696) 
nan

>  <Num_H_Atoms_ProtBoundConf>  (696) 
nan

>  <Num_Resolved_Atoms>  (696) 
nan

>  <Num_Not_Resolved_Atoms>  (696) 
nan

$$$$
CHEMBL2017324
     RDKit          3D

  0  0  0  0  0  0  0  0  0  0999 V3000
M  V30 BEGIN CTAB
M  V30 COUNTS 38 42 0 0 0
M  V30 BEGIN ATOM
M  V30 1 F 0.433628 -3.405955 2.473457 0
M  V30 2 C 0.838118 -2.390603 3.281235 0
M  V30 3 C 1.873858 -2.436514 4.170099 0
M  V30 4 C 2.152274 -1.307663 4.917196 0
M  V30 5 C 1.405431 -0.148024 4.777018 0
M  V30 6 C 0.366256 -0.145396 3.864770 0
M  V30 7 C 0.056241 -1.275838 3.089725 0
M  V30 8 N -1.045851 -0.988041 2.236707 0
M  V30 9 C -0.928663 -1.087536 0.821600 0
M  V30 10 N -0.288852 -0.078009 0.237192 0
M  V30 11 C -0.037320 0.099781 -1.052615 0
M  V30 12 C 0.633530 1.178880 -1.540830 0
M  V30 13 C 1.142428 2.240899 -0.715208 0
M  V30 14 N 1.801664 3.329559 -1.127903 0
M  V30 15 N 2.112399 4.077878 -0.095239 0
M  V30 16 C 1.656363 3.487530 1.044337 0
M  V30 17 N 1.063632 2.357019 0.622292 0
M  V30 18 C 0.834533 1.242516 -2.926689 0
M  V30 19 C 0.335164 0.204622 -3.683359 0
M  V30 20 C -0.351814 -0.906860 -3.222178 0
M  V30 21 C -0.516985 -0.909256 -1.843502 0
M  V30 22 C -1.193652 -1.991681 -1.305383 0
M  V30 23 S -1.925264 -3.425159 -2.071096 0
M  V30 24 C -2.514116 -4.135663 -0.506683 0
M  V30 25 C -2.106290 -3.217341 0.510919 0
M  V30 26 C -1.428591 -2.123862 0.068515 0
M  V30 27 H 2.401920 -3.377660 4.213384 0
M  V30 28 H 2.987667 -1.417004 5.602463 0
M  V30 29 H 1.660313 0.710681 5.382765 0
M  V30 30 H -0.159897 0.819943 3.830335 0
M  V30 31 H -1.994754 -0.689896 2.602788 0
M  V30 32 H 1.860820 4.023661 1.959130 0
M  V30 33 H 0.637815 1.742271 1.339484 0
M  V30 34 H 1.353149 2.056532 -3.411533 0
M  V30 35 H 0.502184 0.265348 -4.770321 0
M  V30 36 H -0.706837 -1.669686 -3.895420 0
M  V30 37 H -3.074049 -5.079761 -0.328346 0
M  V30 38 H -2.361735 -3.450846 1.533075 0
M  V30 END ATOM
M  V30 BEGIN BOND
M  V30 1 1 1 2
M  V30 2 2 2 3
M  V30 3 1 3 4
M  V30 4 2 4 5
M  V30 5 1 5 6
M  V30 6 2 6 7
M  V30 7 1 7 8
M  V30 8 1 8 9
M  V30 9 2 9 10
M  V30 10 1 10 11
M  V30 11 2 11 12
M  V30 12 1 12 13
M  V30 13 2 13 14
M  V30 14 1 14 15
M  V30 15 2 15 16
M  V30 16 1 16 17
M  V30 17 1 12 18
M  V30 18 2 18 19
M  V30 19 1 19 20
M  V30 20 2 20 21
M  V30 21 1 21 22
M  V30 22 1 22 23
M  V30 23 1 23 24
M  V30 24 2 24 25
M  V30 25 1 25 26
M  V30 26 1 7 2
M  V30 27 1 26 9
M  V30 28 1 21 11
M  V30 29 2 26 22
M  V30 30 1 17 13
M  V30 31 1 3 27
M  V30 32 1 4 28
M  V30 33 1 5 29
M  V30 34 1 6 30
M  V30 35 1 8 31
M  V30 36 1 16 32
M  V30 37 1 17 33
M  V30 38 1 18 34
M  V30 39 1 19 35
M  V30 40 1 20 36
M  V30 41 1 24 37
M  V30 42 1 25 38
M  V30 END BOND
M  V30 END CTAB
M  END
>  <Dataset>  (697) 
ChEMBL_Kinases

>  <Ligand_Instance>  (697) 
nan

>  <PDB_ID>  (697) 
nan

>  <Standardized_SMILES>  (697) 
Fc1ccccc1Nc1nc2c(-c3nnc[nH]3)cccc2c2sccc12

>  <Name>  (697) 
nan

>  <Pocket>  (697) 
nan

>  <ATP_Site>  (697) 
nan

>  <Peripheral>  (697) 
nan

>  <Num_H_Atoms_ProtBoundConf>  (697) 
nan

>  <Num_Resolved_Atoms>  (697) 
nan

>  <Num_Not_Resolved_Atoms>  (697) 
nan

$$$$
CHEMBL2017323
     RDKit          3D

  0  0  0  0  0  0  0  0  0  0999 V3000
M  V30 BEGIN CTAB
M  V30 COUNTS 38 42 0 0 0
M  V30 BEGIN ATOM
M  V30 1 Cl 0.631419 -3.764365 2.532691 0
M  V30 2 C 0.956638 -2.373914 3.520167 0
M  V30 3 C 1.859547 -2.301147 4.525852 0
M  V30 4 C 2.036946 -1.143092 5.245166 0
M  V30 5 C 1.265882 -0.050561 4.914221 0
M  V30 6 C 0.342888 -0.113856 3.891845 0
M  V30 7 C 0.155308 -1.299466 3.147564 0
M  V30 8 N -0.843282 -1.075112 2.161362 0
M  V30 9 C -0.838674 -1.155258 0.742776 0
M  V30 10 N -0.206502 -0.135989 0.172996 0
M  V30 11 C -0.026806 0.093397 -1.124873 0
M  V30 12 C 0.638198 1.169937 -1.657928 0
M  V30 13 C 1.212825 2.173828 -0.808996 0
M  V30 14 N 1.875329 3.257594 -1.216931 0
M  V30 15 N 2.280671 3.991633 -0.201201 0
M  V30 16 C 1.886010 3.396454 0.942690 0
M  V30 17 N 1.230797 2.277997 0.521570 0
M  V30 18 C 0.733021 1.256300 -3.032390 0
M  V30 19 C 0.158283 0.261493 -3.806837 0
M  V30 20 C -0.520755 -0.838955 -3.296745 0
M  V30 21 C -0.583400 -0.871814 -1.927945 0
M  V30 22 C -1.258741 -1.962100 -1.391760 0
M  V30 23 S -2.081261 -3.350255 -2.149137 0
M  V30 24 C -2.587065 -4.101074 -0.581069 0
M  V30 25 C -2.084317 -3.224277 0.446499 0
M  V30 26 C -1.413693 -2.147631 -0.017595 0
M  V30 27 H 2.407229 -3.218442 4.694078 0
M  V30 28 H 2.789630 -1.184176 6.034464 0
M  V30 29 H 1.447176 0.830609 5.513723 0
M  V30 30 H -0.181151 0.829037 3.759201 0
M  V30 31 H -1.813169 -0.794228 2.410196 0
M  V30 32 H 2.082676 3.780162 1.922154 0
M  V30 33 H 0.831376 1.649327 1.238207 0
M  V30 34 H 1.251629 2.096177 -3.421449 0
M  V30 35 H 0.254233 0.365995 -4.870447 0
M  V30 36 H -0.959594 -1.600247 -3.914156 0
M  V30 37 H -3.178693 -5.058514 -0.312875 0
M  V30 38 H -2.275891 -3.486599 1.477094 0
M  V30 END ATOM
M  V30 BEGIN BOND
M  V30 1 1 1 2
M  V30 2 2 2 3
M  V30 3 1 3 4
M  V30 4 2 4 5
M  V30 5 1 5 6
M  V30 6 2 6 7
M  V30 7 1 7 8
M  V30 8 1 8 9
M  V30 9 2 9 10
M  V30 10 1 10 11
M  V30 11 2 11 12
M  V30 12 1 12 13
M  V30 13 2 13 14
M  V30 14 1 14 15
M  V30 15 2 15 16
M  V30 16 1 16 17
M  V30 17 1 12 18
M  V30 18 2 18 19
M  V30 19 1 19 20
M  V30 20 2 20 21
M  V30 21 1 21 22
M  V30 22 1 22 23
M  V30 23 1 23 24
M  V30 24 2 24 25
M  V30 25 1 25 26
M  V30 26 1 7 2
M  V30 27 1 26 9
M  V30 28 1 21 11
M  V30 29 2 26 22
M  V30 30 1 17 13
M  V30 31 1 3 27
M  V30 32 1 4 28
M  V30 33 1 5 29
M  V30 34 1 6 30
M  V30 35 1 8 31
M  V30 36 1 16 32
M  V30 37 1 17 33
M  V30 38 1 18 34
M  V30 39 1 19 35
M  V30 40 1 20 36
M  V30 41 1 24 37
M  V30 42 1 25 38
M  V30 END BOND
M  V30 END CTAB
M  END
>  <Dataset>  (698) 
ChEMBL_Kinases

>  <Ligand_Instance>  (698) 
nan

>  <PDB_ID>  (698) 
nan

>  <Standardized_SMILES>  (698) 
Clc1ccccc1Nc1nc2c(-c3nnc[nH]3)cccc2c2sccc12

>  <Name>  (698) 
nan

>  <Pocket>  (698) 
nan

>  <ATP_Site>  (698) 
nan

>  <Peripheral>  (698) 
nan

>  <Num_H_Atoms_ProtBoundConf>  (698) 
nan

>  <Num_Resolved_Atoms>  (698) 
nan

>  <Num_Not_Resolved_Atoms>  (698) 
nan

$$$$
CHEMBL2017322
     RDKit          3D

  0  0  0  0  0  0  0  0  0  0999 V3000
M  V30 BEGIN CTAB
M  V30 COUNTS 38 42 0 0 0
M  V30 BEGIN ATOM
M  V30 1 C 1.338245 -2.475520 4.871672 0
M  V30 2 C 2.510151 -2.814591 4.226901 0
M  V30 3 C 2.650089 -2.559064 2.883735 0
M  V30 4 C 1.656501 -1.961139 2.096149 0
M  V30 5 N 1.846520 -1.723199 0.697853 0
M  V30 6 C 0.630652 -1.296306 0.091218 0
M  V30 7 N 0.497370 -0.001639 -0.147997 0
M  V30 8 C -0.524700 0.637437 -0.683323 0
M  V30 9 C -0.583291 1.990807 -0.897284 0
M  V30 10 C 0.513623 2.863638 -0.521403 0
M  V30 11 N 0.519220 4.197085 -0.687206 0
M  V30 12 N 1.647977 4.734386 -0.240286 0
M  V30 13 C 2.417276 3.714999 0.239503 0
M  V30 14 N 1.716855 2.575395 0.063521 0
M  V30 15 C -1.718359 2.495491 -1.463243 0
M  V30 16 C -2.759872 1.657192 -1.801107 0
M  V30 17 C -2.715541 0.271018 -1.589114 0
M  V30 18 C -1.574860 -0.188068 -1.026361 0
M  V30 19 C -1.509705 -1.573187 -0.803974 0
M  V30 20 S -2.646379 -2.833997 -1.107048 0
M  V30 21 C -1.573865 -4.195388 -0.442996 0
M  V30 22 C -0.367947 -3.506437 -0.024796 0
M  V30 23 C -0.393070 -2.176039 -0.232694 0
M  V30 24 C 0.509356 -1.649668 2.817119 0
M  V30 25 C 0.315792 -1.881182 4.157044 0
M  V30 26 H 1.202747 -2.665737 5.925862 0
M  V30 27 H 3.331326 -3.289052 4.775919 0
M  V30 28 H 3.567197 -2.832126 2.422074 0
M  V30 29 H 2.821896 -1.888582 0.347217 0
M  V30 30 H 3.390091 3.927296 0.655015 0
M  V30 31 H 2.068230 1.645705 0.338321 0
M  V30 32 H -1.835740 3.551708 -1.662947 0
M  V30 33 H -3.676852 2.051485 -2.257721 0
M  V30 34 H -3.539812 -0.397418 -1.853976 0
M  V30 35 H -1.711283 -5.348611 -0.327973 0
M  V30 36 H 0.404040 -4.120957 0.397630 0
M  V30 37 H -0.297958 -1.178767 2.254101 0
M  V30 38 H -0.651197 -1.578101 4.592776 0
M  V30 END ATOM
M  V30 BEGIN BOND
M  V30 1 2 1 2
M  V30 2 1 2 3
M  V30 3 2 3 4
M  V30 4 1 4 5
M  V30 5 1 5 6
M  V30 6 2 6 7
M  V30 7 1 7 8
M  V30 8 2 8 9
M  V30 9 1 9 10
M  V30 10 2 10 11
M  V30 11 1 11 12
M  V30 12 2 12 13
M  V30 13 1 13 14
M  V30 14 1 9 15
M  V30 15 2 15 16
M  V30 16 1 16 17
M  V30 17 2 17 18
M  V30 18 1 18 19
M  V30 19 1 19 20
M  V30 20 1 20 21
M  V30 21 2 21 22
M  V30 22 1 22 23
M  V30 23 1 4 24
M  V30 24 2 24 25
M  V30 25 1 25 1
M  V30 26 1 23 6
M  V30 27 1 18 8
M  V30 28 2 23 19
M  V30 29 1 14 10
M  V30 30 1 1 26
M  V30 31 1 2 27
M  V30 32 1 3 28
M  V30 33 1 5 29
M  V30 34 1 13 30
M  V30 35 1 14 31
M  V30 36 1 15 32
M  V30 37 1 16 33
M  V30 38 1 17 34
M  V30 39 1 21 35
M  V30 40 1 22 36
M  V30 41 1 24 37
M  V30 42 1 25 38
M  V30 END BOND
M  V30 END CTAB
M  END
>  <Dataset>  (699) 
ChEMBL_Kinases

>  <Ligand_Instance>  (699) 
nan

>  <PDB_ID>  (699) 
nan

>  <Standardized_SMILES>  (699) 
c1ccc(Nc2nc3c(-c4nnc[nH]4)cccc3c3sccc23)cc1

>  <Name>  (699) 
nan

>  <Pocket>  (699) 
nan

>  <ATP_Site>  (699) 
nan

>  <Peripheral>  (699) 
nan

>  <Num_H_Atoms_ProtBoundConf>  (699) 
nan

>  <Num_Resolved_Atoms>  (699) 
nan

>  <Num_Not_Resolved_Atoms>  (699) 
nan

$$$$
CHEMBL2016893
     RDKit          3D

  0  0  0  0  0  0  0  0  0  0999 V3000
M  V30 BEGIN CTAB
M  V30 COUNTS 71 75 0 0 0
M  V30 BEGIN ATOM
M  V30 1 C 0.780192 -2.803012 0.756463 0
M  V30 2 C -0.382409 -1.918604 0.667495 0
M  V30 3 C -1.490486 -2.351605 -0.025298 0
M  V30 4 N -1.535364 -3.611747 -0.691502 0
M  V30 5 C -2.728387 -4.023952 -1.406814 0
M  V30 6 C -2.629242 -5.357457 -2.058753 0
M  V30 7 N -1.556283 -5.380619 -3.029558 0
M  V30 8 C -1.416657 -6.666619 -3.688203 0
M  V30 9 C -0.925673 -6.388295 -5.076475 0
M  V30 10 C -1.004798 -4.912972 -5.300945 0
M  V30 11 C -1.726141 -4.412115 -4.080611 0
M  V30 12 C -2.599111 -1.535833 -0.086011 0
M  V30 13 C -2.610054 -0.304639 0.532405 0
M  V30 14 C -3.841162 0.507066 0.418571 0
M  V30 15 O -4.796773 0.013806 -0.239159 0
M  V30 16 C -4.043450 1.831026 1.003368 0
M  V30 17 C -3.775103 2.991596 0.105197 0
M  V30 18 C -4.626040 3.038202 -1.138189 0
M  V30 19 F -4.445610 1.925253 -1.922176 0
M  V30 20 F -4.267665 4.179324 -1.834556 0
M  V30 21 F -5.958300 3.141078 -0.745362 0
M  V30 22 C -1.494335 0.105810 1.215993 0
M  V30 23 C -0.353091 -0.696171 1.297289 0
M  V30 24 N 0.760240 -0.140959 1.991622 0
M  V30 25 C 0.462230 0.729903 3.125324 0
M  V30 26 C 1.087414 2.096570 2.993112 0
M  V30 27 N 2.526023 1.989172 2.726940 0
M  V30 28 C 3.770745 2.360212 3.311186 0
M  V30 29 N 4.492328 1.234580 3.592152 0
M  V30 30 C 5.715616 1.336110 4.163041 0
M  V30 31 N 6.227385 2.541445 4.456844 0
M  V30 32 C 5.557353 3.671111 4.199710 0
M  V30 33 N 5.715090 5.017002 4.335138 0
M  V30 34 N 4.645224 5.670880 3.869939 0
M  V30 35 C 3.741591 4.786198 3.410428 0
M  V30 36 Br 2.061894 5.205667 2.648144 0
M  V30 37 C 4.315742 3.565554 3.619952 0
M  V30 38 C 2.633037 1.255861 1.477826 0
M  V30 39 C 2.201326 -0.176484 1.862366 0
M  V30 40 H 1.549447 -2.682779 0.000243 0
M  V30 41 H 0.475104 -3.895340 0.775451 0
M  V30 42 H 1.257534 -2.677460 1.768178 0
M  V30 43 H -0.773655 -4.317729 -0.734492 0
M  V30 44 H -2.953099 -3.210854 -2.125831 0
M  V30 45 H -3.517432 -4.081694 -0.600223 0
M  V30 46 H -3.597257 -5.546861 -2.564951 0
M  V30 47 H -2.465411 -6.181123 -1.345500 0
M  V30 48 H -0.645199 -7.262212 -3.154252 0
M  V30 49 H -2.384974 -7.223192 -3.714911 0
M  V30 50 H -1.532762 -6.882875 -5.856269 0
M  V30 51 H 0.166707 -6.656867 -5.178951 0
M  V30 52 H -0.009597 -4.413108 -5.297721 0
M  V30 53 H -1.589272 -4.636602 -6.202610 0
M  V30 54 H -1.291802 -3.449148 -3.693728 0
M  V30 55 H -2.755726 -4.198236 -4.341931 0
M  V30 56 H -3.465963 -1.904887 -0.642469 0
M  V30 57 H -5.117551 1.917499 1.318219 0
M  V30 58 H -3.446002 1.992874 1.932570 0
M  V30 59 H -4.035687 3.915772 0.697166 0
M  V30 60 H -2.699855 3.064827 -0.157321 0
M  V30 61 H -1.639349 1.099939 1.649269 0
M  V30 62 H 0.962303 0.246162 4.016436 0
M  V30 63 H -0.617082 0.784206 3.327691 0
M  V30 64 H 0.593952 2.587454 2.130878 0
M  V30 65 H 0.841333 2.648914 3.895315 0
M  V30 66 H 6.318804 0.459195 4.400189 0
M  V30 67 H 6.606736 5.405719 4.765979 0
M  V30 68 H 3.682524 1.119442 1.133156 0
M  V30 69 H 1.978035 1.658055 0.705390 0
M  V30 70 H 2.676862 -0.438817 2.812745 0
M  V30 71 H 2.578312 -0.882047 1.094993 0
M  V30 END ATOM
M  V30 BEGIN BOND
M  V30 1 1 1 2
M  V30 2 2 2 3
M  V30 3 1 3 4
M  V30 4 1 4 5
M  V30 5 1 5 6
M  V30 6 1 6 7
M  V30 7 1 7 8
M  V30 8 1 8 9
M  V30 9 1 9 10
M  V30 10 1 10 11
M  V30 11 1 3 12
M  V30 12 2 12 13
M  V30 13 1 13 14
M  V30 14 2 14 15
M  V30 15 1 14 16
M  V30 16 1 16 17
M  V30 17 1 17 18
M  V30 18 1 18 19
M  V30 19 1 18 20
M  V30 20 1 18 21
M  V30 21 1 13 22
M  V30 22 2 22 23
M  V30 23 1 23 24
M  V30 24 1 24 25
M  V30 25 1 25 26
M  V30 26 1 26 27
M  V30 27 1 27 28
M  V30 28 2 28 29
M  V30 29 1 29 30
M  V30 30 2 30 31
M  V30 31 1 31 32
M  V30 32 1 32 33
M  V30 33 1 33 34
M  V30 34 2 34 35
M  V30 35 1 35 36
M  V30 36 1 35 37
M  V30 37 1 27 38
M  V30 38 1 38 39
M  V30 39 1 23 2
M  V30 40 1 39 24
M  V30 41 1 11 7
M  V30 42 1 37 28
M  V30 43 2 37 32
M  V30 44 1 1 40
M  V30 45 1 1 41
M  V30 46 1 1 42
M  V30 47 1 4 43
M  V30 48 1 5 44
M  V30 49 1 5 45
M  V30 50 1 6 46
M  V30 51 1 6 47
M  V30 52 1 8 48
M  V30 53 1 8 49
M  V30 54 1 9 50
M  V30 55 1 9 51
M  V30 56 1 10 52
M  V30 57 1 10 53
M  V30 58 1 11 54
M  V30 59 1 11 55
M  V30 60 1 12 56
M  V30 61 1 16 57
M  V30 62 1 16 58
M  V30 63 1 17 59
M  V30 64 1 17 60
M  V30 65 1 22 61
M  V30 66 1 25 62
M  V30 67 1 25 63
M  V30 68 1 26 64
M  V30 69 1 26 65
M  V30 70 1 30 66
M  V30 71 1 33 67
M  V30 72 1 38 68
M  V30 73 1 38 69
M  V30 74 1 39 70
M  V30 75 1 39 71
M  V30 END BOND
M  V30 END CTAB
M  END
>  <Dataset>  (700) 
ChEMBL_Kinases

>  <Ligand_Instance>  (700) 
nan

>  <PDB_ID>  (700) 
nan

>  <Standardized_SMILES>  (700) 
Cc1c(NCCN2CCCC2)cc(C(=O)CCC(F)(F)F)cc1N1CCN(c2ncnc3[nH]nc(Br)c23)CC1

>  <Name>  (700) 
XL-418

>  <Pocket>  (700) 
nan

>  <ATP_Site>  (700) 
nan

>  <Peripheral>  (700) 
nan

>  <Num_H_Atoms_ProtBoundConf>  (700) 
nan

>  <Num_Resolved_Atoms>  (700) 
nan

>  <Num_Not_Resolved_Atoms>  (700) 
nan

$$$$
CHEMBL2016892
     RDKit          3D

  0  0  0  0  0  0  0  0  0  0999 V3000
M  V30 BEGIN CTAB
M  V30 COUNTS 68 72 0 0 0
M  V30 BEGIN ATOM
M  V30 1 C 5.303405 -1.402848 3.853687 0
M  V30 2 C 4.002960 -0.621056 3.889711 0
M  V30 3 C 3.697343 0.082577 2.633843 0
M  V30 4 O 4.585479 0.878513 2.227740 0
M  V30 5 C 2.479417 -0.065252 1.840983 0
M  V30 6 C 2.361023 0.709063 0.705688 0
M  V30 7 C 1.236842 0.614642 -0.116838 0
M  V30 8 N 1.132938 1.410716 -1.265444 0
M  V30 9 C 2.195291 2.335603 -1.606549 0
M  V30 10 C 1.923071 3.083770 -2.876372 0
M  V30 11 N 0.770747 3.882680 -2.936238 0
M  V30 12 C 0.558750 4.591183 -4.168214 0
M  V30 13 C -0.424955 5.699502 -3.873930 0
M  V30 14 C -0.486119 5.778844 -2.375281 0
M  V30 15 C 0.441623 4.724746 -1.852932 0
M  V30 16 C 0.231396 -0.269498 0.218124 0
M  V30 17 C -1.002396 -0.450822 -0.583853 0
M  V30 18 C 0.319765 -1.064552 1.355743 0
M  V30 19 N -0.605700 -2.006359 1.827358 0
M  V30 20 C -2.005430 -1.798113 2.235071 0
M  V30 21 C -2.611163 -3.044815 2.774140 0
M  V30 22 N -2.347878 -4.234414 1.969280 0
M  V30 23 C -3.079679 -5.428986 1.751645 0
M  V30 24 N -2.468285 -6.453509 2.414325 0
M  V30 25 C -3.009375 -7.702385 2.375946 0
M  V30 26 N -4.142697 -7.943885 1.692358 0
M  V30 27 C -4.795997 -6.976199 1.016389 0
M  V30 28 N -5.888202 -6.812035 0.247058 0
M  V30 29 N -5.988312 -5.537157 -0.150279 0
M  V30 30 C -4.953653 -4.834522 0.355371 0
M  V30 31 Br -4.671752 -2.980985 0.036080 0
M  V30 32 C -4.221031 -5.726437 1.076248 0
M  V30 33 C -1.103490 -4.257570 1.214989 0
M  V30 34 C -0.115448 -3.356601 1.924966 0
M  V30 35 C 1.461248 -0.941458 2.154535 0
M  V30 36 H 6.089797 -0.980943 4.509021 0
M  V30 37 H 5.120572 -2.452414 4.225735 0
M  V30 38 H 5.726182 -1.480397 2.820055 0
M  V30 39 H 3.157830 -1.192694 4.310482 0
M  V30 40 H 4.185377 0.200324 4.654843 0
M  V30 41 H 3.128997 1.411594 0.414593 0
M  V30 42 H 0.320670 1.386800 -1.914741 0
M  V30 43 H 2.527456 2.964609 -0.765855 0
M  V30 44 H 3.082882 1.671159 -1.831079 0
M  V30 45 H 1.825169 2.292950 -3.680383 0
M  V30 46 H 2.800021 3.683527 -3.198093 0
M  V30 47 H 1.536789 4.954093 -4.515009 0
M  V30 48 H 0.154488 3.865922 -4.909897 0
M  V30 49 H -0.060841 6.641102 -4.335840 0
M  V30 50 H -1.399823 5.425706 -4.332320 0
M  V30 51 H -0.201609 6.810589 -2.086189 0
M  V30 52 H -1.547672 5.583160 -2.090376 0
M  V30 53 H -0.159853 4.100481 -1.125317 0
M  V30 54 H 1.281736 5.126857 -1.255948 0
M  V30 55 H -0.790927 -0.288268 -1.662406 0
M  V30 56 H -1.821610 0.233126 -0.329015 0
M  V30 57 H -1.333227 -1.533482 -0.548565 0
M  V30 58 H -2.573505 -1.271016 1.473870 0
M  V30 59 H -1.911302 -1.084174 3.109388 0
M  V30 60 H -3.684126 -2.929061 2.902810 0
M  V30 61 H -2.194535 -3.203219 3.814537 0
M  V30 62 H -2.609815 -8.580857 2.862309 0
M  V30 63 H -6.496688 -7.659053 0.063901 0
M  V30 64 H -0.689332 -5.275298 1.064223 0
M  V30 65 H -1.381208 -3.807660 0.217149 0
M  V30 66 H 0.917156 -3.507807 1.610945 0
M  V30 67 H -0.195128 -3.630937 3.016370 0
M  V30 68 H 1.599119 -1.537964 3.060223 0
M  V30 END ATOM
M  V30 BEGIN BOND
M  V30 1 1 1 2
M  V30 2 1 2 3
M  V30 3 2 3 4
M  V30 4 1 3 5
M  V30 5 2 5 6
M  V30 6 1 6 7
M  V30 7 1 7 8
M  V30 8 1 8 9
M  V30 9 1 9 10
M  V30 10 1 10 11
M  V30 11 1 11 12
M  V30 12 1 12 13
M  V30 13 1 13 14
M  V30 14 1 14 15
M  V30 15 2 7 16
M  V30 16 1 16 17
M  V30 17 1 16 18
M  V30 18 1 18 19
M  V30 19 1 19 20
M  V30 20 1 20 21
M  V30 21 1 21 22
M  V30 22 1 22 23
M  V30 23 2 23 24
M  V30 24 1 24 25
M  V30 25 2 25 26
M  V30 26 1 26 27
M  V30 27 1 27 28
M  V30 28 1 28 29
M  V30 29 2 29 30
M  V30 30 1 30 31
M  V30 31 1 30 32
M  V30 32 1 22 33
M  V30 33 1 33 34
M  V30 34 2 18 35
M  V30 35 1 35 5
M  V30 36 1 15 11
M  V30 37 1 34 19
M  V30 38 1 32 23
M  V30 39 2 32 27
M  V30 40 1 1 36
M  V30 41 1 1 37
M  V30 42 1 1 38
M  V30 43 1 2 39
M  V30 44 1 2 40
M  V30 45 1 6 41
M  V30 46 1 8 42
M  V30 47 1 9 43
M  V30 48 1 9 44
M  V30 49 1 10 45
M  V30 50 1 10 46
M  V30 51 1 12 47
M  V30 52 1 12 48
M  V30 53 1 13 49
M  V30 54 1 13 50
M  V30 55 1 14 51
M  V30 56 1 14 52
M  V30 57 1 15 53
M  V30 58 1 15 54
M  V30 59 1 17 55
M  V30 60 1 17 56
M  V30 61 1 17 57
M  V30 62 1 20 58
M  V30 63 1 20 59
M  V30 64 1 21 60
M  V30 65 1 21 61
M  V30 66 1 25 62
M  V30 67 1 28 63
M  V30 68 1 33 64
M  V30 69 1 33 65
M  V30 70 1 34 66
M  V30 71 1 34 67
M  V30 72 1 35 68
M  V30 END BOND
M  V30 END CTAB
M  END
>  <Dataset>  (701) 
ChEMBL_Kinases

>  <Ligand_Instance>  (701) 
nan

>  <PDB_ID>  (701) 
nan

>  <Standardized_SMILES>  (701) 
CCC(=O)c1cc(NCCN2CCCC2)c(C)c(N2CCN(c3ncnc4[nH]nc(Br)c34)CC2)c1

>  <Name>  (701) 
nan

>  <Pocket>  (701) 
nan

>  <ATP_Site>  (701) 
nan

>  <Peripheral>  (701) 
nan

>  <Num_H_Atoms_ProtBoundConf>  (701) 
nan

>  <Num_Resolved_Atoms>  (701) 
nan

>  <Num_Not_Resolved_Atoms>  (701) 
nan

$$$$
CHEMBL2016891
     RDKit          3D

  0  0  0  0  0  0  0  0  0  0999 V3000
M  V30 BEGIN CTAB
M  V30 COUNTS 66 70 0 0 0
M  V30 BEGIN ATOM
M  V30 1 C 5.322245 -3.159935 2.736905 0
M  V30 2 O 3.975514 -2.915853 2.464004 0
M  V30 3 C 3.429352 -1.735447 2.033910 0
M  V30 4 O 4.081837 -2.687427 2.412357 0
M  V30 5 C 2.335794 -0.906389 1.632114 0
M  V30 6 C 2.720395 0.363967 1.289246 0
M  V30 7 C 1.682029 1.218921 0.881259 0
M  V30 8 N 1.885348 2.543982 0.424816 0
M  V30 9 C 2.090854 3.863570 -0.029249 0
M  V30 10 C 0.814535 4.557316 -0.561974 0
M  V30 11 N 0.233575 3.842781 -1.661319 0
M  V30 12 C 1.041226 3.860710 -2.863248 0
M  V30 13 C 0.029286 3.484935 -3.950407 0
M  V30 14 C -1.154233 4.316649 -3.531865 0
M  V30 15 C -1.076965 4.266383 -2.019096 0
M  V30 16 C 0.389375 0.751474 0.852979 0
M  V30 17 C -0.813927 1.543665 0.447871 0
M  V30 18 C 0.002936 -0.517424 1.194521 0
M  V30 19 N -1.252068 -1.147455 1.254554 0
M  V30 20 C -2.291314 -1.298244 2.247905 0
M  V30 21 C -3.092995 -2.529133 2.099757 0
M  V30 22 N -2.544137 -3.581507 1.273217 0
M  V30 23 C -2.649965 -4.996583 1.264460 0
M  V30 24 N -3.431098 -5.406234 0.208765 0
M  V30 25 C -3.644132 -6.748132 0.072388 0
M  V30 26 N -3.155202 -7.670820 0.876668 0
M  V30 27 C -2.381333 -7.304981 1.928600 0
M  V30 28 N -1.697160 -7.874200 2.965198 0
M  V30 29 N -1.110346 -6.945104 3.679930 0
M  V30 30 C -1.346932 -5.735088 3.198586 0
M  V30 31 Br -0.715683 -4.102085 3.882815 0
M  V30 32 C -2.128375 -5.950108 2.121709 0
M  V30 33 C -1.651818 -3.238293 0.156263 0
M  V30 34 C -1.571415 -1.752984 -0.028991 0
M  V30 35 C 1.032968 -1.324735 1.584320 0
M  V30 36 H 5.740599 -3.945894 2.043424 0
M  V30 37 H 5.962765 -2.267449 2.631568 0
M  V30 38 H 5.438202 -3.595418 3.774772 0
M  V30 39 H 3.734792 0.702937 1.322642 0
M  V30 40 H 2.929215 2.623964 0.575648 0
M  V30 41 H 2.429916 4.609988 0.760524 0
M  V30 42 H 2.803364 3.997271 -0.891833 0
M  V30 43 H 1.107420 5.560050 -0.959127 0
M  V30 44 H 0.105382 4.730665 0.253805 0
M  V30 45 H 1.839283 3.098841 -2.792576 0
M  V30 46 H 1.393376 4.872203 -3.066931 0
M  V30 47 H 0.384923 3.773241 -4.957886 0
M  V30 48 H -0.164683 2.396812 -3.883957 0
M  V30 49 H -2.108784 3.873763 -3.888580 0
M  V30 50 H -1.064984 5.342302 -3.932511 0
M  V30 51 H -1.402336 5.196719 -1.548127 0
M  V30 52 H -1.824431 3.493679 -1.683314 0
M  V30 53 H -0.648613 2.573178 0.812958 0
M  V30 54 H -0.924736 1.567452 -0.637065 0
M  V30 55 H -1.745661 1.225092 0.967997 0
M  V30 56 H -2.984759 -0.415689 2.087639 0
M  V30 57 H -1.911099 -1.123066 3.279144 0
M  V30 58 H -4.086357 -2.288523 1.596389 0
M  V30 59 H -3.435636 -2.926367 3.095953 0
M  V30 60 H -4.243861 -7.214956 -0.720913 0
M  V30 61 H -1.768246 -8.920332 2.990120 0
M  V30 62 H -2.119108 -3.646688 -0.787970 0
M  V30 63 H -0.670664 -3.698717 0.219298 0
M  V30 64 H -2.608396 -1.389457 -0.322529 0
M  V30 65 H -0.899296 -1.532102 -0.846327 0
M  V30 66 H 0.941025 -2.333986 1.886033 0
M  V30 END ATOM
M  V30 BEGIN BOND
M  V30 1 1 1 2
M  V30 2 1 2 3
M  V30 3 2 3 4
M  V30 4 1 3 5
M  V30 5 2 5 6
M  V30 6 1 6 7
M  V30 7 1 7 8
M  V30 8 1 8 9
M  V30 9 1 9 10
M  V30 10 1 10 11
M  V30 11 1 11 12
M  V30 12 1 12 13
M  V30 13 1 13 14
M  V30 14 1 14 15
M  V30 15 2 7 16
M  V30 16 1 16 17
M  V30 17 1 16 18
M  V30 18 1 18 19
M  V30 19 1 19 20
M  V30 20 1 20 21
M  V30 21 1 21 22
M  V30 22 1 22 23
M  V30 23 2 23 24
M  V30 24 1 24 25
M  V30 25 2 25 26
M  V30 26 1 26 27
M  V30 27 1 27 28
M  V30 28 1 28 29
M  V30 29 2 29 30
M  V30 30 1 30 31
M  V30 31 1 30 32
M  V30 32 1 22 33
M  V30 33 1 33 34
M  V30 34 2 18 35
M  V30 35 1 35 5
M  V30 36 1 15 11
M  V30 37 1 34 19
M  V30 38 1 32 23
M  V30 39 2 32 27
M  V30 40 1 1 36
M  V30 41 1 1 37
M  V30 42 1 1 38
M  V30 43 1 6 39
M  V30 44 1 8 40
M  V30 45 1 9 41
M  V30 46 1 9 42
M  V30 47 1 10 43
M  V30 48 1 10 44
M  V30 49 1 12 45
M  V30 50 1 12 46
M  V30 51 1 13 47
M  V30 52 1 13 48
M  V30 53 1 14 49
M  V30 54 1 14 50
M  V30 55 1 15 51
M  V30 56 1 15 52
M  V30 57 1 17 53
M  V30 58 1 17 54
M  V30 59 1 17 55
M  V30 60 1 20 56
M  V30 61 1 20 57
M  V30 62 1 21 58
M  V30 63 1 21 59
M  V30 64 1 25 60
M  V30 65 1 28 61
M  V30 66 1 33 62
M  V30 67 1 33 63
M  V30 68 1 34 64
M  V30 69 1 34 65
M  V30 70 1 35 66
M  V30 END BOND
M  V30 END CTAB
M  END
>  <Dataset>  (702) 
ChEMBL_Kinases

>  <Ligand_Instance>  (702) 
nan

>  <PDB_ID>  (702) 
nan

>  <Standardized_SMILES>  (702) 
COC(=O)c1cc(NCCN2CCCC2)c(C)c(N2CCN(c3ncnc4[nH]nc(Br)c34)CC2)c1

>  <Name>  (702) 
nan

>  <Pocket>  (702) 
nan

>  <ATP_Site>  (702) 
nan

>  <Peripheral>  (702) 
nan

>  <Num_H_Atoms_ProtBoundConf>  (702) 
nan

>  <Num_Resolved_Atoms>  (702) 
nan

>  <Num_Not_Resolved_Atoms>  (702) 
nan

$$$$
CHEMBL2016890
     RDKit          3D

  0  0  0  0  0  0  0  0  0  0999 V3000
M  V30 BEGIN CTAB
M  V30 COUNTS 68 73 0 0 0
M  V30 BEGIN ATOM
M  V30 1 C 4.184632 -0.272211 6.426786 0
M  V30 2 C 3.900708 -0.146271 4.965267 0
M  V30 3 N 4.719022 0.563777 4.141497 0
M  V30 4 O 4.242489 0.514878 2.922248 0
M  V30 5 C 3.142712 -0.196239 2.896809 0
M  V30 6 C 2.314624 -0.485299 1.732193 0
M  V30 7 C 2.613915 -0.008976 0.477711 0
M  V30 8 C 1.879225 -0.231986 -0.668896 0
M  V30 9 N 2.260196 0.276256 -1.938004 0
M  V30 10 C 3.370515 1.094147 -2.284200 0
M  V30 11 C 3.391119 2.481681 -1.745612 0
M  V30 12 N 2.237035 3.289491 -2.174603 0
M  V30 13 C 2.463095 4.611464 -1.597281 0
M  V30 14 C 1.091872 5.223205 -1.602369 0
M  V30 15 C 0.153762 4.066728 -1.489231 0
M  V30 16 C 1.030057 2.818920 -1.506643 0
M  V30 17 C 0.729019 -1.017960 -0.513586 0
M  V30 18 C -0.185781 -1.330822 -1.643644 0
M  V30 19 C 0.409323 -1.507898 0.734183 0
M  V30 20 N -0.707223 -2.338831 1.023958 0
M  V30 21 C -0.737481 -3.683829 0.482744 0
M  V30 22 C -1.984290 -4.435529 0.871038 0
M  V30 23 N -3.154393 -3.588106 1.031753 0
M  V30 24 C -4.492265 -4.023182 0.863168 0
M  V30 25 N -5.102329 -4.141268 2.077183 0
M  V30 26 C -6.370983 -4.571600 2.208826 0
M  V30 27 N -7.065826 -4.899292 1.092137 0
M  V30 28 C -6.544114 -4.812067 -0.131366 0
M  V30 29 N -6.867689 -5.016155 -1.426675 0
M  V30 30 N -5.875159 -4.729138 -2.249390 0
M  V30 31 C -4.807468 -4.306505 -1.530632 0
M  V30 32 Br -3.127685 -3.750005 -2.228787 0
M  V30 33 C -5.246419 -4.368607 -0.230496 0
M  V30 34 C -3.142369 -2.182980 1.386700 0
M  V30 35 C -1.757657 -1.786399 1.853720 0
M  V30 36 C 1.172864 -1.262455 1.867948 0
M  V30 37 N 2.914688 -0.614876 4.154263 0
M  V30 38 H 4.307477 0.724399 6.900553 0
M  V30 39 H 5.070678 -0.900430 6.637544 0
M  V30 40 H 3.317964 -0.761152 6.937093 0
M  V30 41 H 3.519746 0.573074 0.452215 0
M  V30 42 H 1.625203 -0.004440 -2.746129 0
M  V30 43 H 4.351280 0.560592 -2.064938 0
M  V30 44 H 3.414185 1.196655 -3.408118 0
M  V30 45 H 3.460721 2.605435 -0.669523 0
M  V30 46 H 4.327125 2.961910 -2.166327 0
M  V30 47 H 3.200305 5.180051 -2.166759 0
M  V30 48 H 2.785020 4.390176 -0.535907 0
M  V30 49 H 0.919443 5.856856 -2.510935 0
M  V30 50 H 1.004748 5.927163 -0.739257 0
M  V30 51 H -0.459782 4.140300 -0.576923 0
M  V30 52 H -0.532088 4.069195 -2.378656 0
M  V30 53 H 0.545991 1.972394 -1.984383 0
M  V30 54 H 1.293079 2.577838 -0.458337 0
M  V30 55 H -0.259436 -0.414373 -2.306419 0
M  V30 56 H 0.210946 -2.158783 -2.256538 0
M  V30 57 H -1.196095 -1.556982 -1.222087 0
M  V30 58 H -0.525942 -3.729363 -0.604801 0
M  V30 59 H 0.104629 -4.271147 0.988044 0
M  V30 60 H -1.846396 -4.882112 1.915580 0
M  V30 61 H -2.204571 -5.290785 0.231323 0
M  V30 62 H -6.880790 -4.675509 3.157225 0
M  V30 63 H -7.818986 -5.367377 -1.702766 0
M  V30 64 H -3.511056 -1.541945 0.578675 0
M  V30 65 H -3.807026 -2.076979 2.294114 0
M  V30 66 H -1.654107 -0.689154 1.940823 0
M  V30 67 H -1.577884 -2.193709 2.885245 0
M  V30 68 H 0.946655 -1.634725 2.866423 0
M  V30 END ATOM
M  V30 BEGIN BOND
M  V30 1 1 1 2
M  V30 2 2 2 3
M  V30 3 1 3 4
M  V30 4 1 4 5
M  V30 5 1 5 6
M  V30 6 2 6 7
M  V30 7 1 7 8
M  V30 8 1 8 9
M  V30 9 1 9 10
M  V30 10 1 10 11
M  V30 11 1 11 12
M  V30 12 1 12 13
M  V30 13 1 13 14
M  V30 14 1 14 15
M  V30 15 1 15 16
M  V30 16 2 8 17
M  V30 17 1 17 18
M  V30 18 1 17 19
M  V30 19 1 19 20
M  V30 20 1 20 21
M  V30 21 1 21 22
M  V30 22 1 22 23
M  V30 23 1 23 24
M  V30 24 2 24 25
M  V30 25 1 25 26
M  V30 26 2 26 27
M  V30 27 1 27 28
M  V30 28 1 28 29
M  V30 29 1 29 30
M  V30 30 2 30 31
M  V30 31 1 31 32
M  V30 32 1 31 33
M  V30 33 1 23 34
M  V30 34 1 34 35
M  V30 35 2 19 36
M  V30 36 2 5 37
M  V30 37 1 37 2
M  V30 38 1 36 6
M  V30 39 1 16 12
M  V30 40 1 35 20
M  V30 41 1 33 24
M  V30 42 2 33 28
M  V30 43 1 1 38
M  V30 44 1 1 39
M  V30 45 1 1 40
M  V30 46 1 7 41
M  V30 47 1 9 42
M  V30 48 1 10 43
M  V30 49 1 10 44
M  V30 50 1 11 45
M  V30 51 1 11 46
M  V30 52 1 13 47
M  V30 53 1 13 48
M  V30 54 1 14 49
M  V30 55 1 14 50
M  V30 56 1 15 51
M  V30 57 1 15 52
M  V30 58 1 16 53
M  V30 59 1 16 54
M  V30 60 1 18 55
M  V30 61 1 18 56
M  V30 62 1 18 57
M  V30 63 1 21 58
M  V30 64 1 21 59
M  V30 65 1 22 60
M  V30 66 1 22 61
M  V30 67 1 26 62
M  V30 68 1 29 63
M  V30 69 1 34 64
M  V30 70 1 34 65
M  V30 71 1 35 66
M  V30 72 1 35 67
M  V30 73 1 36 68
M  V30 END BOND
M  V30 END CTAB
M  END
>  <Dataset>  (703) 
ChEMBL_Kinases

>  <Ligand_Instance>  (703) 
nan

>  <PDB_ID>  (703) 
nan

>  <Standardized_SMILES>  (703) 
Cc1noc(-c2cc(NCCN3CCCC3)c(C)c(N3CCN(c4ncnc5[nH]nc(Br)c45)CC3)c2)n1

>  <Name>  (703) 
nan

>  <Pocket>  (703) 
nan

>  <ATP_Site>  (703) 
nan

>  <Peripheral>  (703) 
nan

>  <Num_H_Atoms_ProtBoundConf>  (703) 
nan

>  <Num_Resolved_Atoms>  (703) 
nan

>  <Num_Not_Resolved_Atoms>  (703) 
nan

$$$$
CHEMBL2016889
     RDKit          3D

  0  0  0  0  0  0  0  0  0  0999 V3000
M  V30 BEGIN CTAB
M  V30 COUNTS 78 82 0 0 0
M  V30 BEGIN ATOM
M  V30 1 C 3.115680 -1.612380 0.608799 0
M  V30 2 C 1.766862 -1.143241 0.892057 0
M  V30 3 C 1.441344 0.203431 1.093421 0
M  V30 4 N 2.448912 1.200974 0.993910 0
M  V30 5 C 2.273290 2.628295 1.154736 0
M  V30 6 C 1.559320 3.296458 0.021084 0
M  V30 7 N 2.268931 3.134596 -1.241592 0
M  V30 8 C 1.590434 3.775533 -2.346879 0
M  V30 9 C 2.657894 4.161092 -3.338950 0
M  V30 10 C 3.833276 4.466034 -2.458100 0
M  V30 11 C 3.603934 3.678385 -1.209312 0
M  V30 12 C 0.127947 0.559298 1.394768 0
M  V30 13 C -0.877485 -0.388941 1.500753 0
M  V30 14 C -2.252701 0.075655 1.825347 0
M  V30 15 C -2.430204 0.092020 3.322943 0
M  V30 16 C -3.783669 0.546348 3.757668 0
M  V30 17 C -3.787944 0.502127 5.291315 0
M  V30 18 C -3.939685 2.005292 3.396492 0
M  V30 19 C -4.914761 -0.299159 3.267797 0
M  V30 20 C -0.533731 -1.708859 1.296575 0
M  V30 21 C 0.777511 -2.097755 0.992891 0
M  V30 22 N 0.894031 -3.497486 0.770650 0
M  V30 23 C -0.066009 -4.491373 1.280667 0
M  V30 24 C -0.851809 -5.097621 0.117838 0
M  V30 25 N -0.111320 -4.858734 -1.137960 0
M  V30 26 C -0.297695 -4.321561 -2.436880 0
M  V30 27 N 0.517804 -3.237748 -2.584949 0
M  V30 28 C 0.532918 -2.526409 -3.731709 0
M  V30 29 N -0.265935 -2.889309 -4.743292 0
M  V30 30 C -1.091893 -3.940150 -4.671659 0
M  V30 31 N -2.006107 -4.605022 -5.421281 0
M  V30 32 N -2.520645 -5.637636 -4.754218 0
M  V30 33 C -1.970774 -5.714039 -3.515642 0
M  V30 34 Br -2.351350 -7.000752 -2.168342 0
M  V30 35 C -1.097864 -4.655993 -3.499154 0
M  V30 36 C 1.250277 -5.345343 -0.862346 0
M  V30 37 C 1.886780 -4.259674 0.005786 0
M  V30 38 H 3.838581 -0.951067 1.193257 0
M  V30 39 H 3.351264 -2.599508 1.116705 0
M  V30 40 H 3.495448 -1.517237 -0.400991 0
M  V30 41 H 3.424375 0.900861 0.775187 0
M  V30 42 H 3.278731 3.096682 1.214998 0
M  V30 43 H 1.777460 2.863208 2.128500 0
M  V30 44 H 1.575395 4.390303 0.226267 0
M  V30 45 H 0.533120 3.000465 -0.117829 0
M  V30 46 H 0.878467 3.102454 -2.821770 0
M  V30 47 H 1.102476 4.719143 -2.008950 0
M  V30 48 H 2.382289 5.067121 -3.928107 0
M  V30 49 H 2.834197 3.334876 -4.055856 0
M  V30 50 H 4.766257 4.160074 -2.975917 0
M  V30 51 H 3.814185 5.570201 -2.260375 0
M  V30 52 H 4.352345 2.850755 -1.181751 0
M  V30 53 H 3.768313 4.340634 -0.340106 0
M  V30 54 H -0.170654 1.602982 1.575970 0
M  V30 55 H -3.014822 -0.558832 1.334306 0
M  V30 56 H -2.363824 1.118910 1.449481 0
M  V30 57 H -2.269562 -0.913472 3.742713 0
M  V30 58 H -1.707190 0.854028 3.723826 0
M  V30 59 H -3.417568 1.434578 5.727992 0
M  V30 60 H -4.798643 0.259094 5.676949 0
M  V30 61 H -3.108563 -0.315185 5.613307 0
M  V30 62 H -4.701697 2.444841 4.076445 0
M  V30 63 H -4.153128 2.185561 2.335805 0
M  V30 64 H -2.989118 2.516671 3.657588 0
M  V30 65 H -4.620931 -1.346342 3.054383 0
M  V30 66 H -5.412114 0.191006 2.389884 0
M  V30 67 H -5.707412 -0.333071 4.053553 0
M  V30 68 H -1.426530 -2.346848 1.404289 0
M  V30 69 H 0.484895 -5.309064 1.800906 0
M  V30 70 H -0.791133 -4.115540 1.982057 0
M  V30 71 H -0.899312 -6.179712 0.352547 0
M  V30 72 H -1.867182 -4.723096 0.025613 0
M  V30 73 H 1.123116 -1.670098 -3.957812 0
M  V30 74 H -2.230420 -4.282768 -6.407856 0
M  V30 75 H 1.862625 -5.401530 -1.789684 0
M  V30 76 H 1.262386 -6.278926 -0.296016 0
M  V30 77 H 2.620289 -4.779324 0.606865 0
M  V30 78 H 2.262879 -3.529644 -0.737690 0
M  V30 END ATOM
M  V30 BEGIN BOND
M  V30 1 1 1 2
M  V30 2 2 2 3
M  V30 3 1 3 4
M  V30 4 1 4 5
M  V30 5 1 5 6
M  V30 6 1 6 7
M  V30 7 1 7 8
M  V30 8 1 8 9
M  V30 9 1 9 10
M  V30 10 1 10 11
M  V30 11 1 3 12
M  V30 12 2 12 13
M  V30 13 1 13 14
M  V30 14 1 14 15
M  V30 15 1 15 16
M  V30 16 1 16 17
M  V30 17 1 16 18
M  V30 18 1 16 19
M  V30 19 1 13 20
M  V30 20 2 20 21
M  V30 21 1 21 22
M  V30 22 1 22 23
M  V30 23 1 23 24
M  V30 24 1 24 25
M  V30 25 1 25 26
M  V30 26 2 26 27
M  V30 27 1 27 28
M  V30 28 2 28 29
M  V30 29 1 29 30
M  V30 30 1 30 31
M  V30 31 1 31 32
M  V30 32 2 32 33
M  V30 33 1 33 34
M  V30 34 1 33 35
M  V30 35 1 25 36
M  V30 36 1 36 37
M  V30 37 1 21 2
M  V30 38 1 37 22
M  V30 39 1 11 7
M  V30 40 1 35 26
M  V30 41 2 35 30
M  V30 42 1 1 38
M  V30 43 1 1 39
M  V30 44 1 1 40
M  V30 45 1 4 41
M  V30 46 1 5 42
M  V30 47 1 5 43
M  V30 48 1 6 44
M  V30 49 1 6 45
M  V30 50 1 8 46
M  V30 51 1 8 47
M  V30 52 1 9 48
M  V30 53 1 9 49
M  V30 54 1 10 50
M  V30 55 1 10 51
M  V30 56 1 11 52
M  V30 57 1 11 53
M  V30 58 1 12 54
M  V30 59 1 14 55
M  V30 60 1 14 56
M  V30 61 1 15 57
M  V30 62 1 15 58
M  V30 63 1 17 59
M  V30 64 1 17 60
M  V30 65 1 17 61
M  V30 66 1 18 62
M  V30 67 1 18 63
M  V30 68 1 18 64
M  V30 69 1 19 65
M  V30 70 1 19 66
M  V30 71 1 19 67
M  V30 72 1 20 68
M  V30 73 1 23 69
M  V30 74 1 23 70
M  V30 75 1 24 71
M  V30 76 1 24 72
M  V30 77 1 28 73
M  V30 78 1 31 74
M  V30 79 1 36 75
M  V30 80 1 36 76
M  V30 81 1 37 77
M  V30 82 1 37 78
M  V30 END BOND
M  V30 END CTAB
M  END
>  <Dataset>  (704) 
ChEMBL_Kinases

>  <Ligand_Instance>  (704) 
nan

>  <PDB_ID>  (704) 
nan

>  <Standardized_SMILES>  (704) 
Cc1c(NCCN2CCCC2)cc(CCC(C)(C)C)cc1N1CCN(c2ncnc3[nH]nc(Br)c23)CC1

>  <Name>  (704) 
nan

>  <Pocket>  (704) 
nan

>  <ATP_Site>  (704) 
nan

>  <Peripheral>  (704) 
nan

>  <Num_H_Atoms_ProtBoundConf>  (704) 
nan

>  <Num_Resolved_Atoms>  (704) 
nan

>  <Num_Not_Resolved_Atoms>  (704) 
nan

$$$$
CHEMBL2017327
     RDKit          3D

  0  0  0  0  0  0  0  0  0  0999 V3000
M  V30 BEGIN CTAB
M  V30 COUNTS 38 42 0 0 0
M  V30 BEGIN ATOM
M  V30 1 C 1.491611 -3.271217 4.836971 0
M  V30 2 C 2.569722 -3.573902 4.029670 0
M  V30 3 C 2.678331 -3.087639 2.748071 0
M  V30 4 C 1.720477 -2.269107 2.188611 0
M  V30 5 N 1.895064 -1.809416 0.852282 0
M  V30 6 C 0.778930 -1.133865 0.286355 0
M  V30 7 N 0.746673 0.165333 -0.041047 0
M  V30 8 C -0.379278 0.663489 -0.569965 0
M  V30 9 C -0.324895 2.001488 -0.886164 0
M  V30 10 C 0.833391 2.834616 -0.655320 0
M  V30 11 N 0.960777 4.122539 -0.966640 0
M  V30 12 N 2.112167 4.641343 -0.652641 0
M  V30 13 C 2.863632 3.656851 -0.074387 0
M  V30 14 N 2.059570 2.587904 -0.095378 0
M  V30 15 C -1.419351 2.641128 -1.448128 0
M  V30 16 C -2.576391 1.946593 -1.697301 0
M  V30 17 C -2.575117 0.617089 -1.363525 0
M  V30 18 C -1.526845 -0.058478 -0.810299 0
M  V30 19 C -1.507617 -1.397151 -0.476557 0
M  V30 20 C -2.599952 -2.194291 -0.668880 0
M  V30 21 C -2.366996 -3.592177 -0.234069 0
M  V30 22 S -0.586396 -3.567063 0.399284 0
M  V30 23 C -0.333325 -1.909811 0.073994 0
M  V30 24 C 0.642456 -1.958329 2.978947 0
M  V30 25 C 0.524550 -2.438274 4.258142 0
M  V30 26 H 1.425561 -3.665680 5.845232 0
M  V30 27 H 3.330775 -4.226294 4.475806 0
M  V30 28 H 3.568279 -3.383159 2.190402 0
M  V30 29 H 2.814579 -1.983843 0.364269 0
M  V30 30 H 3.868574 3.784865 0.288114 0
M  V30 31 H 2.385748 1.685147 0.291412 0
M  V30 32 H -1.415779 3.710385 -1.714644 0
M  V30 33 H -3.417533 2.441630 -2.131032 0
M  V30 34 H -3.502457 0.066367 -1.564734 0
M  V30 35 H -3.571595 -1.983256 -1.069708 0
M  V30 36 H -3.261106 -4.364066 -0.360821 0
M  V30 37 H -0.120043 -1.310131 2.552443 0
M  V30 38 H -0.311471 -2.210749 4.903414 0
M  V30 END ATOM
M  V30 BEGIN BOND
M  V30 1 2 1 2
M  V30 2 1 2 3
M  V30 3 2 3 4
M  V30 4 1 4 5
M  V30 5 1 5 6
M  V30 6 2 6 7
M  V30 7 1 7 8
M  V30 8 2 8 9
M  V30 9 1 9 10
M  V30 10 2 10 11
M  V30 11 1 11 12
M  V30 12 2 12 13
M  V30 13 1 13 14
M  V30 14 1 9 15
M  V30 15 2 15 16
M  V30 16 1 16 17
M  V30 17 2 17 18
M  V30 18 1 18 19
M  V30 19 1 19 20
M  V30 20 2 20 21
M  V30 21 1 21 22
M  V30 22 1 22 23
M  V30 23 1 4 24
M  V30 24 2 24 25
M  V30 25 1 25 1
M  V30 26 1 23 6
M  V30 27 1 18 8
M  V30 28 2 23 19
M  V30 29 1 14 10
M  V30 30 1 1 26
M  V30 31 1 2 27
M  V30 32 1 3 28
M  V30 33 1 5 29
M  V30 34 1 13 30
M  V30 35 1 14 31
M  V30 36 1 15 32
M  V30 37 1 16 33
M  V30 38 1 17 34
M  V30 39 1 20 35
M  V30 40 1 21 36
M  V30 41 1 24 37
M  V30 42 1 25 38
M  V30 END BOND
M  V30 END CTAB
M  END
>  <Dataset>  (705) 
ChEMBL_Kinases

>  <Ligand_Instance>  (705) 
nan

>  <PDB_ID>  (705) 
nan

>  <Standardized_SMILES>  (705) 
c1ccc(Nc2nc3c(-c4nnc[nH]4)cccc3c3ccsc23)cc1

>  <Name>  (705) 
nan

>  <Pocket>  (705) 
nan

>  <ATP_Site>  (705) 
nan

>  <Peripheral>  (705) 
nan

>  <Num_H_Atoms_ProtBoundConf>  (705) 
nan

>  <Num_Resolved_Atoms>  (705) 
nan

>  <Num_Not_Resolved_Atoms>  (705) 
nan

$$$$
CHEMBL4875005
     RDKit          3D

  0  0  0  0  0  0  0  0  0  0999 V3000
M  V30 BEGIN CTAB
M  V30 COUNTS 50 54 0 0 0
M  V30 BEGIN ATOM
M  V30 1 O 3.605062 -5.087934 0.441686 0
M  V30 2 C 2.478502 -4.484541 0.354474 0
M  V30 3 O 1.791718 -5.583846 0.772150 0
M  V30 4 C 2.268798 -3.103749 -0.069295 0
M  V30 5 C 3.442978 -2.456068 -0.393367 0
M  V30 6 C 3.321048 -1.145786 -0.806761 0
M  V30 7 C 2.080652 -0.520368 -0.889500 0
M  V30 8 C 1.991785 0.881470 -1.344626 0
M  V30 9 C 2.642763 1.179385 -2.465921 0
M  V30 10 S 2.294310 2.989710 -2.731942 0
M  V30 11 C 1.298913 3.129442 -1.278660 0
M  V30 12 N 0.659974 4.223239 -0.782964 0
M  V30 13 C -0.061763 4.159999 0.348953 0
M  V30 14 C -0.074338 2.906958 0.920364 0
M  V30 15 C -0.867613 2.818545 2.171772 0
M  V30 16 C -0.481115 1.920748 3.152495 0
M  V30 17 C -1.228931 1.843865 4.319067 0
M  V30 18 C -2.334769 2.654467 4.483075 0
M  V30 19 C -2.743634 3.558386 3.523146 0
M  V30 20 C -1.985999 3.617002 2.373641 0
M  V30 21 C 0.554562 1.773813 0.457241 0
M  V30 22 C 1.287830 1.868347 -0.707064 0
M  V30 23 C 0.957291 -1.243090 -0.546224 0
M  V30 24 C 1.007618 -2.555348 -0.125061 0
M  V30 25 C -0.146339 -3.372328 0.256918 0
M  V30 26 C -0.718437 -4.191570 -0.888917 0
M  V30 27 C -2.040896 -4.635327 -0.283770 0
M  V30 28 C -2.409914 -3.549432 0.736387 0
M  V30 29 C -1.345417 -2.489879 0.524564 0
M  V30 30 H 1.645032 -5.781053 1.752910 0
M  V30 31 H 4.425557 -2.902336 -0.343700 0
M  V30 32 H 4.167304 -0.535131 -1.086863 0
M  V30 33 H 3.286967 0.543974 -3.166472 0
M  V30 34 H -0.575629 4.996985 0.766159 0
M  V30 35 H 0.384543 1.272331 3.048542 0
M  V30 36 H -0.950843 1.144546 5.115128 0
M  V30 37 H -2.939091 2.611079 5.394686 0
M  V30 38 H -3.612333 4.196517 3.649590 0
M  V30 39 H -2.301363 4.323062 1.618155 0
M  V30 40 H 0.430829 0.877183 1.048437 0
M  V30 41 H 0.017416 -0.757119 -0.617927 0
M  V30 42 H 0.047373 -4.082494 1.077342 0
M  V30 43 H -0.994619 -3.524012 -1.737582 0
M  V30 44 H -0.075752 -5.033532 -1.189040 0
M  V30 45 H -1.922802 -5.620380 0.175819 0
M  V30 46 H -2.819772 -4.682905 -1.077602 0
M  V30 47 H -3.389684 -3.106990 0.553826 0
M  V30 48 H -2.350980 -3.942354 1.772355 0
M  V30 49 H -1.580631 -1.967529 -0.437075 0
M  V30 50 H -1.234640 -1.777386 1.330718 0
M  V30 END ATOM
M  V30 BEGIN BOND
M  V30 1 2 1 2
M  V30 2 1 2 3
M  V30 3 1 2 4
M  V30 4 2 4 5
M  V30 5 1 5 6
M  V30 6 2 6 7
M  V30 7 1 7 8
M  V30 8 2 8 9
M  V30 9 1 9 10
M  V30 10 1 10 11
M  V30 11 2 11 12
M  V30 12 1 12 13
M  V30 13 2 13 14
M  V30 14 1 14 15
M  V30 15 2 15 16
M  V30 16 1 16 17
M  V30 17 2 17 18
M  V30 18 1 18 19
M  V30 19 2 19 20
M  V30 20 1 14 21
M  V30 21 2 21 22
M  V30 22 1 7 23
M  V30 23 2 23 24
M  V30 24 1 24 25
M  V30 25 1 25 26
M  V30 26 1 26 27
M  V30 27 1 27 28
M  V30 28 1 28 29
M  V30 29 1 24 4
M  V30 30 1 29 25
M  V30 31 1 22 8
M  V30 32 1 22 11
M  V30 33 1 20 15
M  V30 34 1 3 30
M  V30 35 1 5 31
M  V30 36 1 6 32
M  V30 37 1 9 33
M  V30 38 1 13 34
M  V30 39 1 16 35
M  V30 40 1 17 36
M  V30 41 1 18 37
M  V30 42 1 19 38
M  V30 43 1 20 39
M  V30 44 1 21 40
M  V30 45 1 23 41
M  V30 46 1 25 42
M  V30 47 1 26 43
M  V30 48 1 26 44
M  V30 49 1 27 45
M  V30 50 1 27 46
M  V30 51 1 28 47
M  V30 52 1 28 48
M  V30 53 1 29 49
M  V30 54 1 29 50
M  V30 END BOND
M  V30 END CTAB
M  END
>  <Dataset>  (706) 
ChEMBL_Kinases

>  <Ligand_Instance>  (706) 
nan

>  <PDB_ID>  (706) 
nan

>  <Standardized_SMILES>  (706) 
O=C(O)c1ccc(-c2csc3ncc(-c4ccccc4)cc23)cc1C1CCCC1

>  <Name>  (706) 
nan

>  <Pocket>  (706) 
nan

>  <ATP_Site>  (706) 
nan

>  <Peripheral>  (706) 
nan

>  <Num_H_Atoms_ProtBoundConf>  (706) 
nan

>  <Num_Resolved_Atoms>  (706) 
nan

>  <Num_Not_Resolved_Atoms>  (706) 
nan

$$$$
CHEMBL4846921
     RDKit          3D

  0  0  0  0  0  0  0  0  0  0999 V3000
M  V30 BEGIN CTAB
M  V30 COUNTS 63 67 0 0 0
M  V30 BEGIN ATOM
M  V30 1 C 4.758704 -3.197581 5.916805 0
M  V30 2 C 4.812504 -1.863322 5.247645 0
M  V30 3 N 3.762099 -1.628312 4.284675 0
M  V30 4 C 3.971940 -0.292561 3.754871 0
M  V30 5 C 2.928054 0.060408 2.716466 0
M  V30 6 N 3.053367 -0.897472 1.636146 0
M  V30 7 C 2.304751 -0.670133 0.450052 0
M  V30 8 C 2.346537 -1.463831 -0.674617 0
M  V30 9 C 1.632409 -1.273469 -1.838982 0
M  V30 10 C 0.782517 -0.168808 -1.886142 0
M  V30 11 N 0.004672 0.106390 -3.046414 0
M  V30 12 C -0.855438 1.267662 -3.049847 0
M  V30 13 N -0.394778 2.449945 -3.491355 0
M  V30 14 C -1.249610 3.484142 -3.463465 0
M  V30 15 C -2.517786 3.219998 -2.981163 0
M  V30 16 S -3.948014 4.422591 -2.804101 0
M  V30 17 C -5.099813 3.086357 -2.097052 0
M  V30 18 C -4.314900 1.945855 -2.076540 0
M  V30 19 C -4.946125 0.736628 -1.572214 0
M  V30 20 C -6.212132 0.367378 -1.971432 0
M  V30 21 C -6.789633 -0.792922 -1.473054 0
M  V30 22 C -6.089264 -1.575606 -0.575093 0
M  V30 23 C -4.803373 -1.197920 -0.171425 0
M  V30 24 N -4.234579 -2.116293 0.751202 0
M  V30 25 S -2.606985 -2.585698 0.490186 0
M  V30 26 C -2.383484 -3.415065 -1.069148 0
M  V30 27 O -2.181550 -3.575424 1.549196 0
M  V30 28 O -1.734220 -1.375989 0.612299 0
M  V30 29 C -4.241480 -0.034037 -0.680310 0
M  V30 30 C -3.028084 1.999719 -2.514030 0
M  V30 31 N -2.093188 1.040971 -2.586791 0
M  V30 32 C 0.708205 0.654647 -0.782634 0
M  V30 33 C 1.451044 0.406606 0.352307 0
M  V30 34 C 3.939408 -2.019197 1.857161 0
M  V30 35 C 3.742307 -2.620051 3.228866 0
M  V30 36 H 4.446431 -4.038040 5.290030 0
M  V30 37 H 5.797634 -3.449705 6.256033 0
M  V30 38 H 4.175958 -3.138687 6.868850 0
M  V30 39 H 4.712173 -1.077756 6.028603 0
M  V30 40 H 5.825205 -1.742109 4.786787 0
M  V30 41 H 4.968102 -0.299606 3.222923 0
M  V30 42 H 3.968092 0.426473 4.580655 0
M  V30 43 H 1.926080 -0.047821 3.191625 0
M  V30 44 H 3.152370 1.097080 2.400416 0
M  V30 45 H 2.990761 -2.330589 -0.686659 0
M  V30 46 H 1.718947 -1.943372 -2.683742 0
M  V30 47 H 0.074399 -0.534399 -3.862172 0
M  V30 48 H -1.087455 4.507481 -3.767852 0
M  V30 49 H -6.049443 3.312907 -1.839356 0
M  V30 50 H -6.768711 0.957222 -2.663163 0
M  V30 51 H -7.787339 -1.084179 -1.787433 0
M  V30 52 H -6.605748 -2.474269 -0.224946 0
M  V30 53 H -4.792082 -2.485432 1.552910 0
M  V30 54 H -1.510411 -4.100161 -1.032402 0
M  V30 55 H -2.186028 -2.669266 -1.877202 0
M  V30 56 H -3.274271 -4.038341 -1.289382 0
M  V30 57 H -3.263564 0.155162 -0.305956 0
M  V30 58 H 0.047078 1.528709 -0.796648 0
M  V30 59 H 1.352492 1.088404 1.190507 0
M  V30 60 H 3.698953 -2.824126 1.134441 0
M  V30 61 H 4.987710 -1.694699 1.688677 0
M  V30 62 H 2.791760 -3.179055 3.222494 0
M  V30 63 H 4.561359 -3.340002 3.380190 0
M  V30 END ATOM
M  V30 BEGIN BOND
M  V30 1 1 1 2
M  V30 2 1 2 3
M  V30 3 1 3 4
M  V30 4 1 4 5
M  V30 5 1 5 6
M  V30 6 1 6 7
M  V30 7 2 7 8
M  V30 8 1 8 9
M  V30 9 2 9 10
M  V30 10 1 10 11
M  V30 11 1 11 12
M  V30 12 2 12 13
M  V30 13 1 13 14
M  V30 14 2 14 15
M  V30 15 1 15 16
M  V30 16 1 16 17
M  V30 17 2 17 18
M  V30 18 1 18 19
M  V30 19 2 19 20
M  V30 20 1 20 21
M  V30 21 2 21 22
M  V30 22 1 22 23
M  V30 23 1 23 24
M  V30 24 1 24 25
M  V30 25 1 25 26
M  V30 26 2 25 27
M  V30 27 2 25 28
M  V30 28 2 23 29
M  V30 29 1 18 30
M  V30 30 2 30 31
M  V30 31 1 10 32
M  V30 32 2 32 33
M  V30 33 1 6 34
M  V30 34 1 34 35
M  V30 35 1 35 3
M  V30 36 1 33 7
M  V30 37 1 31 12
M  V30 38 1 30 15
M  V30 39 1 29 19
M  V30 40 1 1 36
M  V30 41 1 1 37
M  V30 42 1 1 38
M  V30 43 1 2 39
M  V30 44 1 2 40
M  V30 45 1 4 41
M  V30 46 1 4 42
M  V30 47 1 5 43
M  V30 48 1 5 44
M  V30 49 1 8 45
M  V30 50 1 9 46
M  V30 51 1 11 47
M  V30 52 1 14 48
M  V30 53 1 17 49
M  V30 54 1 20 50
M  V30 55 1 21 51
M  V30 56 1 22 52
M  V30 57 1 24 53
M  V30 58 1 26 54
M  V30 59 1 26 55
M  V30 60 1 26 56
M  V30 61 1 29 57
M  V30 62 1 32 58
M  V30 63 1 33 59
M  V30 64 1 34 60
M  V30 65 1 34 61
M  V30 66 1 35 62
M  V30 67 1 35 63
M  V30 END BOND
M  V30 END CTAB
M  END
>  <Dataset>  (707) 
ChEMBL_Kinases

>  <Ligand_Instance>  (707) 
nan

>  <PDB_ID>  (707) 
nan

>  <Standardized_SMILES>  (707) 
CCN1CCN(c2ccc(Nc3ncc4scc(-c5cccc(NS(C)(=O)=O)c5)c4n3)cc2)CC1

>  <Name>  (707) 
nan

>  <Pocket>  (707) 
nan

>  <ATP_Site>  (707) 
nan

>  <Peripheral>  (707) 
nan

>  <Num_H_Atoms_ProtBoundConf>  (707) 
nan

>  <Num_Resolved_Atoms>  (707) 
nan

>  <Num_Not_Resolved_Atoms>  (707) 
nan

$$$$
CHEMBL4874893
     RDKit          3D

  0  0  0  0  0  0  0  0  0  0999 V3000
M  V30 BEGIN CTAB
M  V30 COUNTS 57 61 0 0 0
M  V30 BEGIN ATOM
M  V30 1 C 6.109084 -1.529009 1.208188 0
M  V30 2 C 4.944406 -1.390353 2.101661 0
M  V30 3 C 4.937465 -2.085695 3.316648 0
M  V30 4 C 3.903051 -2.028538 4.223237 0
M  V30 5 C 2.828195 -1.234374 3.888587 0
M  V30 6 C 2.836402 -0.551328 2.693917 0
M  V30 7 C 3.857350 -0.600305 1.786217 0
M  V30 8 C 3.847665 0.127968 0.532056 0
M  V30 9 C 2.794966 0.933018 0.155083 0
M  V30 10 C 2.715616 1.652478 -1.016759 0
M  V30 11 N 1.618486 2.474188 -1.380652 0
M  V30 12 C 0.353981 2.688721 -0.781511 0
M  V30 13 C 0.011882 3.961743 -0.334103 0
M  V30 14 C -1.215614 4.222181 0.258687 0
M  V30 15 N -2.110455 3.230050 0.412905 0
M  V30 16 C -1.841425 1.997632 0.006354 0
M  V30 17 C -2.762389 0.961584 0.155970 0
M  V30 18 C -2.474043 -0.330675 -0.279271 0
M  V30 19 C -3.441667 -1.415427 -0.120094 0
M  V30 20 C -4.813428 -1.264820 -0.155217 0
M  V30 21 C -5.614740 -2.393276 0.012203 0
M  V30 22 C -5.083727 -3.668731 0.213756 0
M  V30 23 S -6.172315 -5.024444 0.413396 0
M  V30 24 C -6.576050 -5.793892 -1.136476 0
M  V30 25 O -5.623573 -6.016871 1.396912 0
M  V30 26 O -7.468927 -4.471412 0.975230 0
M  V30 27 C -3.692824 -3.818589 0.248964 0
M  V30 28 C -2.906083 -2.690850 0.081571 0
M  V30 29 C -1.241284 -0.603738 -0.878489 0
M  V30 30 C -0.353931 0.453643 -1.008189 0
M  V30 31 C -0.623134 1.736714 -0.582821 0
M  V30 32 C 3.767666 1.575729 -1.902868 0
M  V30 33 C 4.819910 0.778248 -1.538644 0
M  V30 34 N 4.823020 0.106886 -0.376619 0
M  V30 35 H 6.819138 -2.272492 1.624802 0
M  V30 36 H 5.778925 -1.976657 0.238234 0
M  V30 37 H 6.626542 -0.584791 1.006852 0
M  V30 38 H 5.770715 -2.727972 3.622520 0
M  V30 39 H 3.909165 -2.568983 5.155997 0
M  V30 40 H 2.008314 -1.179330 4.589284 0
M  V30 41 H 1.954959 0.040874 2.521799 0
M  V30 42 H 1.917212 1.063129 0.779901 0
M  V30 43 H 1.630407 3.068081 -2.215975 0
M  V30 44 H 0.674200 4.801750 -0.423715 0
M  V30 45 H -1.490142 5.222561 0.612582 0
M  V30 46 H -3.733201 1.147598 0.620781 0
M  V30 47 H -5.201491 -0.281815 -0.310595 0
M  V30 48 H -6.681378 -2.206462 -0.025892 0
M  V30 49 H -7.595036 -6.226526 -1.102309 0
M  V30 50 H -5.811427 -6.491554 -1.497696 0
M  V30 51 H -6.631041 -4.976548 -1.898915 0
M  V30 52 H -3.270491 -4.801121 0.404546 0
M  V30 53 H -1.844500 -2.894124 0.122427 0
M  V30 54 H -1.018879 -1.592612 -1.212898 0
M  V30 55 H 0.573031 0.187911 -1.480891 0
M  V30 56 H 3.828178 2.079590 -2.835591 0
M  V30 57 H 5.695281 0.667289 -2.193984 0
M  V30 END ATOM
M  V30 BEGIN BOND
M  V30 1 1 1 2
M  V30 2 2 2 3
M  V30 3 1 3 4
M  V30 4 2 4 5
M  V30 5 1 5 6
M  V30 6 2 6 7
M  V30 7 1 7 8
M  V30 8 2 8 9
M  V30 9 1 9 10
M  V30 10 1 10 11
M  V30 11 1 11 12
M  V30 12 2 12 13
M  V30 13 1 13 14
M  V30 14 2 14 15
M  V30 15 1 15 16
M  V30 16 2 16 17
M  V30 17 1 17 18
M  V30 18 1 18 19
M  V30 19 2 19 20
M  V30 20 1 20 21
M  V30 21 2 21 22
M  V30 22 1 22 23
M  V30 23 1 23 24
M  V30 24 2 23 25
M  V30 25 2 23 26
M  V30 26 1 22 27
M  V30 27 2 27 28
M  V30 28 2 18 29
M  V30 29 1 29 30
M  V30 30 2 30 31
M  V30 31 2 10 32
M  V30 32 1 32 33
M  V30 33 2 33 34
M  V30 34 1 7 2
M  V30 35 1 34 8
M  V30 36 1 31 12
M  V30 37 1 31 16
M  V30 38 1 28 19
M  V30 39 1 1 35
M  V30 40 1 1 36
M  V30 41 1 1 37
M  V30 42 1 3 38
M  V30 43 1 4 39
M  V30 44 1 5 40
M  V30 45 1 6 41
M  V30 46 1 9 42
M  V30 47 1 11 43
M  V30 48 1 13 44
M  V30 49 1 14 45
M  V30 50 1 17 46
M  V30 51 1 20 47
M  V30 52 1 21 48
M  V30 53 1 24 49
M  V30 54 1 24 50
M  V30 55 1 24 51
M  V30 56 1 27 52
M  V30 57 1 28 53
M  V30 58 1 29 54
M  V30 59 1 30 55
M  V30 60 1 32 56
M  V30 61 1 33 57
M  V30 END BOND
M  V30 END CTAB
M  END
>  <Dataset>  (708) 
ChEMBL_Kinases

>  <Ligand_Instance>  (708) 
nan

>  <PDB_ID>  (708) 
nan

>  <Standardized_SMILES>  (708) 
Cc1ccccc1-c1cc(Nc2ccnc3cc(-c4ccc(S(C)(=O)=O)cc4)ccc23)ccn1

>  <Name>  (708) 
nan

>  <Pocket>  (708) 
nan

>  <ATP_Site>  (708) 
nan

>  <Peripheral>  (708) 
nan

>  <Num_H_Atoms_ProtBoundConf>  (708) 
nan

>  <Num_Resolved_Atoms>  (708) 
nan

>  <Num_Not_Resolved_Atoms>  (708) 
nan

$$$$
CHEMBL487483
     RDKit          3D

  0  0  0  0  0  0  0  0  0  0999 V3000
M  V30 BEGIN CTAB
M  V30 COUNTS 50 52 0 0 0
M  V30 BEGIN ATOM
M  V30 1 C 5.419722 -6.280915 2.675666 0
M  V30 2 N 4.187330 -5.569246 2.960893 0
M  V30 3 C 3.486356 -6.029917 4.128219 0
M  V30 4 C 3.691833 -4.494928 2.159211 0
M  V30 5 C 2.528695 -3.815321 2.434631 0
M  V30 6 C 2.039319 -2.777750 1.669454 0
M  V30 7 C 2.743185 -2.376393 0.550659 0
M  V30 8 C 2.247926 -1.272713 -0.275772 0
M  V30 9 O 2.884402 -0.893824 -1.296892 0
M  V30 10 O 1.066188 -0.647382 0.080391 0
M  V30 11 C 0.513741 0.444768 -0.672743 0
M  V30 12 C -0.766246 0.779990 0.095521 0
M  V30 13 C -0.347900 1.037877 1.527664 0
M  V30 14 O -1.421186 1.160569 2.377934 0
M  V30 15 C -1.560509 1.886623 -0.489841 0
M  V30 16 C -2.760450 1.198446 -1.026181 0
M  V30 17 C -3.917888 1.691185 -1.416647 0
M  V30 18 C -4.238721 3.117632 -1.383181 0
M  V30 19 C -5.545300 3.497003 -1.054798 0
M  V30 20 C -6.012055 4.788432 -0.977154 0
M  V30 21 C -5.122945 5.778686 -1.243739 0
M  V30 22 C -3.834094 5.412137 -1.567988 0
M  V30 23 N -3.389468 4.142906 -1.640395 0
M  V30 24 C -2.407026 -0.236316 -1.045416 0
M  V30 25 O -2.858906 -1.079573 -1.892743 0
M  V30 26 O -1.512165 -0.422992 0.027590 0
M  V30 27 C 3.915522 -3.040123 0.247999 0
M  V30 28 C 4.393211 -4.092978 1.041445 0
M  V30 29 H 5.233539 -7.190755 2.063511 0
M  V30 30 H 5.896857 -6.639171 3.623169 0
M  V30 31 H 6.124924 -5.568681 2.203583 0
M  V30 32 H 3.910171 -5.632185 5.071150 0
M  V30 33 H 3.571871 -7.157185 4.140081 0
M  V30 34 H 2.393741 -5.857322 4.051028 0
M  V30 35 H 1.931875 -4.064025 3.281332 0
M  V30 36 H 1.120674 -2.267608 1.917657 0
M  V30 37 H 0.232069 0.106412 -1.685861 0
M  V30 38 H 1.213566 1.278146 -0.738160 0
M  V30 39 H 0.209766 0.120745 1.854257 0
M  V30 40 H 0.337385 1.889487 1.513562 0
M  V30 41 H -1.130555 1.031292 3.296641 0
M  V30 42 H -1.792395 2.680121 0.233017 0
M  V30 43 H -0.997910 2.284501 -1.363844 0
M  V30 44 H -4.717322 1.034876 -1.796245 0
M  V30 45 H -6.259894 2.689127 -0.840495 0
M  V30 46 H -7.054137 4.952034 -0.709896 0
M  V30 47 H -5.431087 6.818747 -1.199015 0
M  V30 48 H -3.081596 6.169578 -1.790245 0
M  V30 49 H 4.451150 -2.700872 -0.643456 0
M  V30 50 H 5.316255 -4.524582 0.693710 0
M  V30 END ATOM
M  V30 BEGIN BOND
M  V30 1 1 1 2
M  V30 2 1 2 3
M  V30 3 1 2 4
M  V30 4 2 4 5
M  V30 5 1 5 6
M  V30 6 2 6 7
M  V30 7 1 7 8
M  V30 8 2 8 9
M  V30 9 1 8 10
M  V30 10 1 10 11
M  V30 11 1 11 12
M  V30 12 1 12 13
M  V30 13 1 13 14
M  V30 14 1 12 15
M  V30 15 1 15 16
M  V30 16 2 16 17
M  V30 17 1 17 18
M  V30 18 2 18 19
M  V30 19 1 19 20
M  V30 20 2 20 21
M  V30 21 1 21 22
M  V30 22 2 22 23
M  V30 23 1 16 24
M  V30 24 2 24 25
M  V30 25 1 24 26
M  V30 26 1 7 27
M  V30 27 2 27 28
M  V30 28 1 28 4
M  V30 29 1 26 12
M  V30 30 1 23 18
M  V30 31 1 1 29
M  V30 32 1 1 30
M  V30 33 1 1 31
M  V30 34 1 3 32
M  V30 35 1 3 33
M  V30 36 1 3 34
M  V30 37 1 5 35
M  V30 38 1 6 36
M  V30 39 1 11 37
M  V30 40 1 11 38
M  V30 41 1 13 39
M  V30 42 1 13 40
M  V30 43 1 14 41
M  V30 44 1 15 42
M  V30 45 1 15 43
M  V30 46 1 17 44
M  V30 47 1 19 45
M  V30 48 1 20 46
M  V30 49 1 21 47
M  V30 50 1 22 48
M  V30 51 1 27 49
M  V30 52 1 28 50
M  V30 END BOND
M  V30 END CTAB
M  END
>  <Dataset>  (709) 
ChEMBL_Kinases

>  <Ligand_Instance>  (709) 
nan

>  <PDB_ID>  (709) 
nan

>  <Standardized_SMILES>  (709) 
CN(C)c1ccc(C(=O)OCC2(CO)C/C(=C\c3ccccn3)C(=O)O2)cc1

>  <Name>  (709) 
nan

>  <Pocket>  (709) 
nan

>  <ATP_Site>  (709) 
nan

>  <Peripheral>  (709) 
nan

>  <Num_H_Atoms_ProtBoundConf>  (709) 
nan

>  <Num_Resolved_Atoms>  (709) 
nan

>  <Num_Not_Resolved_Atoms>  (709) 
nan

$$$$
CHEMBL4874825
     RDKit          3D

  0  0  0  0  0  0  0  0  0  0999 V3000
M  V30 BEGIN CTAB
M  V30 COUNTS 45 48 0 0 0
M  V30 BEGIN ATOM
M  V30 1 O -1.723296 -4.995738 0.617702 0
M  V30 2 C -0.552275 -5.143967 0.190754 0
M  V30 3 C 0.278736 -4.397079 -0.746826 0
M  V30 4 C 1.571529 -4.836032 -1.012961 0
M  V30 5 C 2.275793 -4.064548 -1.910875 0
M  V30 6 C 1.806294 -2.931921 -2.539303 0
M  V30 7 C 0.507655 -2.526311 -2.245650 0
M  V30 8 C -0.108292 -1.318847 -2.863024 0
M  V30 9 N 0.213243 -0.196507 -1.966540 0
M  V30 10 C 1.411254 0.531453 -2.191415 0
M  V30 11 C 2.304910 0.782119 -1.039735 0
M  V30 12 O 1.784148 1.319945 0.103850 0
M  V30 13 C 0.631190 1.143228 0.887386 0
M  V30 14 C 0.686800 1.598931 2.193254 0
M  V30 15 C -0.432965 1.436632 2.982318 0
M  V30 16 C -0.383463 1.912582 4.355820 0
M  V30 17 C -1.143615 1.217906 5.293247 0
M  V30 18 C -1.164409 1.590882 6.624163 0
M  V30 19 N -0.459542 2.633095 7.080415 0
M  V30 20 C 0.288053 3.321846 6.176952 0
M  V30 21 C 0.338513 2.985469 4.841074 0
M  V30 22 C -1.582258 0.840983 2.502928 0
M  V30 23 C -1.664355 0.377860 1.204967 0
M  V30 24 C -0.532395 0.539464 0.399924 0
M  V30 25 C -0.800129 -0.011551 -0.950281 0
M  V30 26 O -1.979574 -0.341337 -1.238389 0
M  V30 27 C -0.229283 -3.272582 -1.351523 0
M  V30 28 H -0.158032 -6.038983 0.676399 0
M  V30 29 H 2.006094 -5.714213 -0.558115 0
M  V30 30 H 3.289908 -4.368589 -2.149659 0
M  V30 31 H 2.403774 -2.363679 -3.236848 0
M  V30 32 H -1.187189 -1.452970 -2.959782 0
M  V30 33 H 0.387450 -1.142151 -3.842576 0
M  V30 34 H 1.990401 -0.015892 -2.963068 0
M  V30 35 H 1.158160 1.512362 -2.688971 0
M  V30 36 H 2.813629 -0.182453 -0.782453 0
M  V30 37 H 3.115681 1.450867 -1.399706 0
M  V30 38 H 1.613449 2.053030 2.501150 0
M  V30 39 H -1.732157 0.369865 4.986343 0
M  V30 40 H -1.773465 1.018297 7.321886 0
M  V30 41 H 0.856707 4.163761 6.548746 0
M  V30 42 H 0.922698 3.517205 4.113541 0
M  V30 43 H -2.460250 0.703383 3.090622 0
M  V30 44 H -2.524833 -0.093901 0.768636 0
M  V30 45 H -1.235457 -2.984917 -1.104230 0
M  V30 END ATOM
M  V30 BEGIN BOND
M  V30 1 2 1 2
M  V30 2 1 2 3
M  V30 3 2 3 4
M  V30 4 1 4 5
M  V30 5 2 5 6
M  V30 6 1 6 7
M  V30 7 1 7 8
M  V30 8 1 8 9
M  V30 9 1 9 10
M  V30 10 1 10 11
M  V30 11 1 11 12
M  V30 12 1 12 13
M  V30 13 2 13 14
M  V30 14 1 14 15
M  V30 15 1 15 16
M  V30 16 2 16 17
M  V30 17 1 17 18
M  V30 18 2 18 19
M  V30 19 1 19 20
M  V30 20 2 20 21
M  V30 21 2 15 22
M  V30 22 1 22 23
M  V30 23 2 23 24
M  V30 24 1 24 25
M  V30 25 2 25 26
M  V30 26 2 7 27
M  V30 27 1 27 3
M  V30 28 1 25 9
M  V30 29 1 24 13
M  V30 30 1 21 16
M  V30 31 1 2 28
M  V30 32 1 4 29
M  V30 33 1 5 30
M  V30 34 1 6 31
M  V30 35 1 8 32
M  V30 36 1 8 33
M  V30 37 1 10 34
M  V30 38 1 10 35
M  V30 39 1 11 36
M  V30 40 1 11 37
M  V30 41 1 14 38
M  V30 42 1 17 39
M  V30 43 1 18 40
M  V30 44 1 20 41
M  V30 45 1 21 42
M  V30 46 1 22 43
M  V30 47 1 23 44
M  V30 48 1 27 45
M  V30 END BOND
M  V30 END CTAB
M  END
>  <Dataset>  (710) 
ChEMBL_Kinases

>  <Ligand_Instance>  (710) 
nan

>  <PDB_ID>  (710) 
nan

>  <Standardized_SMILES>  (710) 
O=Cc1cccc(CN2CCOc3cc(-c4ccncc4)ccc3C2=O)c1

>  <Name>  (710) 
nan

>  <Pocket>  (710) 
nan

>  <ATP_Site>  (710) 
nan

>  <Peripheral>  (710) 
nan

>  <Num_H_Atoms_ProtBoundConf>  (710) 
nan

>  <Num_Resolved_Atoms>  (710) 
nan

>  <Num_Not_Resolved_Atoms>  (710) 
nan

$$$$
CHEMBL1450770
     RDKit          3D

  0  0  0  0  0  0  0  0  0  0999 V3000
M  V30 BEGIN CTAB
M  V30 COUNTS 27 29 0 0 0
M  V30 BEGIN ATOM
M  V30 1 O 2.563339 -2.302309 2.984319 0
M  V30 2 C 1.402094 -1.911658 2.700572 0
M  V30 3 N 0.388221 -2.084170 3.708709 0
M  V30 4 C -1.020098 -1.728647 3.483459 0
M  V30 5 C -1.107301 -0.298982 3.054519 0
M  V30 6 C -1.076846 -0.124052 1.552265 0
M  V30 7 C 0.202924 -0.583540 0.950475 0
M  V30 8 C 1.309338 -1.340617 1.357840 0
M  V30 9 O 2.164812 -1.421081 0.371124 0
M  V30 10 C 1.706439 -0.765005 -0.680448 0
M  V30 11 C 2.264786 -0.578188 -1.941485 0
M  V30 12 C 1.568016 0.161826 -2.876678 0
M  V30 13 C 0.336394 0.713684 -2.580195 0
M  V30 14 O -0.406565 1.462993 -3.474913 0
M  V30 15 C -0.187499 0.508441 -1.319747 0
M  V30 16 C 0.471044 -0.217980 -0.366224 0
M  V30 17 H 0.708732 -2.480836 4.622390 0
M  V30 18 H -1.309577 -2.350179 2.586841 0
M  V30 19 H -1.661053 -2.027157 4.308693 0
M  V30 20 H -0.385482 0.362297 3.581008 0
M  V30 21 H -2.129629 0.052375 3.360559 0
M  V30 22 H -1.220709 0.924422 1.304490 0
M  V30 23 H -1.940814 -0.729334 1.165862 0
M  V30 24 H 3.242578 -1.002980 -2.211210 0
M  V30 25 H 1.964738 0.336761 -3.881541 0
M  V30 26 H -0.852813 2.346265 -3.210049 0
M  V30 27 H -1.149410 0.933286 -1.072403 0
M  V30 END ATOM
M  V30 BEGIN BOND
M  V30 1 2 1 2
M  V30 2 1 2 3
M  V30 3 1 3 4
M  V30 4 1 4 5
M  V30 5 1 5 6
M  V30 6 1 6 7
M  V30 7 2 7 8
M  V30 8 1 8 9
M  V30 9 1 9 10
M  V30 10 2 10 11
M  V30 11 1 11 12
M  V30 12 2 12 13
M  V30 13 1 13 14
M  V30 14 1 13 15
M  V30 15 2 15 16
M  V30 16 1 8 2
M  V30 17 1 16 10
M  V30 18 1 16 7
M  V30 19 1 3 17
M  V30 20 1 4 18
M  V30 21 1 4 19
M  V30 22 1 5 20
M  V30 23 1 5 21
M  V30 24 1 6 22
M  V30 25 1 6 23
M  V30 26 1 11 24
M  V30 27 1 12 25
M  V30 28 1 14 26
M  V30 29 1 15 27
M  V30 END BOND
M  V30 END CTAB
M  END
>  <Dataset>  (711) 
ChEMBL_Kinases

>  <Ligand_Instance>  (711) 
nan

>  <PDB_ID>  (711) 
nan

>  <Standardized_SMILES>  (711) 
O=C1NCCCc2c1oc1ccc(O)cc21

>  <Name>  (711) 
nan

>  <Pocket>  (711) 
nan

>  <ATP_Site>  (711) 
nan

>  <Peripheral>  (711) 
nan

>  <Num_H_Atoms_ProtBoundConf>  (711) 
nan

>  <Num_Resolved_Atoms>  (711) 
nan

>  <Num_Not_Resolved_Atoms>  (711) 
nan

$$$$
CHEMBL4874653
     RDKit          3D

  0  0  0  0  0  0  0  0  0  0999 V3000
M  V30 BEGIN CTAB
M  V30 COUNTS 53 56 0 0 0
M  V30 BEGIN ATOM
M  V30 1 N -2.275177 -0.765799 4.622055 0
M  V30 2 C -1.370443 -0.676840 3.894926 0
M  V30 3 C -0.243492 -0.557508 3.018340 0
M  V30 4 C 0.649246 0.438084 3.346515 0
M  V30 5 N 1.716428 0.535474 2.546920 0
M  V30 6 C 1.908958 -0.272331 1.502227 0
M  V30 7 N 3.058048 -0.115698 0.699119 0
M  V30 8 C 4.053973 0.894532 0.958329 0
M  V30 9 C 3.545487 2.261979 0.942083 0
M  V30 10 C 3.342600 2.984000 2.111971 0
M  V30 11 N 2.891288 4.237269 2.232269 0
M  V30 12 C 2.584969 4.916953 1.109774 0
M  V30 13 C 2.757722 4.275007 -0.077576 0
M  V30 14 C 3.230505 2.962785 -0.196832 0
M  V30 15 C 3.386000 2.341617 -1.516656 0
M  V30 16 F 3.012131 3.273347 -2.497672 0
M  V30 17 F 2.459965 1.319404 -1.647831 0
M  V30 18 F 4.617207 1.889034 -1.835099 0
M  V30 19 C 1.005371 -1.251806 1.200062 0
M  V30 20 C -0.126362 -1.431934 1.963444 0
M  V30 21 N -1.053925 -2.433862 1.606610 0
M  V30 22 C -2.341763 -2.928949 2.001434 0 CFG=1
M  V30 23 C -3.495925 -2.034739 1.666123 0
M  V30 24 C -3.335154 -1.660461 0.208121 0
M  V30 25 C -3.545135 -2.907539 -0.602153 0 CFG=1
M  V30 26 N -2.565847 -3.035126 -1.679313 0
M  V30 27 C -2.319543 -2.077549 -2.590842 0
M  V30 28 N -1.364400 -2.569748 -3.403678 0
M  V30 29 C -1.052966 -3.821823 -2.962210 0
M  V30 30 N -1.823864 -4.087423 -1.877046 0
M  V30 31 C -3.651307 -4.146697 0.217557 0
M  V30 32 C -2.655473 -4.263989 1.324268 0
M  V30 33 H 0.513725 1.103025 4.186848 0
M  V30 34 H 3.232605 -0.749487 -0.133784 0
M  V30 35 H 4.406795 0.675510 2.011161 0
M  V30 36 H 4.972214 0.749231 0.352630 0
M  V30 37 H 3.556602 2.548332 3.098368 0
M  V30 38 H 2.214645 5.934155 1.133380 0
M  V30 39 H 2.519654 4.794419 -1.015875 0
M  V30 40 H 1.229244 -1.876845 0.328398 0
M  V30 41 H -0.735766 -3.033431 0.787248 0
M  V30 42 H -2.383412 -3.064064 3.121715 0
M  V30 43 H -4.425300 -2.682145 1.693427 0
M  V30 44 H -3.692336 -1.196931 2.313602 0
M  V30 45 H -2.278382 -1.339891 0.068961 0
M  V30 46 H -3.964740 -0.816329 -0.106450 0
M  V30 47 H -4.519666 -2.776052 -1.135856 0
M  V30 48 H -2.778176 -1.091637 -2.685310 0
M  V30 49 H -0.320889 -4.508854 -3.384903 0
M  V30 50 H -3.432685 -5.007657 -0.480907 0
M  V30 51 H -4.707630 -4.330938 0.528904 0
M  V30 52 H -1.704054 -4.726518 1.000007 0
M  V30 53 H -3.115502 -4.907542 2.100799 0
M  V30 END ATOM
M  V30 BEGIN BOND
M  V30 1 3 1 2
M  V30 2 1 2 3
M  V30 3 2 3 4
M  V30 4 1 4 5
M  V30 5 2 5 6
M  V30 6 1 6 7
M  V30 7 1 7 8
M  V30 8 1 8 9
M  V30 9 2 9 10
M  V30 10 1 10 11
M  V30 11 2 11 12
M  V30 12 1 12 13
M  V30 13 2 13 14
M  V30 14 1 14 15
M  V30 15 1 15 16
M  V30 16 1 15 17
M  V30 17 1 15 18
M  V30 18 1 6 19
M  V30 19 2 19 20
M  V30 20 1 20 21
M  V30 21 1 21 22
M  V30 22 1 22 23
M  V30 23 1 23 24
M  V30 24 1 24 25
M  V30 25 1 25 26
M  V30 26 1 26 27
M  V30 27 2 27 28
M  V30 28 1 28 29
M  V30 29 2 29 30
M  V30 30 1 25 31
M  V30 31 1 31 32
M  V30 32 1 20 3
M  V30 33 1 32 22
M  V30 34 1 14 9
M  V30 35 1 30 26
M  V30 36 1 4 33
M  V30 37 1 7 34
M  V30 38 1 8 35
M  V30 39 1 8 36
M  V30 40 1 10 37
M  V30 41 1 12 38
M  V30 42 1 13 39
M  V30 43 1 19 40
M  V30 44 1 21 41
M  V30 45 1 22 42 CFG=1
M  V30 46 1 23 43
M  V30 47 1 23 44
M  V30 48 1 24 45
M  V30 49 1 24 46
M  V30 50 1 25 47 CFG=3
M  V30 51 1 27 48
M  V30 52 1 29 49
M  V30 53 1 31 50
M  V30 54 1 31 51
M  V30 55 1 32 52
M  V30 56 1 32 53
M  V30 END BOND
M  V30 END CTAB
M  END
>  <Dataset>  (712) 
ChEMBL_Kinases

>  <Ligand_Instance>  (712) 
nan

>  <PDB_ID>  (712) 
nan

>  <Standardized_SMILES>  (712) 
N#Cc1cnc(NCc2cnccc2C(F)(F)F)cc1N[C@H]1CC[C@@H](n2cncn2)CC1

>  <Name>  (712) 
nan

>  <Pocket>  (712) 
nan

>  <ATP_Site>  (712) 
nan

>  <Peripheral>  (712) 
nan

>  <Num_H_Atoms_ProtBoundConf>  (712) 
nan

>  <Num_Resolved_Atoms>  (712) 
nan

>  <Num_Not_Resolved_Atoms>  (712) 
nan

$$$$
CHEMBL4847106
     RDKit          3D

  0  0  0  0  0  0  0  0  0  0999 V3000
M  V30 BEGIN CTAB
M  V30 COUNTS 50 51 0 0 0
M  V30 BEGIN ATOM
M  V30 1 C -0.371437 -4.308559 2.899533 0
M  V30 2 C -0.686637 -3.323875 1.760900 0 CFG=2
M  V30 3 C -1.898885 -2.551549 2.081051 0
M  V30 4 C -2.772655 -2.200013 0.916340 0
M  V30 5 C -2.042076 -2.186859 -0.390497 0 CFG=1
M  V30 6 N -0.969906 -1.247439 -0.447765 0
M  V30 7 C -0.444711 0.060178 -0.507473 0
M  V30 8 N 0.888953 0.330494 -0.474899 0
M  V30 9 C 1.397495 1.538323 -0.536442 0
M  V30 10 N 2.816844 1.537989 -0.482618 0
M  V30 11 C 3.408895 1.624544 0.838651 0
M  V30 12 C 2.928134 0.418102 1.634662 0
M  V30 13 C 2.768054 2.846421 1.499923 0
M  V30 14 C 4.897444 1.723910 0.809642 0
M  V30 15 N 0.598449 2.595920 -0.637662 0
M  V30 16 C -0.727915 2.490673 -0.681710 0
M  V30 17 C -1.206352 1.201444 -0.614224 0
M  V30 18 C -2.655297 1.110893 -0.709726 0
M  V30 19 N -3.474369 2.297733 -0.786462 0
M  V30 20 O -3.737063 0.505781 -0.770887 0
M  V30 21 C -1.586034 -3.626598 -0.596878 0
M  V30 22 C -0.624510 -4.003268 0.455543 0 CFG=1
M  V30 23 O 0.702213 -4.027816 -0.044266 0
M  V30 24 H 0.117142 -3.786209 3.735781 0
M  V30 25 H -1.335715 -4.777180 3.213087 0
M  V30 26 H 0.298239 -5.070056 2.449921 0
M  V30 27 H 0.186949 -2.607090 1.817869 0
M  V30 28 H -1.673964 -1.613573 2.639422 0
M  V30 29 H -2.534930 -3.155914 2.793189 0
M  V30 30 H -3.284415 -1.258577 1.136460 0
M  V30 31 H -3.595167 -2.961804 0.809842 0
M  V30 32 H -2.803074 -1.937052 -1.185829 0
M  V30 33 H -0.129231 -1.902974 -0.438426 0
M  V30 34 H 3.065493 1.468641 -1.510698 0
M  V30 35 H 3.499465 0.361234 2.593749 0
M  V30 36 H 3.090486 -0.524454 1.082774 0
M  V30 37 H 1.872303 0.525379 1.937554 0
M  V30 38 H 3.336693 3.192957 2.374212 0
M  V30 39 H 2.667363 3.623509 0.715468 0
M  V30 40 H 1.752015 2.526617 1.808663 0
M  V30 41 H 5.199991 2.585669 1.444263 0
M  V30 42 H 5.295572 0.790486 1.288074 0
M  V30 43 H 5.296285 1.847881 -0.236281 0
M  V30 44 H -1.333103 3.376287 -0.764037 0
M  V30 45 H -3.788680 2.849955 -1.636551 0
M  V30 46 H -3.933451 2.883360 -0.025132 0
M  V30 47 H -2.511719 -4.224499 -0.519855 0
M  V30 48 H -1.083456 -3.748143 -1.580086 0
M  V30 49 H -0.815018 -5.105541 0.667279 0
M  V30 50 H 0.836817 -4.806777 -0.656183 0
M  V30 END ATOM
M  V30 BEGIN BOND
M  V30 1 1 1 2
M  V30 2 1 2 3
M  V30 3 1 3 4
M  V30 4 1 4 5
M  V30 5 1 5 6
M  V30 6 1 6 7
M  V30 7 2 7 8
M  V30 8 1 8 9
M  V30 9 1 9 10
M  V30 10 1 10 11
M  V30 11 1 11 12
M  V30 12 1 11 13
M  V30 13 1 11 14
M  V30 14 2 9 15
M  V30 15 1 15 16
M  V30 16 2 16 17
M  V30 17 1 17 18
M  V30 18 1 18 19
M  V30 19 2 18 20
M  V30 20 1 5 21
M  V30 21 1 21 22
M  V30 22 1 22 23
M  V30 23 1 22 2
M  V30 24 1 17 7
M  V30 25 1 1 24
M  V30 26 1 1 25
M  V30 27 1 1 26
M  V30 28 1 2 27 CFG=3
M  V30 29 1 3 28
M  V30 30 1 3 29
M  V30 31 1 4 30
M  V30 32 1 4 31
M  V30 33 1 5 32 CFG=3
M  V30 34 1 6 33
M  V30 35 1 10 34
M  V30 36 1 12 35
M  V30 37 1 12 36
M  V30 38 1 12 37
M  V30 39 1 13 38
M  V30 40 1 13 39
M  V30 41 1 13 40
M  V30 42 1 14 41
M  V30 43 1 14 42
M  V30 44 1 14 43
M  V30 45 1 16 44
M  V30 46 1 19 45
M  V30 47 1 19 46
M  V30 48 1 21 47
M  V30 49 1 21 48
M  V30 50 1 22 49 CFG=1
M  V30 51 1 23 50
M  V30 END BOND
M  V30 END CTAB
M  END
>  <Dataset>  (713) 
ChEMBL_Kinases

>  <Ligand_Instance>  (713) 
nan

>  <PDB_ID>  (713) 
nan

>  <Standardized_SMILES>  (713) 
C[C@@H]1CC[C@@H](Nc2nc(NC(C)(C)C)ncc2C(N)=O)C[C@H]1O

>  <Name>  (713) 
CC-90001

>  <Pocket>  (713) 
nan

>  <ATP_Site>  (713) 
nan

>  <Peripheral>  (713) 
nan

>  <Num_H_Atoms_ProtBoundConf>  (713) 
nan

>  <Num_Resolved_Atoms>  (713) 
nan

>  <Num_Not_Resolved_Atoms>  (713) 
nan

$$$$
CHEMBL4874538
     RDKit          3D

  0  0  0  0  0  0  0  0  0  0999 V3000
M  V30 BEGIN CTAB
M  V30 COUNTS 54 58 0 0 0
M  V30 BEGIN ATOM
M  V30 1 C 1.048061 -9.262914 1.245132 0
M  V30 2 S 1.270116 -8.648790 -0.425045 0
M  V30 3 O 0.082725 -9.048272 -1.220249 0
M  V30 4 O 2.537107 -9.242956 -0.958704 0
M  V30 5 C 1.378160 -6.902939 -0.363220 0
M  V30 6 C 0.267139 -6.083338 -0.461714 0
M  V30 7 C 0.389422 -4.708245 -0.409382 0
M  V30 8 C 1.632017 -4.099613 -0.255944 0
M  V30 9 C 1.737643 -2.635965 -0.201955 0
M  V30 10 C 0.666016 -1.938260 0.362410 0
M  V30 11 C 0.793595 -0.564896 0.399000 0
M  V30 12 C 1.872793 0.119618 -0.070887 0
M  V30 13 C 1.880053 1.494593 0.028025 0
M  V30 14 N 0.840287 2.279981 0.586325 0
M  V30 15 C -0.504038 2.483740 0.260671 0
M  V30 16 C -1.091535 1.978233 -0.871159 0
M  V30 17 C -2.415567 2.201817 -1.151777 0
M  V30 18 N -3.097296 2.926869 -0.280125 0
M  V30 19 C -2.580325 3.458567 0.860676 0
M  V30 20 C -3.448690 4.239158 1.733459 0
M  V30 21 C -3.037999 4.823752 2.910594 0
M  V30 22 C -3.899404 5.557923 3.709254 0
M  V30 23 C -5.221964 5.740275 3.360341 0
M  V30 24 C -5.629767 5.158137 2.188676 0
M  V30 25 F -6.928823 5.323365 1.822493 0
M  V30 26 C -4.771328 4.426741 1.393308 0
M  V30 27 C -1.251668 3.234719 1.142971 0
M  V30 28 C 3.047630 2.073410 -0.485406 0
M  V30 29 C 4.101186 1.377425 -1.039879 0
M  V30 30 N 3.978571 0.039471 -1.081721 0
M  V30 31 C 2.902083 -0.617368 -0.617348 0
M  V30 32 C 2.857058 -1.995926 -0.693831 0
M  V30 33 C 2.751827 -4.934228 -0.156820 0
M  V30 34 C 2.624776 -6.313925 -0.209877 0
M  V30 35 H 0.926965 -10.357535 1.251372 0
M  V30 36 H 1.915426 -8.970997 1.867910 0
M  V30 37 H 0.130396 -8.813460 1.704145 0
M  V30 38 H -0.699769 -6.548987 -0.580920 0
M  V30 39 H -0.501046 -4.077146 -0.489088 0
M  V30 40 H -0.191341 -2.462063 0.736976 0
M  V30 41 H -0.048642 -0.057483 0.846965 0
M  V30 42 H 1.315813 2.739812 1.389283 0
M  V30 43 H -0.495264 1.389613 -1.557653 0
M  V30 44 H -2.886904 1.801188 -2.051987 0
M  V30 45 H -2.013904 4.714648 3.234240 0
M  V30 46 H -3.496183 5.994489 4.636574 0
M  V30 47 H -5.863728 6.311037 3.994840 0
M  V30 48 H -5.197872 4.009576 0.488037 0
M  V30 49 H -0.799407 3.635989 2.033538 0
M  V30 50 H 3.138091 3.157633 -0.447362 0
M  V30 51 H 4.960393 1.925081 -1.408665 0
M  V30 52 H 3.670966 -2.558032 -1.124920 0
M  V30 53 H 3.706168 -4.436095 -0.037923 0
M  V30 54 H 3.540940 -6.860878 -0.124955 0
M  V30 END ATOM
M  V30 BEGIN BOND
M  V30 1 1 1 2
M  V30 2 2 2 3
M  V30 3 2 2 4
M  V30 4 1 2 5
M  V30 5 2 5 6
M  V30 6 1 6 7
M  V30 7 2 7 8
M  V30 8 1 8 9
M  V30 9 2 9 10
M  V30 10 1 10 11
M  V30 11 2 11 12
M  V30 12 1 12 13
M  V30 13 1 13 14
M  V30 14 1 14 15
M  V30 15 2 15 16
M  V30 16 1 16 17
M  V30 17 2 17 18
M  V30 18 1 18 19
M  V30 19 1 19 20
M  V30 20 2 20 21
M  V30 21 1 21 22
M  V30 22 2 22 23
M  V30 23 1 23 24
M  V30 24 1 24 25
M  V30 25 2 24 26
M  V30 26 2 19 27
M  V30 27 2 13 28
M  V30 28 1 28 29
M  V30 29 2 29 30
M  V30 30 1 30 31
M  V30 31 2 31 32
M  V30 32 1 8 33
M  V30 33 2 33 34
M  V30 34 1 34 5
M  V30 35 1 32 9
M  V30 36 1 31 12
M  V30 37 1 27 15
M  V30 38 1 26 20
M  V30 39 1 1 35
M  V30 40 1 1 36
M  V30 41 1 1 37
M  V30 42 1 6 38
M  V30 43 1 7 39
M  V30 44 1 10 40
M  V30 45 1 11 41
M  V30 46 1 14 42
M  V30 47 1 16 43
M  V30 48 1 17 44
M  V30 49 1 21 45
M  V30 50 1 22 46
M  V30 51 1 23 47
M  V30 52 1 26 48
M  V30 53 1 27 49
M  V30 54 1 28 50
M  V30 55 1 29 51
M  V30 56 1 32 52
M  V30 57 1 33 53
M  V30 58 1 34 54
M  V30 END BOND
M  V30 END CTAB
M  END
>  <Dataset>  (714) 
ChEMBL_Kinases

>  <Ligand_Instance>  (714) 
nan

>  <PDB_ID>  (714) 
nan

>  <Standardized_SMILES>  (714) 
CS(=O)(=O)c1ccc(-c2ccc3c(Nc4ccnc(-c5cccc(F)c5)c4)ccnc3c2)cc1

>  <Name>  (714) 
nan

>  <Pocket>  (714) 
nan

>  <ATP_Site>  (714) 
nan

>  <Peripheral>  (714) 
nan

>  <Num_H_Atoms_ProtBoundConf>  (714) 
nan

>  <Num_Resolved_Atoms>  (714) 
nan

>  <Num_Not_Resolved_Atoms>  (714) 
nan

$$$$
CHEMBL4777610
     RDKit          3D

  0  0  0  0  0  0  0  0  0  0999 V3000
M  V30 BEGIN CTAB
M  V30 COUNTS 56 60 0 0 0
M  V30 BEGIN ATOM
M  V30 1 C 1.108011 3.564097 3.800443 0
M  V30 2 C 1.083055 2.268552 3.016600 0
M  V30 3 C -0.203946 2.216471 2.235429 0
M  V30 4 O 1.091301 1.186257 3.898304 0
M  V30 5 C 2.258628 2.208137 2.120004 0
M  V30 6 C 2.511798 1.153636 1.280318 0
M  V30 7 C 3.576864 1.020831 0.418974 0
M  V30 8 N 3.817447 -0.054796 -0.462996 0
M  V30 9 C 2.969722 -0.908546 -1.201439 0
M  V30 10 C 1.605131 -0.815725 -1.336503 0
M  V30 11 C 0.770507 -1.677819 -2.057764 0
M  V30 12 O -0.570165 -1.408705 -2.068726 0
M  V30 13 C -1.542727 -1.752736 -1.172577 0
M  V30 14 C -2.129482 -0.583049 -0.655781 0
M  V30 15 N -3.103533 -0.907214 0.238904 0
M  V30 16 C -4.009452 -0.124571 1.055588 0
M  V30 17 C -4.371798 -0.716715 2.431474 0
M  V30 18 C -5.389074 -0.737049 1.342144 0
M  V30 19 N -3.140576 -2.238501 0.294344 0
M  V30 20 C -2.227973 -2.755164 -0.530038 0
M  V30 21 C -1.878536 -4.126448 -0.851806 0
M  V30 22 C -0.673591 -4.785344 -0.907274 0
M  V30 23 C -0.671358 -6.112383 -1.272499 0
M  V30 24 N -1.789560 -6.795802 -1.577067 0
M  V30 25 C -2.979804 -6.184591 -1.532591 0
M  V30 26 C -3.042103 -4.842568 -1.169743 0
M  V30 27 C 1.464511 -2.713817 -2.677261 0
M  V30 28 C 2.831472 -2.829916 -2.558833 0
M  V30 29 N 3.524557 -1.945129 -1.841963 0
M  V30 30 C 4.424290 2.118361 0.482074 0
M  V30 31 C 4.232803 3.209070 1.299750 0
M  V30 32 N 3.166033 3.224972 2.088717 0
M  V30 33 H 1.443684 4.379050 3.115115 0
M  V30 34 H 1.794541 3.435695 4.662152 0
M  V30 35 H 0.119409 3.843019 4.194262 0
M  V30 36 H 0.041815 2.317004 1.153516 0
M  V30 37 H -0.712649 1.233034 2.347427 0
M  V30 38 H -0.913985 2.979974 2.572367 0
M  V30 39 H 1.689347 0.448176 3.576697 0
M  V30 40 H 1.778892 0.367522 1.347683 0
M  V30 41 H 4.865268 -0.208478 -0.547687 0
M  V30 42 H 1.121195 0.012244 -0.846308 0
M  V30 43 H -2.033484 0.511483 -0.761180 0
M  V30 44 H -3.929480 0.979123 0.995965 0
M  V30 45 H -4.530033 -0.022878 3.273236 0
M  V30 46 H -3.870338 -1.679079 2.687952 0
M  V30 47 H -5.561955 -1.736479 0.865369 0
M  V30 48 H -6.250818 -0.023189 1.359874 0
M  V30 49 H 0.127678 -4.148481 -0.637376 0
M  V30 50 H 0.308177 -6.574214 -1.297510 0
M  V30 51 H -3.844709 -6.782098 -1.786860 0
M  V30 52 H -4.074867 -4.475317 -1.175923 0
M  V30 53 H 0.815289 -3.394678 -3.246237 0
M  V30 54 H 3.309272 -3.648636 -3.059011 0
M  V30 55 H 5.325191 2.175866 -0.139384 0
M  V30 56 H 4.893610 4.051670 1.340498 0
M  V30 END ATOM
M  V30 BEGIN BOND
M  V30 1 1 1 2
M  V30 2 1 2 3
M  V30 3 1 2 4
M  V30 4 1 2 5
M  V30 5 2 5 6
M  V30 6 1 6 7
M  V30 7 1 7 8
M  V30 8 1 8 9
M  V30 9 2 9 10
M  V30 10 1 10 11
M  V30 11 1 11 12
M  V30 12 1 12 13
M  V30 13 2 13 14
M  V30 14 1 14 15
M  V30 15 1 15 16
M  V30 16 1 16 17
M  V30 17 1 17 18
M  V30 18 1 15 19
M  V30 19 2 19 20
M  V30 20 1 20 21
M  V30 21 2 21 22
M  V30 22 1 22 23
M  V30 23 2 23 24
M  V30 24 1 24 25
M  V30 25 2 25 26
M  V30 26 2 11 27
M  V30 27 1 27 28
M  V30 28 2 28 29
M  V30 29 2 7 30
M  V30 30 1 30 31
M  V30 31 2 31 32
M  V30 32 1 32 5
M  V30 33 1 29 9
M  V30 34 1 20 13
M  V30 35 1 26 21
M  V30 36 1 18 16
M  V30 37 1 1 33
M  V30 38 1 1 34
M  V30 39 1 1 35
M  V30 40 1 3 36
M  V30 41 1 3 37
M  V30 42 1 3 38
M  V30 43 1 4 39
M  V30 44 1 6 40
M  V30 45 1 8 41
M  V30 46 1 10 42
M  V30 47 1 14 43
M  V30 48 1 16 44
M  V30 49 1 17 45
M  V30 50 1 17 46
M  V30 51 1 18 47
M  V30 52 1 18 48
M  V30 53 1 22 49
M  V30 54 1 23 50
M  V30 55 1 25 51
M  V30 56 1 26 52
M  V30 57 1 27 53
M  V30 58 1 28 54
M  V30 59 1 30 55
M  V30 60 1 31 56
M  V30 END BOND
M  V30 END CTAB
M  END
>  <Dataset>  (715) 
ChEMBL_Kinases

>  <Ligand_Instance>  (715) 
nan

>  <PDB_ID>  (715) 
nan

>  <Standardized_SMILES>  (715) 
CC(C)(O)c1cc(Nc2cc(Oc3cn(C4CC4)nc3-c3ccncc3)ccn2)ccn1

>  <Name>  (715) 
nan

>  <Pocket>  (715) 
nan

>  <ATP_Site>  (715) 
nan

>  <Peripheral>  (715) 
nan

>  <Num_H_Atoms_ProtBoundConf>  (715) 
nan

>  <Num_Resolved_Atoms>  (715) 
nan

>  <Num_Not_Resolved_Atoms>  (715) 
nan

$$$$
CHEMBL4847311
     RDKit          3D

  0  0  0  0  0  0  0  0  0  0999 V3000
M  V30 BEGIN CTAB
M  V30 COUNTS 49 52 0 0 0
M  V30 BEGIN ATOM
M  V30 1 C -1.659357 -1.854857 4.725544 0
M  V30 2 C -0.468691 -1.040472 4.248355 0
M  V30 3 C 0.406878 -1.889215 3.389135 0
M  V30 4 C 0.265435 -2.003496 2.033130 0
M  V30 5 C 1.218342 -2.863023 1.527778 0
M  V30 6 N 1.456718 -3.240118 0.182554 0
M  V30 7 C 0.591629 -2.475035 -0.698165 0
M  V30 8 N 1.126427 -1.256972 -0.988561 0
M  V30 9 C 0.504980 -0.356891 -1.790896 0
M  V30 10 N 1.186696 0.876142 -1.984494 0
M  V30 11 C 1.850016 1.491666 -0.861094 0 CFG=1
M  V30 12 C 2.751647 2.652983 -1.250777 0
M  V30 13 C 0.847906 1.959599 0.175144 0
M  V30 14 C 1.517250 2.372149 1.344533 0
M  V30 15 C 0.777523 2.840659 2.415989 0
M  V30 16 C -0.602292 2.927311 2.381206 0
M  V30 17 F -1.387872 3.393010 3.408365 0
M  V30 18 C -1.192785 2.513232 1.213622 0
M  V30 19 C -0.506817 2.036155 0.130375 0
M  V30 20 N -0.711267 -0.688172 -2.334405 0
M  V30 21 C -1.251121 -1.910447 -2.045352 0
M  V30 22 C -2.468891 -2.262861 -2.583429 0
M  V30 23 C -2.996234 -3.522338 -2.273491 0
M  V30 24 C -2.307864 -4.403170 -1.437723 0
M  V30 25 C -1.084341 -4.078158 -0.883023 0
M  V30 26 F -0.368015 -4.888085 -0.061286 0
M  V30 27 C -0.625383 -2.823041 -1.231799 0
M  V30 28 N 1.920288 -3.258880 2.595025 0
M  V30 29 N 1.460030 -2.688748 3.723948 0
M  V30 30 H -1.315376 -2.899240 4.871888 0
M  V30 31 H -2.415037 -1.890380 3.933673 0
M  V30 32 H -2.107971 -1.427417 5.618249 0
M  V30 33 H -0.873256 -0.190105 3.675050 0
M  V30 34 H 0.134129 -0.644756 5.079158 0
M  V30 35 H -0.506838 -1.475391 1.472479 0
M  V30 36 H 2.159294 -3.978953 -0.045871 0
M  V30 37 H 1.093959 1.165246 -2.976377 0
M  V30 38 H 2.488315 0.744530 -0.340217 0
M  V30 39 H 3.597740 2.696382 -0.497178 0
M  V30 40 H 2.179858 3.577142 -1.120264 0
M  V30 41 H 3.182192 2.514369 -2.240498 0
M  V30 42 H 2.589614 2.366572 1.528448 0
M  V30 43 H 1.227682 3.181556 3.353757 0
M  V30 44 H -2.280695 2.557542 1.115317 0
M  V30 45 H -0.895804 1.690316 -0.823612 0
M  V30 46 H -3.027178 -1.621416 -3.227098 0
M  V30 47 H -3.966918 -3.828493 -2.691454 0
M  V30 48 H -2.730427 -5.392992 -1.202830 0
M  V30 49 H 1.808783 -2.810892 4.692772 0
M  V30 END ATOM
M  V30 BEGIN BOND
M  V30 1 1 1 2
M  V30 2 1 2 3
M  V30 3 2 3 4
M  V30 4 1 4 5
M  V30 5 1 5 6
M  V30 6 1 6 7
M  V30 7 2 7 8
M  V30 8 1 8 9
M  V30 9 1 9 10
M  V30 10 1 10 11
M  V30 11 1 11 12
M  V30 12 1 11 13
M  V30 13 2 13 14
M  V30 14 1 14 15
M  V30 15 2 15 16
M  V30 16 1 16 17
M  V30 17 1 16 18
M  V30 18 2 18 19
M  V30 19 2 9 20
M  V30 20 1 20 21
M  V30 21 2 21 22
M  V30 22 1 22 23
M  V30 23 2 23 24
M  V30 24 1 24 25
M  V30 25 1 25 26
M  V30 26 2 25 27
M  V30 27 2 5 28
M  V30 28 1 28 29
M  V30 29 1 29 3
M  V30 30 1 27 7
M  V30 31 1 19 13
M  V30 32 1 27 21
M  V30 33 1 1 30
M  V30 34 1 1 31
M  V30 35 1 1 32
M  V30 36 1 2 33
M  V30 37 1 2 34
M  V30 38 1 4 35
M  V30 39 1 6 36
M  V30 40 1 10 37
M  V30 41 1 11 38 CFG=1
M  V30 42 1 12 39
M  V30 43 1 12 40
M  V30 44 1 12 41
M  V30 45 1 14 42
M  V30 46 1 15 43
M  V30 47 1 18 44
M  V30 48 1 19 45
M  V30 49 1 22 46
M  V30 50 1 23 47
M  V30 51 1 24 48
M  V30 52 1 29 49
M  V30 END BOND
M  V30 END CTAB
M  END
>  <Dataset>  (716) 
ChEMBL_Kinases

>  <Ligand_Instance>  (716) 
nan

>  <PDB_ID>  (716) 
nan

>  <Standardized_SMILES>  (716) 
CCc1cc(Nc2nc(N[C@@H](C)c3ccc(F)cc3)nc3cccc(F)c23)n[nH]1

>  <Name>  (716) 
nan

>  <Pocket>  (716) 
nan

>  <ATP_Site>  (716) 
nan

>  <Peripheral>  (716) 
nan

>  <Num_H_Atoms_ProtBoundConf>  (716) 
nan

>  <Num_Resolved_Atoms>  (716) 
nan

>  <Num_Not_Resolved_Atoms>  (716) 
nan

$$$$
CHEMBL4847382
     RDKit          3D

  0  0  0  0  0  0  0  0  0  0999 V3000
M  V30 BEGIN CTAB
M  V30 COUNTS 62 66 0 0 0
M  V30 BEGIN ATOM
M  V30 1 C 4.004507 -0.867160 9.822896 0
M  V30 2 C 3.698287 -1.092904 8.376700 0
M  V30 3 C 4.186993 -0.194705 7.432732 0
M  V30 4 C 3.874778 -0.450943 6.111298 0
M  V30 5 C 3.125887 -1.519643 5.694014 0
M  V30 6 C 2.780736 -1.814597 4.309332 0
M  V30 7 C 3.204775 -1.001049 3.283082 0
M  V30 8 C 2.874042 -1.283351 1.959717 0
M  V30 9 N 3.320747 -0.446821 0.880122 0
M  V30 10 C 2.854428 -0.576945 -0.454247 0
M  V30 11 C 3.767589 -0.904441 -1.460725 0
M  V30 12 C 3.280187 -1.025117 -2.753764 0
M  V30 13 N 1.970783 -0.843788 -3.096414 0
M  V30 14 C 1.068790 -0.524033 -2.129268 0
M  V30 15 C -0.273360 -0.321411 -2.416522 0
M  V30 16 C -1.197052 0.013097 -1.426610 0
M  V30 17 C -2.607991 0.222975 -1.728607 0
M  V30 18 C -3.602977 -0.070277 -0.802379 0
M  V30 19 N -4.799892 0.215110 -1.336261 0
M  V30 20 N -4.618273 0.685896 -2.582784 0
M  V30 21 C -5.724407 1.083746 -3.415460 0
M  V30 22 C -6.221457 -0.096458 -4.217679 0
M  V30 23 N -5.119433 -0.544673 -5.063682 0
M  V30 24 C -5.525583 -1.748048 -5.802555 0
M  V30 25 C -4.790765 0.489162 -6.044036 0
M  V30 26 C -3.305667 0.687194 -2.808930 0
M  V30 27 C -0.738207 0.142963 -0.118375 0
M  V30 28 C 0.602336 -0.066417 0.126751 0
M  V30 29 C 1.539283 -0.398439 -0.826717 0
M  V30 30 C 2.096866 -2.429051 1.752672 0
M  V30 31 C 1.675188 -3.240249 2.784062 0
M  V30 32 N 2.023577 -2.919310 4.040941 0
M  V30 33 C 2.689714 -2.348912 6.704944 0
M  V30 34 C 2.930461 -2.205307 8.050281 0
M  V30 35 H 3.141400 -0.271974 10.231214 0
M  V30 36 H 4.930284 -0.285984 9.954355 0
M  V30 37 H 4.010521 -1.844936 10.365418 0
M  V30 38 H 4.778311 0.655465 7.726034 0
M  V30 39 H 4.249046 0.239237 5.376477 0
M  V30 40 H 3.804171 -0.116703 3.431499 0
M  V30 41 H 4.022709 0.281537 1.121606 0
M  V30 42 H 4.807067 -1.066185 -1.299099 0
M  V30 43 H 3.869483 -1.272336 -3.625982 0
M  V30 44 H -0.583440 -0.432876 -3.444764 0
M  V30 45 H -3.578023 -0.464623 0.211445 0
M  V30 46 H -6.541271 1.450448 -2.727131 0
M  V30 47 H -5.494976 1.944325 -4.080661 0
M  V30 48 H -6.419077 -0.936570 -3.517264 0
M  V30 49 H -7.129607 0.122468 -4.780542 0
M  V30 50 H -4.598659 -2.166879 -6.212689 0
M  V30 51 H -5.898864 -2.486761 -5.063337 0
M  V30 52 H -6.212947 -1.523564 -6.619762 0
M  V30 53 H -5.746720 0.887746 -6.447512 0
M  V30 54 H -4.161802 0.026112 -6.821399 0
M  V30 55 H -4.241777 1.292568 -5.529679 0
M  V30 56 H -2.794980 0.996252 -3.691104 0
M  V30 57 H -1.452191 0.401650 0.645481 0
M  V30 58 H 0.867831 0.064017 1.156501 0
M  V30 59 H 1.812695 -2.690210 0.723996 0
M  V30 60 H 1.075591 -4.115108 2.569144 0
M  V30 61 H 2.086575 -3.217365 6.417179 0
M  V30 62 H 2.552584 -2.898085 8.769754 0
M  V30 END ATOM
M  V30 BEGIN BOND
M  V30 1 1 1 2
M  V30 2 2 2 3
M  V30 3 1 3 4
M  V30 4 2 4 5
M  V30 5 1 5 6
M  V30 6 2 6 7
M  V30 7 1 7 8
M  V30 8 1 8 9
M  V30 9 1 9 10
M  V30 10 2 10 11
M  V30 11 1 11 12
M  V30 12 2 12 13
M  V30 13 1 13 14
M  V30 14 2 14 15
M  V30 15 1 15 16
M  V30 16 1 16 17
M  V30 17 1 17 18
M  V30 18 2 18 19
M  V30 19 1 19 20
M  V30 20 1 20 21
M  V30 21 1 21 22
M  V30 22 1 22 23
M  V30 23 1 23 24
M  V30 24 1 23 25
M  V30 25 1 20 26
M  V30 26 2 16 27
M  V30 27 1 27 28
M  V30 28 2 28 29
M  V30 29 2 8 30
M  V30 30 1 30 31
M  V30 31 2 31 32
M  V30 32 1 5 33
M  V30 33 2 33 34
M  V30 34 1 34 2
M  V30 35 1 32 6
M  V30 36 1 29 10
M  V30 37 1 29 14
M  V30 38 2 26 17
M  V30 39 1 1 35
M  V30 40 1 1 36
M  V30 41 1 1 37
M  V30 42 1 3 38
M  V30 43 1 4 39
M  V30 44 1 7 40
M  V30 45 1 9 41
M  V30 46 1 11 42
M  V30 47 1 12 43
M  V30 48 1 15 44
M  V30 49 1 18 45
M  V30 50 1 21 46
M  V30 51 1 21 47
M  V30 52 1 22 48
M  V30 53 1 22 49
M  V30 54 1 24 50
M  V30 55 1 24 51
M  V30 56 1 24 52
M  V30 57 1 25 53
M  V30 58 1 25 54
M  V30 59 1 25 55
M  V30 60 1 26 56
M  V30 61 1 27 57
M  V30 62 1 28 58
M  V30 63 1 30 59
M  V30 64 1 31 60
M  V30 65 1 33 61
M  V30 66 1 34 62
M  V30 END BOND
M  V30 END CTAB
M  END
>  <Dataset>  (717) 
ChEMBL_Kinases

>  <Ligand_Instance>  (717) 
nan

>  <PDB_ID>  (717) 
nan

>  <Standardized_SMILES>  (717) 
Cc1ccc(-c2cc(Nc3ccnc4cc(-c5cnn(CCN(C)C)c5)ccc34)ccn2)cc1

>  <Name>  (717) 
nan

>  <Pocket>  (717) 
nan

>  <ATP_Site>  (717) 
nan

>  <Peripheral>  (717) 
nan

>  <Num_H_Atoms_ProtBoundConf>  (717) 
nan

>  <Num_Resolved_Atoms>  (717) 
nan

>  <Num_Not_Resolved_Atoms>  (717) 
nan

$$$$
CHEMBL4847716
     RDKit          3D

  0  0  0  0  0  0  0  0  0  0999 V3000
M  V30 BEGIN CTAB
M  V30 COUNTS 56 59 0 0 0
M  V30 BEGIN ATOM
M  V30 1 C -2.051738 -1.200002 5.808373 0
M  V30 2 C -1.381999 -1.491053 4.506152 0
M  V30 3 N -0.049414 -1.300253 4.499159 0
M  V30 4 C 0.691276 -1.523131 3.411107 0
M  V30 5 N 2.084227 -1.378945 3.218483 0
M  V30 6 C 2.846112 -0.425741 2.473273 0
M  V30 7 N 3.917188 -0.099488 2.211871 0
M  V30 8 C 4.354984 0.853513 1.436070 0
M  V30 9 C 3.319556 1.602495 0.820647 0
M  V30 10 C 3.661059 2.727512 -0.117949 0
M  V30 11 O 4.844146 2.990605 -0.320607 0
M  V30 12 N 2.626300 3.442381 -0.735993 0
M  V30 13 C 2.640811 4.517304 -1.646173 0
M  V30 14 C 3.685903 5.125267 -2.217080 0
M  V30 15 Cl 5.400826 4.850904 -2.098676 0
M  V30 16 C 3.525882 6.140849 -3.057174 0
M  V30 17 S 1.710063 6.382918 -3.151226 0
M  V30 18 C 1.366499 4.994443 -1.969418 0
M  V30 19 C -0.029349 4.654557 -1.601739 0
M  V30 20 S 1.876070 0.837097 1.440439 0
M  V30 21 C 0.031633 -1.959590 2.283119 0
M  V30 22 C -1.331694 -2.160136 2.271092 0
M  V30 23 N -2.028954 -2.595548 1.109877 0
M  V30 24 C -3.396187 -3.103837 1.098345 0
M  V30 25 C -3.450176 -4.402419 0.274001 0
M  V30 26 N -2.829576 -4.139736 -0.958022 0
M  V30 27 C -2.883583 -5.099375 -1.985123 0
M  V30 28 C -2.034034 -6.294318 -1.528661 0
M  V30 29 O -0.721201 -5.806061 -1.327997 0
M  V30 30 C -2.350937 -2.844697 -1.234792 0
M  V30 31 C -1.315323 -2.510526 -0.151024 0
M  V30 32 N -2.038790 -1.923903 3.390496 0
M  V30 33 H -3.004573 -1.780666 5.860013 0
M  V30 34 H -1.373541 -1.488593 6.645433 0
M  V30 35 H -2.281910 -0.143943 5.962709 0
M  V30 36 H 2.717672 -2.062017 3.679254 0
M  V30 37 H 5.438012 0.977579 1.340885 0
M  V30 38 H 1.709580 3.021562 -0.392638 0
M  V30 39 H 3.987184 6.880693 -3.705396 0
M  V30 40 H -0.321584 3.776661 -2.172591 0
M  V30 41 H -0.107874 4.362193 -0.526977 0
M  V30 42 H -0.676387 5.522856 -1.833556 0
M  V30 43 H 0.517660 -2.180682 1.321545 0
M  V30 44 H -4.069667 -2.390831 0.589499 0
M  V30 45 H -3.733217 -3.315704 2.135905 0
M  V30 46 H -2.778000 -5.100656 0.858837 0
M  V30 47 H -4.470293 -4.802346 0.236878 0
M  V30 48 H -2.440616 -4.784318 -2.945738 0
M  V30 49 H -3.917705 -5.501243 -2.183092 0
M  V30 50 H -2.029408 -7.098033 -2.264720 0
M  V30 51 H -2.393754 -6.602039 -0.519062 0
M  V30 52 H -0.363599 -5.376535 -2.152703 0
M  V30 53 H -3.120615 -2.026264 -1.162103 0
M  V30 54 H -1.918214 -2.778216 -2.254563 0
M  V30 55 H -0.904132 -1.491082 -0.320538 0
M  V30 56 H -0.531095 -3.285328 -0.225285 0
M  V30 END ATOM
M  V30 BEGIN BOND
M  V30 1 1 1 2
M  V30 2 2 2 3
M  V30 3 1 3 4
M  V30 4 1 4 5
M  V30 5 1 5 6
M  V30 6 2 6 7
M  V30 7 1 7 8
M  V30 8 2 8 9
M  V30 9 1 9 10
M  V30 10 2 10 11
M  V30 11 1 10 12
M  V30 12 1 12 13
M  V30 13 1 13 14
M  V30 14 1 14 15
M  V30 15 2 14 16
M  V30 16 1 16 17
M  V30 17 1 17 18
M  V30 18 1 18 19
M  V30 19 1 9 20
M  V30 20 2 4 21
M  V30 21 1 21 22
M  V30 22 1 22 23
M  V30 23 1 23 24
M  V30 24 1 24 25
M  V30 25 1 25 26
M  V30 26 1 26 27
M  V30 27 1 27 28
M  V30 28 1 28 29
M  V30 29 1 26 30
M  V30 30 1 30 31
M  V30 31 2 22 32
M  V30 32 1 32 2
M  V30 33 1 20 6
M  V30 34 1 31 23
M  V30 35 2 18 13
M  V30 36 1 1 33
M  V30 37 1 1 34
M  V30 38 1 1 35
M  V30 39 1 5 36
M  V30 40 1 8 37
M  V30 41 1 12 38
M  V30 42 1 16 39
M  V30 43 1 19 40
M  V30 44 1 19 41
M  V30 45 1 19 42
M  V30 46 1 21 43
M  V30 47 1 24 44
M  V30 48 1 24 45
M  V30 49 1 25 46
M  V30 50 1 25 47
M  V30 51 1 27 48
M  V30 52 1 27 49
M  V30 53 1 28 50
M  V30 54 1 28 51
M  V30 55 1 29 52
M  V30 56 1 30 53
M  V30 57 1 30 54
M  V30 58 1 31 55
M  V30 59 1 31 56
M  V30 END BOND
M  V30 END CTAB
M  END
>  <Dataset>  (718) 
ChEMBL_Kinases

>  <Ligand_Instance>  (718) 
nan

>  <PDB_ID>  (718) 
nan

>  <Standardized_SMILES>  (718) 
Cc1nc(Nc2ncc(C(=O)Nc3c(Cl)csc3C)s2)cc(N2CCN(CCO)CC2)n1

>  <Name>  (718) 
nan

>  <Pocket>  (718) 
nan

>  <ATP_Site>  (718) 
nan

>  <Peripheral>  (718) 
nan

>  <Num_H_Atoms_ProtBoundConf>  (718) 
nan

>  <Num_Resolved_Atoms>  (718) 
nan

>  <Num_Not_Resolved_Atoms>  (718) 
nan

$$$$
CHEMBL4874455
     RDKit          3D

  0  0  0  0  0  0  0  0  0  0999 V3000
M  V30 BEGIN CTAB
M  V30 COUNTS 46 49 0 0 0
M  V30 BEGIN ATOM
M  V30 1 C 0.100333 -7.149950 -0.043556 0
M  V30 2 O -0.873392 -6.478460 -0.806431 0
M  V30 3 C -0.786756 -5.148806 -1.196388 0
M  V30 4 C 0.261794 -4.305717 -0.890704 0
M  V30 5 C 0.240771 -2.996098 -1.333968 0
M  V30 6 C -0.826305 -2.533714 -2.080175 0
M  V30 7 C -0.802193 -1.142901 -2.525004 0
M  V30 8 N -1.106612 -0.678847 -3.767731 0
M  V30 9 N -0.976016 0.644092 -3.813372 0
M  V30 10 C -0.580614 1.126347 -2.611697 0
M  V30 11 N -0.307886 2.349287 -2.121063 0
M  V30 12 C 0.076036 2.524458 -0.842111 0
M  V30 13 C 0.204782 1.433317 0.024228 0
M  V30 14 C 0.617420 1.547656 1.425857 0
M  V30 15 C 1.320160 0.467592 1.937501 0
M  V30 16 C 1.724909 0.552113 3.271590 0
M  V30 17 C 1.444625 1.655729 4.057208 0
M  V30 18 O 1.854364 1.719112 5.375422 0
M  V30 19 C 2.566778 0.721343 6.038533 0
M  V30 20 C 0.743278 2.719961 3.526350 0
M  V30 21 O 0.479010 3.810466 4.340405 0
M  V30 22 C -0.213943 4.949003 3.943516 0
M  V30 23 C 0.336343 2.650624 2.208130 0
M  V30 24 C -0.083715 0.187016 -0.512978 0
M  V30 25 C -0.477175 0.001153 -1.821372 0
M  V30 26 C -1.865004 -3.395273 -2.374287 0
M  V30 27 C -1.868821 -4.712964 -1.942185 0
M  V30 28 H 0.875544 -7.637931 -0.683280 0
M  V30 29 H -0.377373 -7.964085 0.566221 0
M  V30 30 H 0.607690 -6.444407 0.648063 0
M  V30 31 H 1.080331 -4.701893 -0.304586 0
M  V30 32 H 1.105987 -2.416062 -1.044111 0
M  V30 33 H -1.142432 1.265552 -4.632786 0
M  V30 34 H 0.307446 3.492319 -0.399077 0
M  V30 35 H 1.594399 -0.441100 1.420514 0
M  V30 36 H 2.282277 -0.243171 3.767781 0
M  V30 37 H 3.609116 0.589823 5.682451 0
M  V30 38 H 2.106385 -0.283552 5.955964 0
M  V30 39 H 2.664049 1.047695 7.115040 0
M  V30 40 H 0.228936 5.499898 3.100321 0
M  V30 41 H -0.390762 5.590893 4.835475 0
M  V30 42 H -1.251275 4.634808 3.630504 0
M  V30 43 H -0.211211 3.472480 1.780735 0
M  V30 44 H 0.013807 -0.644652 0.146544 0
M  V30 45 H -2.702686 -3.031178 -2.960410 0
M  V30 46 H -2.714103 -5.348447 -2.203182 0
M  V30 END ATOM
M  V30 BEGIN BOND
M  V30 1 1 1 2
M  V30 2 1 2 3
M  V30 3 2 3 4
M  V30 4 1 4 5
M  V30 5 2 5 6
M  V30 6 1 6 7
M  V30 7 2 7 8
M  V30 8 1 8 9
M  V30 9 1 9 10
M  V30 10 2 10 11
M  V30 11 1 11 12
M  V30 12 2 12 13
M  V30 13 1 13 14
M  V30 14 2 14 15
M  V30 15 1 15 16
M  V30 16 2 16 17
M  V30 17 1 17 18
M  V30 18 1 18 19
M  V30 19 1 17 20
M  V30 20 1 20 21
M  V30 21 1 21 22
M  V30 22 2 20 23
M  V30 23 1 13 24
M  V30 24 2 24 25
M  V30 25 1 6 26
M  V30 26 2 26 27
M  V30 27 1 27 3
M  V30 28 1 25 7
M  V30 29 1 25 10
M  V30 30 1 23 14
M  V30 31 1 1 28
M  V30 32 1 1 29
M  V30 33 1 1 30
M  V30 34 1 4 31
M  V30 35 1 5 32
M  V30 36 1 9 33
M  V30 37 1 12 34
M  V30 38 1 15 35
M  V30 39 1 16 36
M  V30 40 1 19 37
M  V30 41 1 19 38
M  V30 42 1 19 39
M  V30 43 1 22 40
M  V30 44 1 22 41
M  V30 45 1 22 42
M  V30 46 1 23 43
M  V30 47 1 24 44
M  V30 48 1 26 45
M  V30 49 1 27 46
M  V30 END BOND
M  V30 END CTAB
M  END
>  <Dataset>  (719) 
ChEMBL_Kinases

>  <Ligand_Instance>  (719) 
nan

>  <PDB_ID>  (719) 
nan

>  <Standardized_SMILES>  (719) 
COc1ccc(-c2n[nH]c3ncc(-c4ccc(OC)c(OC)c4)cc23)cc1

>  <Name>  (719) 
nan

>  <Pocket>  (719) 
nan

>  <ATP_Site>  (719) 
nan

>  <Peripheral>  (719) 
nan

>  <Num_H_Atoms_ProtBoundConf>  (719) 
nan

>  <Num_Resolved_Atoms>  (719) 
nan

>  <Num_Not_Resolved_Atoms>  (719) 
nan

$$$$
CHEMBL4874448
     RDKit          3D

  0  0  0  0  0  0  0  0  0  0999 V3000
M  V30 BEGIN CTAB
M  V30 COUNTS 71 76 0 0 0
M  V30 BEGIN ATOM
M  V30 1 C 1.955459 -4.436027 3.752281 0
M  V30 2 N 2.290215 -5.447019 2.810244 0
M  V30 3 C 3.675320 -5.540638 2.455143 0
M  V30 4 C 4.093800 -4.257076 1.720210 0
M  V30 5 N 2.955977 -3.753781 0.969027 0
M  V30 6 C 2.623126 -2.386417 0.771724 0
M  V30 7 C 1.513137 -1.923497 0.096635 0
M  V30 8 C 1.245821 -0.578803 -0.060607 0
M  V30 9 C 2.115250 0.350025 0.473668 0
M  V30 10 C 1.862788 1.768626 0.330212 0
M  V30 11 C 0.818311 2.372288 -0.300082 0
M  V30 12 C 0.709722 3.721893 -0.352487 0
M  V30 13 C -0.201591 4.586240 -0.896679 0
M  V30 14 N -1.336857 4.159307 -1.600243 0
M  V30 15 C -1.354470 3.404746 -2.817393 0
M  V30 16 C -2.122034 2.135441 -2.624797 0
M  V30 17 N -2.999417 2.225458 -1.494336 0
M  V30 18 C -3.343916 1.175834 -0.565018 0
M  V30 19 O -4.131794 1.340875 0.414665 0
M  V30 20 N -2.758176 -0.096533 -0.780367 0
M  V30 21 C -2.894027 -1.312773 -0.056297 0
M  V30 22 C -2.153289 -1.792656 1.014761 0
M  V30 23 C -2.487171 -3.016238 1.547144 0
M  V30 24 C -3.519610 -3.787097 1.069162 0
M  V30 25 Cl -3.809986 -5.320960 1.863216 0
M  V30 26 C -4.260940 -3.302533 -0.005910 0
M  V30 27 C -5.367897 -4.177734 -0.484825 0
M  V30 28 F -4.786680 -5.386004 -0.880435 0
M  V30 29 F -6.177345 -4.443853 0.604490 0
M  V30 30 F -6.070826 -3.585875 -1.511049 0
M  V30 31 C -3.943008 -2.077919 -0.554593 0
M  V30 32 C -3.631909 3.525719 -1.234822 0
M  V30 33 C -2.582749 4.577436 -0.960754 0
M  V30 34 N -0.048246 5.905254 -0.787345 0
M  V30 35 C 0.939317 6.540861 -0.178629 0
M  V30 36 N 1.915021 5.840564 0.406370 0
M  V30 37 C 1.763022 4.412091 0.296673 0
M  V30 38 S 2.858809 3.027055 0.949933 0
M  V30 39 C 3.235962 -0.073124 1.155086 0
M  V30 40 C 3.466576 -1.427284 1.289996 0
M  V30 41 C 2.226562 -4.898245 0.459406 0
M  V30 42 C 1.462857 -5.508443 1.642530 0
M  V30 43 H 2.911038 -4.169406 4.294014 0
M  V30 44 H 1.268467 -4.762178 4.557192 0
M  V30 45 H 1.626810 -3.488046 3.267448 0
M  V30 46 H 3.791532 -6.429676 1.799306 0
M  V30 47 H 4.324126 -5.710105 3.341911 0
M  V30 48 H 4.849570 -4.568559 0.943345 0
M  V30 49 H 4.534164 -3.548983 2.418209 0
M  V30 50 H 0.828464 -2.634440 -0.323421 0
M  V30 51 H 0.351766 -0.298154 -0.605199 0
M  V30 52 H 0.059220 1.759435 -0.767425 0
M  V30 53 H -0.344278 3.243170 -3.244033 0
M  V30 54 H -1.932924 4.011661 -3.570776 0
M  V30 55 H -1.432190 1.253681 -2.569026 0
M  V30 56 H -2.752493 1.919743 -3.525413 0
M  V30 57 H -2.099613 -0.368095 -1.541305 0
M  V30 58 H -1.374451 -1.118466 1.309739 0
M  V30 59 H -1.866286 -3.321910 2.376582 0
M  V30 60 H -4.597611 -1.827297 -1.378931 0
M  V30 61 H -4.363518 3.489343 -0.417420 0
M  V30 62 H -4.149063 3.782595 -2.180217 0
M  V30 63 H -2.491023 4.628826 0.144746 0
M  V30 64 H -2.840008 5.578827 -1.345757 0
M  V30 65 H 1.130756 7.577005 -0.049947 0
M  V30 66 H 3.888768 0.687906 1.556763 0
M  V30 67 H 4.391873 -1.626123 1.851682 0
M  V30 68 H 1.447144 -4.541834 -0.228340 0
M  V30 69 H 2.895148 -5.652244 -0.006057 0
M  V30 70 H 0.529900 -4.953851 1.835647 0
M  V30 71 H 1.306876 -6.581439 1.380376 0
M  V30 END ATOM
M  V30 BEGIN BOND
M  V30 1 1 1 2
M  V30 2 1 2 3
M  V30 3 1 3 4
M  V30 4 1 4 5
M  V30 5 1 5 6
M  V30 6 2 6 7
M  V30 7 1 7 8
M  V30 8 2 8 9
M  V30 9 1 9 10
M  V30 10 2 10 11
M  V30 11 1 11 12
M  V30 12 2 12 13
M  V30 13 1 13 14
M  V30 14 1 14 15
M  V30 15 1 15 16
M  V30 16 1 16 17
M  V30 17 1 17 18
M  V30 18 2 18 19
M  V30 19 1 18 20
M  V30 20 1 20 21
M  V30 21 2 21 22
M  V30 22 1 22 23
M  V30 23 2 23 24
M  V30 24 1 24 25
M  V30 25 1 24 26
M  V30 26 1 26 27
M  V30 27 1 27 28
M  V30 28 1 27 29
M  V30 29 1 27 30
M  V30 30 2 26 31
M  V30 31 1 17 32
M  V30 32 1 32 33
M  V30 33 1 13 34
M  V30 34 2 34 35
M  V30 35 1 35 36
M  V30 36 2 36 37
M  V30 37 1 37 38
M  V30 38 1 9 39
M  V30 39 2 39 40
M  V30 40 1 5 41
M  V30 41 1 41 42
M  V30 42 1 42 2
M  V30 43 1 40 6
M  V30 44 1 38 10
M  V30 45 1 37 12
M  V30 46 1 33 14
M  V30 47 1 31 21
M  V30 48 1 1 43
M  V30 49 1 1 44
M  V30 50 1 1 45
M  V30 51 1 3 46
M  V30 52 1 3 47
M  V30 53 1 4 48
M  V30 54 1 4 49
M  V30 55 1 7 50
M  V30 56 1 8 51
M  V30 57 1 11 52
M  V30 58 1 15 53
M  V30 59 1 15 54
M  V30 60 1 16 55
M  V30 61 1 16 56
M  V30 62 1 20 57
M  V30 63 1 22 58
M  V30 64 1 23 59
M  V30 65 1 31 60
M  V30 66 1 32 61
M  V30 67 1 32 62
M  V30 68 1 33 63
M  V30 69 1 33 64
M  V30 70 1 35 65
M  V30 71 1 39 66
M  V30 72 1 40 67
M  V30 73 1 41 68
M  V30 74 1 41 69
M  V30 75 1 42 70
M  V30 76 1 42 71
M  V30 END BOND
M  V30 END CTAB
M  END
>  <Dataset>  (720) 
ChEMBL_Kinases

>  <Ligand_Instance>  (720) 
nan

>  <PDB_ID>  (720) 
nan

>  <Standardized_SMILES>  (720) 
CN1CCN(c2ccc(-c3cc4c(N5CCN(C(=O)Nc6ccc(Cl)c(C(F)(F)F)c6)CC5)ncnc4s3)cc2)CC1

>  <Name>  (720) 
nan

>  <Pocket>  (720) 
nan

>  <ATP_Site>  (720) 
nan

>  <Peripheral>  (720) 
nan

>  <Num_H_Atoms_ProtBoundConf>  (720) 
nan

>  <Num_Resolved_Atoms>  (720) 
nan

>  <Num_Not_Resolved_Atoms>  (720) 
nan

$$$$
CHEMBL4847807
     RDKit          3D

  0  0  0  0  0  0  0  0  0  0999 V3000
M  V30 BEGIN CTAB
M  V30 COUNTS 39 41 0 0 0
M  V30 BEGIN ATOM
M  V30 1 C 1.196616 -2.991338 2.506070 0
M  V30 2 O 0.713313 -2.391711 1.330391 0
M  V30 3 C 1.452489 -1.750325 0.378961 0
M  V30 4 C 2.807441 -1.618797 0.466817 0
M  V30 5 C 3.495317 -0.955287 -0.538285 0
M  V30 6 C 2.800134 -0.430082 -1.626710 0
M  V30 7 C 1.414058 -0.553921 -1.732531 0
M  V30 8 C 0.753500 -1.222046 -0.712820 0
M  V30 9 C -0.706649 -1.430164 -0.803728 0
M  V30 10 C -1.355654 -0.277839 -0.844150 0
M  V30 11 N -0.956957 1.108966 -0.818484 0
M  V30 12 C -0.367107 1.230730 0.496218 0
M  V30 13 C 0.924207 1.744335 0.680755 0
M  V30 14 C 1.511713 1.865321 1.919644 0
M  V30 15 C 0.837620 1.476414 3.053409 0
M  V30 16 C -0.434407 0.965829 2.926388 0
M  V30 17 C -1.382514 0.466726 3.968317 0
M  V30 18 F -1.842487 -0.794954 3.561303 0
M  V30 19 F -0.826042 0.349625 5.208427 0
M  V30 20 F -2.486411 1.298691 3.914840 0
M  V30 21 C -1.012472 0.849647 1.681631 0
M  V30 22 C -2.793924 -0.535343 -0.933507 0
M  V30 23 O -3.894300 0.069854 -1.001486 0
M  V30 24 N -2.944791 -1.959859 -0.944691 0
M  V30 25 C -1.656168 -2.559160 -0.865586 0
M  V30 26 O -1.117974 -3.696594 -0.834776 0
M  V30 27 H 0.623457 -3.909048 2.736313 0
M  V30 28 H 1.010847 -2.298459 3.369872 0
M  V30 29 H 2.262080 -3.225974 2.502903 0
M  V30 30 H 3.371965 -2.016067 1.295678 0
M  V30 31 H 4.550484 -0.856035 -0.470346 0
M  V30 32 H 3.387420 0.080289 -2.388410 0
M  V30 33 H 0.920164 -0.132556 -2.586397 0
M  V30 34 H -1.068686 1.820480 -1.556980 0
M  V30 35 H 1.481857 2.057019 -0.201784 0
M  V30 36 H 2.503015 2.259997 2.083122 0
M  V30 37 H 1.159778 1.509088 4.084472 0
M  V30 38 H -2.011608 0.461252 1.441550 0
M  V30 39 H -3.732361 -2.649507 -1.000295 0
M  V30 END ATOM
M  V30 BEGIN BOND
M  V30 1 1 1 2
M  V30 2 1 2 3
M  V30 3 2 3 4
M  V30 4 1 4 5
M  V30 5 2 5 6
M  V30 6 1 6 7
M  V30 7 2 7 8
M  V30 8 1 8 9
M  V30 9 2 9 10
M  V30 10 1 10 11
M  V30 11 1 11 12
M  V30 12 2 12 13
M  V30 13 1 13 14
M  V30 14 2 14 15
M  V30 15 1 15 16
M  V30 16 1 16 17
M  V30 17 1 17 18
M  V30 18 1 17 19
M  V30 19 1 17 20
M  V30 20 2 16 21
M  V30 21 1 10 22
M  V30 22 2 22 23
M  V30 23 1 22 24
M  V30 24 1 24 25
M  V30 25 2 25 26
M  V30 26 1 8 3
M  V30 27 1 25 9
M  V30 28 1 21 12
M  V30 29 1 1 27
M  V30 30 1 1 28
M  V30 31 1 1 29
M  V30 32 1 4 30
M  V30 33 1 5 31
M  V30 34 1 6 32
M  V30 35 1 7 33
M  V30 36 1 11 34
M  V30 37 1 13 35
M  V30 38 1 14 36
M  V30 39 1 15 37
M  V30 40 1 21 38
M  V30 41 1 24 39
M  V30 END BOND
M  V30 END CTAB
M  END
>  <Dataset>  (721) 
ChEMBL_Kinases

>  <Ligand_Instance>  (721) 
nan

>  <PDB_ID>  (721) 
nan

>  <Standardized_SMILES>  (721) 
COc1ccccc1C1=C(Nc2cccc(C(F)(F)F)c2)C(=O)NC1=O

>  <Name>  (721) 
nan

>  <Pocket>  (721) 
nan

>  <ATP_Site>  (721) 
nan

>  <Peripheral>  (721) 
nan

>  <Num_H_Atoms_ProtBoundConf>  (721) 
nan

>  <Num_Resolved_Atoms>  (721) 
nan

>  <Num_Not_Resolved_Atoms>  (721) 
nan

$$$$
CHEMBL4847820
     RDKit          3D

  0  0  0  0  0  0  0  0  0  0999 V3000
M  V30 BEGIN CTAB
M  V30 COUNTS 40 42 0 0 0
M  V30 BEGIN ATOM
M  V30 1 C -0.778723 -4.692870 2.219334 0
M  V30 2 O 0.638713 -4.787802 2.151186 0
M  V30 3 C 1.308510 -3.818421 1.418973 0
M  V30 4 C 2.675549 -3.942150 1.381896 0
M  V30 5 C 3.340945 -2.976412 0.656759 0
M  V30 6 C 2.719876 -1.945144 0.000531 0
M  V30 7 C 1.346907 -1.855756 0.060720 0
M  V30 8 N 0.737086 -0.771681 -0.630211 0
M  V30 9 C -0.611342 -0.384991 -0.838123 0
M  V30 10 C -1.203510 0.791974 -0.562783 0
M  V30 11 C -0.560134 1.956864 0.031888 0
M  V30 12 C -0.694804 3.224729 -0.543229 0
M  V30 13 C -0.099242 4.319466 0.043840 0
M  V30 14 C 0.645243 4.242150 1.199306 0
M  V30 15 C 0.798506 2.986655 1.799088 0
M  V30 16 C 0.202445 1.906790 1.208142 0
M  V30 17 O 0.356173 0.668226 1.811119 0
M  V30 18 C 1.098213 0.499306 3.003238 0
M  V30 19 C -2.586801 0.697343 -0.951427 0
M  V30 20 O -3.436513 1.633297 -0.829546 0
M  V30 21 N -2.890047 -0.576486 -1.492638 0
M  V30 22 C -1.655428 -1.236674 -1.415587 0
M  V30 23 O -1.388966 -2.433894 -1.778645 0
M  V30 24 C 0.635879 -2.793938 0.771704 0
M  V30 25 H -1.148992 -5.489137 2.901725 0
M  V30 26 H -1.083391 -3.676794 2.590821 0
M  V30 27 H -1.194242 -4.794864 1.215756 0
M  V30 28 H 3.300743 -4.696991 1.848077 0
M  V30 29 H 4.438392 -2.989588 0.564418 0
M  V30 30 H 3.299058 -1.203104 -0.565791 0
M  V30 31 H 1.332750 -0.060235 -1.121248 0
M  V30 32 H -1.264159 3.331371 -1.439069 0
M  V30 33 H -0.186778 5.321009 -0.385690 0
M  V30 34 H 1.145243 5.043243 1.724501 0
M  V30 35 H 1.377281 2.860375 2.716337 0
M  V30 36 H 2.121705 0.810972 2.792671 0
M  V30 37 H 0.685154 1.211981 3.769684 0
M  V30 38 H 0.978888 -0.508421 3.411651 0
M  V30 39 H -3.771691 -0.981451 -1.864024 0
M  V30 40 H -0.425019 -2.737396 0.830474 0
M  V30 END ATOM
M  V30 BEGIN BOND
M  V30 1 1 1 2
M  V30 2 1 2 3
M  V30 3 2 3 4
M  V30 4 1 4 5
M  V30 5 2 5 6
M  V30 6 1 6 7
M  V30 7 1 7 8
M  V30 8 1 8 9
M  V30 9 2 9 10
M  V30 10 1 10 11
M  V30 11 2 11 12
M  V30 12 1 12 13
M  V30 13 2 13 14
M  V30 14 1 14 15
M  V30 15 2 15 16
M  V30 16 1 16 17
M  V30 17 1 17 18
M  V30 18 1 10 19
M  V30 19 2 19 20
M  V30 20 1 19 21
M  V30 21 1 21 22
M  V30 22 2 22 23
M  V30 23 2 7 24
M  V30 24 1 24 3
M  V30 25 1 22 9
M  V30 26 1 16 11
M  V30 27 1 1 25
M  V30 28 1 1 26
M  V30 29 1 1 27
M  V30 30 1 4 28
M  V30 31 1 5 29
M  V30 32 1 6 30
M  V30 33 1 8 31
M  V30 34 1 12 32
M  V30 35 1 13 33
M  V30 36 1 14 34
M  V30 37 1 15 35
M  V30 38 1 18 36
M  V30 39 1 18 37
M  V30 40 1 18 38
M  V30 41 1 21 39
M  V30 42 1 24 40
M  V30 END BOND
M  V30 END CTAB
M  END
>  <Dataset>  (722) 
ChEMBL_Kinases

>  <Ligand_Instance>  (722) 
nan

>  <PDB_ID>  (722) 
nan

>  <Standardized_SMILES>  (722) 
COc1cccc(NC2=C(c3ccccc3OC)C(=O)NC2=O)c1

>  <Name>  (722) 
nan

>  <Pocket>  (722) 
nan

>  <ATP_Site>  (722) 
nan

>  <Peripheral>  (722) 
nan

>  <Num_H_Atoms_ProtBoundConf>  (722) 
nan

>  <Num_Resolved_Atoms>  (722) 
nan

>  <Num_Not_Resolved_Atoms>  (722) 
nan

$$$$
CHEMBL4874391
     RDKit          3D

  0  0  0  0  0  0  0  0  0  0999 V3000
M  V30 BEGIN CTAB
M  V30 COUNTS 51 54 0 0 0
M  V30 BEGIN ATOM
M  V30 1 C 1.346827 -3.684910 6.051167 0
M  V30 2 N 2.672635 -3.241096 5.667392 0
M  V30 3 N 3.786254 -3.573293 6.254858 0
M  V30 4 C 4.810258 -2.972711 5.632679 0
M  V30 5 C 4.250791 -2.234749 4.604838 0
M  V30 6 C 2.876967 -2.409951 4.630434 0
M  V30 7 C 2.006298 -1.751376 3.664638 0
M  V30 8 C 2.281467 -0.393435 3.460190 0
M  V30 9 C 1.576693 0.408975 2.586650 0
M  V30 10 C 0.537374 -0.139136 1.863605 0
M  V30 11 C -0.202275 0.694882 0.949588 0
M  V30 12 O 0.122953 1.905350 0.836776 0
M  V30 13 N -1.271256 0.221662 0.176402 0
M  V30 14 C -1.995153 1.069327 -0.728394 0 CFG=2
M  V30 15 C -3.463021 1.252807 -0.331101 0
M  V30 16 N -4.138240 1.720959 -1.526439 0
M  V30 17 C -3.281784 2.566032 -2.353149 0
M  V30 18 C -2.186102 1.755464 -3.040061 0
M  V30 19 C -2.014583 0.536378 -2.126412 0 CFG=1
M  V30 20 C -0.868170 -0.302633 -2.492355 0
M  V30 21 C -1.148478 -1.591093 -2.958122 0
M  V30 22 C -0.152662 -2.481290 -3.336015 0
M  V30 23 F -0.439159 -3.725751 -3.785135 0
M  V30 24 C 1.164548 -2.084695 -3.250698 0
M  V30 25 C 1.430313 -0.814726 -2.791119 0
M  V30 26 F 2.737446 -0.477746 -2.727495 0
M  V30 27 C 0.431190 0.086098 -2.409121 0
M  V30 28 C 0.259280 -1.473539 2.057726 0
M  V30 29 C 0.963518 -2.275848 2.930673 0
M  V30 30 F 0.727697 -3.583090 3.147523 0
M  V30 31 H 0.583678 -2.936362 5.755450 0
M  V30 32 H 1.137121 -4.670288 5.573963 0
M  V30 33 H 1.264549 -3.796928 7.155933 0
M  V30 34 H 5.879217 -3.037261 5.870364 0
M  V30 35 H 4.824790 -1.633764 3.917049 0
M  V30 36 H 3.080671 0.109674 3.989539 0
M  V30 37 H 1.818361 1.454835 2.454997 0
M  V30 38 H -1.588186 -0.771471 0.225493 0
M  V30 39 H -1.592474 2.124525 -0.723301 0
M  V30 40 H -3.808535 0.219910 -0.045324 0
M  V30 41 H -3.578565 1.957446 0.494395 0
M  V30 42 H -5.010494 2.248244 -1.338194 0
M  V30 43 H -3.938465 3.063364 -3.094858 0
M  V30 44 H -2.890346 3.358566 -1.701261 0
M  V30 45 H -2.426387 1.494317 -4.069967 0
M  V30 46 H -1.258171 2.386410 -2.958856 0
M  V30 47 H -2.955302 -0.055729 -2.302355 0
M  V30 48 H -2.166586 -1.982797 -3.055713 0
M  V30 49 H 1.919892 -2.785433 -3.546811 0
M  V30 50 H 0.673127 1.071554 -2.054195 0
M  V30 51 H -0.541818 -1.952385 1.518790 0
M  V30 END ATOM
M  V30 BEGIN BOND
M  V30 1 1 1 2
M  V30 2 1 2 3
M  V30 3 2 3 4
M  V30 4 1 4 5
M  V30 5 2 5 6
M  V30 6 1 6 7
M  V30 7 2 7 8
M  V30 8 1 8 9
M  V30 9 2 9 10
M  V30 10 1 10 11
M  V30 11 2 11 12
M  V30 12 1 11 13
M  V30 13 1 13 14
M  V30 14 1 14 15
M  V30 15 1 15 16
M  V30 16 1 16 17
M  V30 17 1 17 18
M  V30 18 1 18 19
M  V30 19 1 19 20
M  V30 20 2 20 21
M  V30 21 1 21 22
M  V30 22 1 22 23
M  V30 23 2 22 24
M  V30 24 1 24 25
M  V30 25 1 25 26
M  V30 26 2 25 27
M  V30 27 1 10 28
M  V30 28 2 28 29
M  V30 29 1 29 30
M  V30 30 1 6 2
M  V30 31 1 29 7
M  V30 32 1 19 14
M  V30 33 1 27 20
M  V30 34 1 1 31
M  V30 35 1 1 32
M  V30 36 1 1 33
M  V30 37 1 4 34
M  V30 38 1 5 35
M  V30 39 1 8 36
M  V30 40 1 9 37
M  V30 41 1 13 38
M  V30 42 1 14 39 CFG=3
M  V30 43 1 15 40
M  V30 44 1 15 41
M  V30 45 1 16 42
M  V30 46 1 17 43
M  V30 47 1 17 44
M  V30 48 1 18 45
M  V30 49 1 18 46
M  V30 50 1 19 47 CFG=1
M  V30 51 1 21 48
M  V30 52 1 24 49
M  V30 53 1 27 50
M  V30 54 1 28 51
M  V30 END BOND
M  V30 END CTAB
M  END
>  <Dataset>  (723) 
ChEMBL_Kinases

>  <Ligand_Instance>  (723) 
nan

>  <PDB_ID>  (723) 
nan

>  <Standardized_SMILES>  (723) 
Cn1nccc1-c1ccc(C(=O)N[C@@H]2CNCC[C@H]2c2cc(F)cc(F)c2)cc1F

>  <Name>  (723) 
nan

>  <Pocket>  (723) 
nan

>  <ATP_Site>  (723) 
nan

>  <Peripheral>  (723) 
nan

>  <Num_H_Atoms_ProtBoundConf>  (723) 
nan

>  <Num_Resolved_Atoms>  (723) 
nan

>  <Num_Not_Resolved_Atoms>  (723) 
nan

$$$$
CHEMBL4848202
     RDKit          3D

  0  0  0  0  0  0  0  0  0  0999 V3000
M  V30 BEGIN CTAB
M  V30 COUNTS 33 35 0 0 0
M  V30 BEGIN ATOM
M  V30 1 N 1.034002 -1.842994 4.747825 0
M  V30 2 C 0.895333 -2.299675 3.680487 0
M  V30 3 C 0.745556 -2.861288 2.357452 0
M  V30 4 C 0.726209 -4.226050 2.129349 0
M  V30 5 C 0.574259 -4.677232 0.831349 0
M  V30 6 C 0.444559 -3.803192 -0.223524 0
M  V30 7 C 0.459084 -2.432232 -0.039260 0
M  V30 8 N 0.320141 -1.514361 -1.126227 0
M  V30 9 C -0.792725 -0.623175 -0.930182 0
M  V30 10 C -1.153721 0.538521 -0.453765 0
M  V30 11 C -0.177880 1.405619 0.156773 0
M  V30 12 C 1.076128 1.596734 -0.379600 0
M  V30 13 C 2.088590 2.377110 0.111482 0
M  V30 14 C 1.750500 3.025892 1.291336 0
M  V30 15 C 0.541572 2.933538 1.945546 0
M  V30 16 C -0.397883 2.102169 1.330568 0
M  V30 17 Cl -1.914499 1.982106 2.184050 0
M  V30 18 C -2.606588 0.720462 -0.672113 0
M  V30 19 O -3.185097 1.784949 -0.287843 0
M  V30 20 N -3.134311 -0.445939 -1.335987 0
M  V30 21 C -1.980102 -1.298355 -1.498457 0
M  V30 22 O -2.341762 -2.378712 -2.085824 0
M  V30 23 C 0.612557 -2.041048 1.269079 0
M  V30 24 H 0.832149 -4.868327 3.008056 0
M  V30 25 H 0.569891 -5.749122 0.740734 0
M  V30 26 H 0.328260 -4.194958 -1.232693 0
M  V30 27 H 0.948007 -1.477335 -1.984884 0
M  V30 28 H 1.281073 1.054272 -1.313600 0
M  V30 29 H 3.057969 2.496590 -0.343108 0
M  V30 30 H 2.525292 3.670861 1.738875 0
M  V30 31 H 0.335057 3.463158 2.864243 0
M  V30 32 H -4.157019 -0.417750 -1.536248 0
M  V30 33 H 0.636378 -0.982308 1.491219 0
M  V30 END ATOM
M  V30 BEGIN BOND
M  V30 1 3 1 2
M  V30 2 1 2 3
M  V30 3 2 3 4
M  V30 4 1 4 5
M  V30 5 2 5 6
M  V30 6 1 6 7
M  V30 7 1 7 8
M  V30 8 1 8 9
M  V30 9 2 9 10
M  V30 10 1 10 11
M  V30 11 2 11 12
M  V30 12 1 12 13
M  V30 13 2 13 14
M  V30 14 1 14 15
M  V30 15 2 15 16
M  V30 16 1 16 17
M  V30 17 1 10 18
M  V30 18 2 18 19
M  V30 19 1 18 20
M  V30 20 1 20 21
M  V30 21 2 21 22
M  V30 22 2 7 23
M  V30 23 1 23 3
M  V30 24 1 21 9
M  V30 25 1 16 11
M  V30 26 1 4 24
M  V30 27 1 5 25
M  V30 28 1 6 26
M  V30 29 1 8 27
M  V30 30 1 12 28
M  V30 31 1 13 29
M  V30 32 1 14 30
M  V30 33 1 15 31
M  V30 34 1 20 32
M  V30 35 1 23 33
M  V30 END BOND
M  V30 END CTAB
M  END
>  <Dataset>  (724) 
ChEMBL_Kinases

>  <Ligand_Instance>  (724) 
nan

>  <PDB_ID>  (724) 
nan

>  <Standardized_SMILES>  (724) 
N#Cc1cccc(NC2=C(c3ccccc3Cl)C(=O)NC2=O)c1

>  <Name>  (724) 
nan

>  <Pocket>  (724) 
nan

>  <ATP_Site>  (724) 
nan

>  <Peripheral>  (724) 
nan

>  <Num_H_Atoms_ProtBoundConf>  (724) 
nan

>  <Num_Resolved_Atoms>  (724) 
nan

>  <Num_Not_Resolved_Atoms>  (724) 
nan

$$$$
CHEMBL4874497
     RDKit          3D

  0  0  0  0  0  0  0  0  0  0999 V3000
M  V30 BEGIN CTAB
M  V30 COUNTS 54 58 0 0 0
M  V30 BEGIN ATOM
M  V30 1 C 3.739114 -5.075968 -2.002847 0
M  V30 2 O 3.539842 -3.863549 -1.536190 0
M  V30 3 C 3.353088 -2.745195 -0.957654 0
M  V30 4 C 3.278087 -2.409643 0.376185 0
M  V30 5 C 3.078093 -1.144559 0.880982 0
M  V30 6 C 2.947141 -0.151664 -0.103454 0
M  V30 7 C 2.761936 1.216863 0.356111 0
M  V30 8 N 3.519356 2.212788 -0.191867 0
M  V30 9 N 3.230791 3.377300 0.332876 0
M  V30 10 C 2.276488 3.192108 1.241683 0
M  V30 11 N 1.595467 3.989691 2.077821 0
M  V30 12 C 0.657472 3.452853 2.891963 0
M  V30 13 C 0.327402 2.089260 2.935300 0
M  V30 14 N -0.683868 1.757568 3.863726 0
M  V30 15 C -1.740363 0.815379 3.766741 0
M  V30 16 C -2.563112 0.511629 4.822687 0
M  V30 17 C -3.605589 -0.379567 4.740547 0
M  V30 18 C -3.875629 -1.024756 3.557407 0
M  V30 19 C -3.097299 -0.774663 2.455083 0
M  V30 20 O -3.316315 -1.399347 1.211179 0
M  V30 21 C -2.469589 -1.092005 0.138638 0
M  V30 22 C -2.830871 -1.824396 -1.117254 0
M  V30 23 C -3.702529 -1.181675 -1.941081 0
M  V30 24 C -4.084405 -1.792192 -3.130983 0
M  V30 25 C -3.526353 -3.037018 -3.377012 0
M  V30 26 C -2.633512 -3.712691 -2.548396 0
M  V30 27 C -2.272626 -3.066153 -1.359581 0
M  V30 28 C -2.049036 0.141933 2.594748 0
M  V30 29 C 1.031867 1.292982 2.079114 0
M  V30 30 C 1.969680 1.851068 1.270370 0
M  V30 31 C 3.001713 -0.359163 -1.474868 0
M  V30 32 C 3.208561 -1.689285 -1.864146 0
M  V30 33 H 3.707328 -5.889132 -1.198747 0
M  V30 34 H 2.981966 -5.387621 -2.802143 0
M  V30 35 H 4.777395 -5.276424 -2.449744 0
M  V30 36 H 3.386828 -3.231196 1.075170 0
M  V30 37 H 3.019585 -0.893562 1.922458 0
M  V30 38 H 3.672460 4.288927 0.081438 0
M  V30 39 H 0.178598 4.189655 3.517299 0
M  V30 40 H -0.658170 2.287153 4.789130 0
M  V30 41 H -2.364627 1.012472 5.763582 0
M  V30 42 H -4.214652 -0.569599 5.613259 0
M  V30 43 H -4.686637 -1.732285 3.454617 0
M  V30 44 H -2.513211 0.008085 -0.037155 0
M  V30 45 H -1.412252 -1.400598 0.374747 0
M  V30 46 H -4.142929 -0.211996 -1.754878 0
M  V30 47 H -4.769354 -1.360672 -3.848576 0
M  V30 48 H -3.776866 -3.579499 -4.291832 0
M  V30 49 H -2.247461 -4.673672 -2.811142 0
M  V30 50 H -1.583122 -3.550609 -0.683543 0
M  V30 51 H -1.481373 0.305966 1.713735 0
M  V30 52 H 0.825866 0.254691 2.082263 0
M  V30 53 H 2.888014 0.473876 -2.136807 0
M  V30 54 H 3.238572 -1.765349 -2.952260 0
M  V30 END ATOM
M  V30 BEGIN BOND
M  V30 1 1 1 2
M  V30 2 1 2 3
M  V30 3 2 3 4
M  V30 4 1 4 5
M  V30 5 2 5 6
M  V30 6 1 6 7
M  V30 7 2 7 8
M  V30 8 1 8 9
M  V30 9 1 9 10
M  V30 10 2 10 11
M  V30 11 1 11 12
M  V30 12 2 12 13
M  V30 13 1 13 14
M  V30 14 1 14 15
M  V30 15 2 15 16
M  V30 16 1 16 17
M  V30 17 2 17 18
M  V30 18 1 18 19
M  V30 19 1 19 20
M  V30 20 1 20 21
M  V30 21 1 21 22
M  V30 22 2 22 23
M  V30 23 1 23 24
M  V30 24 2 24 25
M  V30 25 1 25 26
M  V30 26 2 26 27
M  V30 27 2 19 28
M  V30 28 1 13 29
M  V30 29 2 29 30
M  V30 30 1 6 31
M  V30 31 2 31 32
M  V30 32 1 32 3
M  V30 33 1 30 7
M  V30 34 1 30 10
M  V30 35 1 28 15
M  V30 36 1 27 22
M  V30 37 1 1 33
M  V30 38 1 1 34
M  V30 39 1 1 35
M  V30 40 1 4 36
M  V30 41 1 5 37
M  V30 42 1 9 38
M  V30 43 1 12 39
M  V30 44 1 14 40
M  V30 45 1 16 41
M  V30 46 1 17 42
M  V30 47 1 18 43
M  V30 48 1 21 44
M  V30 49 1 21 45
M  V30 50 1 23 46
M  V30 51 1 24 47
M  V30 52 1 25 48
M  V30 53 1 26 49
M  V30 54 1 27 50
M  V30 55 1 28 51
M  V30 56 1 29 52
M  V30 57 1 31 53
M  V30 58 1 32 54
M  V30 END BOND
M  V30 END CTAB
M  END
>  <Dataset>  (725) 
ChEMBL_Kinases

>  <Ligand_Instance>  (725) 
nan

>  <PDB_ID>  (725) 
nan

>  <Standardized_SMILES>  (725) 
COc1ccc(-c2n[nH]c3ncc(Nc4cccc(OCc5ccccc5)c4)cc23)cc1

>  <Name>  (725) 
nan

>  <Pocket>  (725) 
nan

>  <ATP_Site>  (725) 
nan

>  <Peripheral>  (725) 
nan

>  <Num_H_Atoms_ProtBoundConf>  (725) 
nan

>  <Num_Resolved_Atoms>  (725) 
nan

>  <Num_Not_Resolved_Atoms>  (725) 
nan

$$$$
CHEMBL1446523
     RDKit          3D

  0  0  0  0  0  0  0  0  0  0999 V3000
M  V30 BEGIN CTAB
M  V30 COUNTS 37 40 0 0 0
M  V30 BEGIN ATOM
M  V30 1 C 0.225203 -3.870958 1.232937 0
M  V30 2 N 0.373353 -3.164394 2.513162 0
M  V30 3 C -0.663491 -3.653948 3.432701 0
M  V30 4 C 1.290908 -2.163155 2.962611 0
M  V30 5 N 2.026290 -2.536581 4.049249 0
M  V30 6 C 2.902537 -1.610515 4.497932 0
M  V30 7 N 3.055624 -0.406382 3.933567 0
M  V30 8 C 2.334490 -0.031139 2.862729 0
M  V30 9 C 2.483159 1.203787 2.274118 0
M  V30 10 C 1.721555 1.542609 1.178726 0
M  V30 11 C 0.805141 0.603644 0.691247 0
M  V30 12 C 0.020849 1.011187 -0.471284 0
M  V30 13 C -0.356197 2.323900 -0.701217 0
M  V30 14 C -1.107150 2.660592 -1.828732 0
M  V30 15 C -1.486609 1.691479 -2.733294 0
M  V30 16 C -1.097427 0.373454 -2.485714 0
M  V30 17 C -0.344979 0.021757 -1.359955 0
M  V30 18 O -1.599330 -0.401622 -3.533618 0
M  V30 19 C -1.903587 0.464514 -4.634802 0
M  V30 20 O -2.212590 1.654409 -3.929544 0
M  V30 21 C 0.627781 -0.636273 1.249232 0
M  V30 22 C 1.402898 -0.931689 2.333447 0
M  V30 23 H 0.924177 -3.488767 0.462964 0
M  V30 24 H 0.436088 -4.963001 1.343222 0
M  V30 25 H -0.837221 -3.821514 0.884554 0
M  V30 26 H -1.661639 -3.279410 3.195678 0
M  V30 27 H -0.596884 -4.780903 3.473323 0
M  V30 28 H -0.442321 -3.340954 4.492925 0
M  V30 29 H 3.500523 -1.885593 5.364727 0
M  V30 30 H 3.220117 1.846469 2.737394 0
M  V30 31 H 1.880330 2.518323 0.762989 0
M  V30 32 H -0.057108 3.085039 0.011678 0
M  V30 33 H -1.413746 3.682877 -2.027736 0
M  V30 34 H -0.092238 -1.025106 -1.252415 0
M  V30 35 H -0.954163 0.606859 -5.171724 0
M  V30 36 H -2.738498 0.087690 -5.243983 0
M  V30 37 H -0.068195 -1.343108 0.875875 0
M  V30 END ATOM
M  V30 BEGIN BOND
M  V30 1 1 1 2
M  V30 2 1 2 3
M  V30 3 1 2 4
M  V30 4 2 4 5
M  V30 5 1 5 6
M  V30 6 2 6 7
M  V30 7 1 7 8
M  V30 8 2 8 9
M  V30 9 1 9 10
M  V30 10 2 10 11
M  V30 11 1 11 12
M  V30 12 2 12 13
M  V30 13 1 13 14
M  V30 14 2 14 15
M  V30 15 1 15 16
M  V30 16 2 16 17
M  V30 17 1 16 18
M  V30 18 1 18 19
M  V30 19 1 19 20
M  V30 20 1 11 21
M  V30 21 2 21 22
M  V30 22 1 22 4
M  V30 23 1 22 8
M  V30 24 1 17 12
M  V30 25 1 20 15
M  V30 26 1 1 23
M  V30 27 1 1 24
M  V30 28 1 1 25
M  V30 29 1 3 26
M  V30 30 1 3 27
M  V30 31 1 3 28
M  V30 32 1 6 29
M  V30 33 1 9 30
M  V30 34 1 10 31
M  V30 35 1 13 32
M  V30 36 1 14 33
M  V30 37 1 17 34
M  V30 38 1 19 35
M  V30 39 1 19 36
M  V30 40 1 21 37
M  V30 END BOND
M  V30 END CTAB
M  END
>  <Dataset>  (726) 
ChEMBL_Kinases

>  <Ligand_Instance>  (726) 
nan

>  <PDB_ID>  (726) 
nan

>  <Standardized_SMILES>  (726) 
CN(C)c1ncnc2ccc(-c3ccc4c(c3)OCO4)cc12

>  <Name>  (726) 
nan

>  <Pocket>  (726) 
nan

>  <ATP_Site>  (726) 
nan

>  <Peripheral>  (726) 
nan

>  <Num_H_Atoms_ProtBoundConf>  (726) 
nan

>  <Num_Resolved_Atoms>  (726) 
nan

>  <Num_Not_Resolved_Atoms>  (726) 
nan

$$$$
CHEMBL482746
     RDKit          3D

  0  0  0  0  0  0  0  0  0  0999 V3000
M  V30 BEGIN CTAB
M  V30 COUNTS 46 49 0 0 0
M  V30 BEGIN ATOM
M  V30 1 O -1.114914 -5.973570 0.144766 0
M  V30 2 S -1.729330 -4.889744 -0.662164 0
M  V30 3 O -3.154109 -5.287422 -0.945548 0
M  V30 4 C -1.642606 -3.364311 0.252568 0
M  V30 5 C -2.050434 -2.259029 -0.705433 0
M  V30 6 C -1.007219 -2.149964 -1.803098 0
M  V30 7 N -1.134171 -0.897773 -2.505056 0
M  V30 8 S 0.358233 -0.011997 -2.494501 0
M  V30 9 O 0.284819 1.168209 -3.407702 0
M  V30 10 O 1.394415 -0.964051 -3.059702 0
M  V30 11 C 0.876725 0.401637 -0.885257 0
M  V30 12 C 0.413615 1.613982 -0.416584 0
M  V30 13 C 0.739176 2.076172 0.837857 0
M  V30 14 C 1.545280 1.324645 1.659335 0
M  V30 15 C 2.016802 1.607561 3.010908 0
M  V30 16 C 3.359560 1.386614 3.338388 0
M  V30 17 C 3.795277 1.659563 4.626125 0
M  V30 18 N 2.986456 2.131867 5.591728 0
M  V30 19 C 1.694692 2.350715 5.298262 0
M  V30 20 N 0.650934 2.814481 6.045007 0
M  V30 21 C -0.487551 2.864048 5.295240 0
M  V30 22 C -0.108153 2.410438 4.046627 0
M  V30 23 C 1.221464 2.091893 4.028647 0
M  V30 24 C 2.022361 0.092596 1.196845 0
M  V30 25 C 1.686370 -0.358435 -0.066499 0
M  V30 26 C -1.263729 -3.302299 -2.764458 0
M  V30 27 C -0.822791 -4.617325 -2.167935 0
M  V30 28 H -2.274874 -3.355441 1.150777 0
M  V30 29 H -0.570943 -3.217266 0.502523 0
M  V30 30 H -2.200018 -1.311430 -0.149284 0
M  V30 31 H -3.011099 -2.530374 -1.188098 0
M  V30 32 H 0.011825 -2.320703 -1.386295 0
M  V30 33 H -1.846487 -0.268250 -2.026829 0
M  V30 34 H -0.222189 2.270927 -0.987171 0
M  V30 35 H 0.426719 3.007146 1.290031 0
M  V30 36 H 4.074068 1.011691 2.630418 0
M  V30 37 H 4.819338 1.510331 4.941959 0
M  V30 38 H 0.684269 3.099622 7.049489 0
M  V30 39 H -1.459587 3.186789 5.616448 0
M  V30 40 H -0.798442 2.338265 3.241747 0
M  V30 41 H 2.665897 -0.610413 1.728467 0
M  V30 42 H 2.017976 -1.302349 -0.493465 0
M  V30 43 H -2.367014 -3.350651 -2.909783 0
M  V30 44 H -0.798654 -3.108330 -3.739567 0
M  V30 45 H -1.046369 -5.394101 -2.928714 0
M  V30 46 H 0.252710 -4.620434 -1.943114 0
M  V30 END ATOM
M  V30 BEGIN BOND
M  V30 1 2 1 2
M  V30 2 2 2 3
M  V30 3 1 2 4
M  V30 4 1 4 5
M  V30 5 1 5 6
M  V30 6 1 6 7
M  V30 7 1 7 8
M  V30 8 2 8 9
M  V30 9 2 8 10
M  V30 10 1 8 11
M  V30 11 2 11 12
M  V30 12 1 12 13
M  V30 13 2 13 14
M  V30 14 1 14 15
M  V30 15 2 15 16
M  V30 16 1 16 17
M  V30 17 2 17 18
M  V30 18 1 18 19
M  V30 19 1 19 20
M  V30 20 1 20 21
M  V30 21 2 21 22
M  V30 22 1 22 23
M  V30 23 1 14 24
M  V30 24 2 24 25
M  V30 25 1 6 26
M  V30 26 1 26 27
M  V30 27 1 27 2
M  V30 28 1 25 11
M  V30 29 1 23 15
M  V30 30 2 23 19
M  V30 31 1 4 28
M  V30 32 1 4 29
M  V30 33 1 5 30
M  V30 34 1 5 31
M  V30 35 1 6 32
M  V30 36 1 7 33
M  V30 37 1 12 34
M  V30 38 1 13 35
M  V30 39 1 16 36
M  V30 40 1 17 37
M  V30 41 1 20 38
M  V30 42 1 21 39
M  V30 43 1 22 40
M  V30 44 1 24 41
M  V30 45 1 25 42
M  V30 46 1 26 43
M  V30 47 1 26 44
M  V30 48 1 27 45
M  V30 49 1 27 46
M  V30 END BOND
M  V30 END CTAB
M  END
>  <Dataset>  (727) 
ChEMBL_Kinases

>  <Ligand_Instance>  (727) 
nan

>  <PDB_ID>  (727) 
nan

>  <Standardized_SMILES>  (727) 
O=S1(=O)CCC(NS(=O)(=O)c2ccc(-c3ccnc4[nH]ccc34)cc2)CC1

>  <Name>  (727) 
nan

>  <Pocket>  (727) 
nan

>  <ATP_Site>  (727) 
nan

>  <Peripheral>  (727) 
nan

>  <Num_H_Atoms_ProtBoundConf>  (727) 
nan

>  <Num_Resolved_Atoms>  (727) 
nan

>  <Num_Not_Resolved_Atoms>  (727) 
nan

$$$$
CHEMBL1558843
     RDKit          3D

  0  0  0  0  0  0  0  0  0  0999 V3000
M  V30 BEGIN CTAB
M  V30 COUNTS 35 38 0 0 0
M  V30 BEGIN ATOM
M  V30 1 C 2.926072 -5.233027 3.797926 0
M  V30 2 C 1.607900 -5.786862 3.663614 0
M  V30 3 S 0.633612 -4.325705 2.996228 0
M  V30 4 C 2.028594 -3.204894 2.976402 0
M  V30 5 C 1.851665 -1.829319 2.516658 0
M  V30 6 N 2.137990 -1.804211 1.079220 0
M  V30 7 C 1.916695 -0.458604 0.660182 0
M  V30 8 C 2.851067 0.539288 0.736381 0
M  V30 9 C 2.688636 1.849422 0.343348 0
M  V30 10 N 1.456585 2.135707 -0.167886 0
M  V30 11 C 0.509786 1.196637 -0.264038 0
M  V30 12 C -0.810729 1.498809 -0.809738 0
M  V30 13 C -1.125721 2.778007 -1.225225 0
M  V30 14 C -2.342609 3.190582 -1.756656 0
M  V30 15 C -3.327554 2.217061 -1.876796 0
M  V30 16 C -3.058493 0.914390 -1.472245 0
M  V30 17 C -1.824251 0.573532 -0.951526 0
M  V30 18 O -4.223868 0.163660 -1.709946 0
M  V30 19 C -5.279516 1.124963 -1.822693 0
M  V30 20 O -4.622432 2.268482 -2.349887 0
M  V30 21 N 0.747608 -0.081870 0.148217 0
M  V30 22 C 3.080498 -3.928802 3.437745 0
M  V30 23 H 3.748806 -5.828697 4.166562 0
M  V30 24 H 1.440904 -6.895625 3.962376 0
M  V30 25 H 0.822069 -1.480022 2.714661 0
M  V30 26 H 2.556191 -1.117845 3.035968 0
M  V30 27 H 2.431579 -2.361189 0.251230 0
M  V30 28 H 3.844193 0.303278 1.149883 0
M  V30 29 H 3.447820 2.603375 0.420277 0
M  V30 30 H -0.340984 3.532674 -1.124177 0
M  V30 31 H -2.509728 4.208046 -2.056431 0
M  V30 32 H -1.613927 -0.446482 -0.634793 0
M  V30 33 H -6.087750 0.803736 -2.481224 0
M  V30 34 H -5.676873 1.396328 -0.811159 0
M  V30 35 H 4.010328 -3.386276 3.486831 0
M  V30 END ATOM
M  V30 BEGIN BOND
M  V30 1 2 1 2
M  V30 2 1 2 3
M  V30 3 1 3 4
M  V30 4 1 4 5
M  V30 5 1 5 6
M  V30 6 1 6 7
M  V30 7 2 7 8
M  V30 8 1 8 9
M  V30 9 2 9 10
M  V30 10 1 10 11
M  V30 11 1 11 12
M  V30 12 2 12 13
M  V30 13 1 13 14
M  V30 14 2 14 15
M  V30 15 1 15 16
M  V30 16 2 16 17
M  V30 17 1 16 18
M  V30 18 1 18 19
M  V30 19 1 19 20
M  V30 20 2 11 21
M  V30 21 2 4 22
M  V30 22 1 22 1
M  V30 23 1 21 7
M  V30 24 1 17 12
M  V30 25 1 20 15
M  V30 26 1 1 23
M  V30 27 1 2 24
M  V30 28 1 5 25
M  V30 29 1 5 26
M  V30 30 1 6 27
M  V30 31 1 8 28
M  V30 32 1 9 29
M  V30 33 1 13 30
M  V30 34 1 14 31
M  V30 35 1 17 32
M  V30 36 1 19 33
M  V30 37 1 19 34
M  V30 38 1 22 35
M  V30 END BOND
M  V30 END CTAB
M  END
>  <Dataset>  (728) 
ChEMBL_Kinases

>  <Ligand_Instance>  (728) 
nan

>  <PDB_ID>  (728) 
nan

>  <Standardized_SMILES>  (728) 
c1csc(CNc2ccnc(-c3ccc4c(c3)OCO4)n2)c1

>  <Name>  (728) 
nan

>  <Pocket>  (728) 
nan

>  <ATP_Site>  (728) 
nan

>  <Peripheral>  (728) 
nan

>  <Num_H_Atoms_ProtBoundConf>  (728) 
nan

>  <Num_Resolved_Atoms>  (728) 
nan

>  <Num_Not_Resolved_Atoms>  (728) 
nan

$$$$
CHEMBL4875547
     RDKit          3D

  0  0  0  0  0  0  0  0  0  0999 V3000
M  V30 BEGIN CTAB
M  V30 COUNTS 56 60 0 0 0
M  V30 BEGIN ATOM
M  V30 1 C 1.800186 0.155010 2.740465 0
M  V30 2 N 2.902637 -0.533032 3.383417 0
M  V30 3 C 2.475414 -1.087879 4.621477 0
M  V30 4 C 4.105529 0.087946 3.183881 0
M  V30 5 C 4.753652 -0.070261 1.805559 0
M  V30 6 N 3.820836 0.161971 0.765820 0
M  V30 7 C 3.120138 0.904874 -0.042539 0
M  V30 8 C 2.232444 0.518421 -0.912312 0
M  V30 9 C 1.041872 0.556277 -1.711686 0
M  V30 10 C 0.152002 1.093057 -0.695049 0
M  V30 11 C -1.152430 0.939439 -1.233997 0
M  V30 12 C -1.595335 0.407708 -2.440930 0
M  V30 13 C -2.945711 0.419965 -2.522664 0
M  V30 14 N -3.809504 0.654326 -1.416744 0
M  V30 15 C -3.836329 -0.231741 -0.191167 0
M  V30 16 C -4.901569 -0.210720 0.629158 0
M  V30 17 C -4.982672 -1.009841 1.696226 0
M  V30 18 N -4.007452 -1.825185 1.960109 0
M  V30 19 C -2.884627 -1.905717 1.177890 0
M  V30 20 C -1.750097 -2.773511 1.254055 0
M  V30 21 C -0.714068 -3.537361 1.301078 0
M  V30 22 C -0.093503 -4.812032 1.364345 0
M  V30 23 S -1.768667 -5.623983 1.364488 0
M  V30 24 C -2.626465 -3.985903 1.300344 0
M  V30 25 C -2.684612 -1.091874 -0.015797 0
M  V30 26 C -3.261546 -0.085831 -3.771265 0
M  V30 27 C -2.354671 -0.548091 -4.785061 0
M  V30 28 N -1.018493 -0.491706 -4.455886 0
M  V30 29 C -0.596816 -0.018156 -3.255019 0
M  V30 30 C 0.718694 0.051795 -2.887018 0
M  V30 31 C 2.417891 -0.824945 -0.595344 0
M  V30 32 N 3.328297 -1.145430 0.393198 0
M  V30 33 H 1.368465 -0.464189 1.931100 0
M  V30 34 H 0.939150 0.228041 3.521299 0
M  V30 35 H 1.963849 1.205799 2.515905 0
M  V30 36 H 2.310388 -2.202579 4.584437 0
M  V30 37 H 3.103411 -0.846323 5.514643 0
M  V30 38 H 1.438857 -0.686251 4.888516 0
M  V30 39 H 4.912724 -0.389885 3.858883 0
M  V30 40 H 4.158989 1.158083 3.500751 0
M  V30 41 H 5.281281 -0.997588 1.756165 0
M  V30 42 H 5.557409 0.735435 1.711266 0
M  V30 43 H 3.318769 1.995946 -0.089385 0
M  V30 44 H 0.340000 1.556448 0.247754 0
M  V30 45 H -1.869252 1.389495 -0.489080 0
M  V30 46 H -4.428557 1.453652 -1.464700 0
M  V30 47 H -5.616579 0.488648 0.361874 0
M  V30 48 H -5.812908 -1.104886 2.421776 0
M  V30 49 H 0.070660 -2.702095 1.414072 0
M  V30 50 H 0.929405 -4.931249 1.368271 0
M  V30 51 H -3.759850 -4.386807 1.280260 0
M  V30 52 H -1.873656 -1.205440 -0.620565 0
M  V30 53 H -4.315504 -0.181295 -4.041539 0
M  V30 54 H -2.743688 -0.917398 -5.679279 0
M  V30 55 H 1.506282 -0.289355 -3.486490 0
M  V30 56 H 1.958836 -1.849659 -0.892117 0
M  V30 END ATOM
M  V30 BEGIN BOND
M  V30 1 1 1 2
M  V30 2 1 2 3
M  V30 3 1 2 4
M  V30 4 1 4 5
M  V30 5 1 5 6
M  V30 6 1 6 7
M  V30 7 2 7 8
M  V30 8 1 8 9
M  V30 9 2 9 10
M  V30 10 1 10 11
M  V30 11 2 11 12
M  V30 12 1 12 13
M  V30 13 1 13 14
M  V30 14 1 14 15
M  V30 15 2 15 16
M  V30 16 1 16 17
M  V30 17 2 17 18
M  V30 18 1 18 19
M  V30 19 1 19 20
M  V30 20 1 20 21
M  V30 21 2 21 22
M  V30 22 1 22 23
M  V30 23 1 23 24
M  V30 24 2 19 25
M  V30 25 2 13 26
M  V30 26 1 26 27
M  V30 27 2 27 28
M  V30 28 1 28 29
M  V30 29 2 29 30
M  V30 30 1 8 31
M  V30 31 2 31 32
M  V30 32 1 32 6
M  V30 33 1 30 9
M  V30 34 1 29 12
M  V30 35 1 25 15
M  V30 36 2 24 20
M  V30 37 1 1 33
M  V30 38 1 1 34
M  V30 39 1 1 35
M  V30 40 1 3 36
M  V30 41 1 3 37
M  V30 42 1 3 38
M  V30 43 1 4 39
M  V30 44 1 4 40
M  V30 45 1 5 41
M  V30 46 1 5 42
M  V30 47 1 7 43
M  V30 48 1 10 44
M  V30 49 1 11 45
M  V30 50 1 14 46
M  V30 51 1 16 47
M  V30 52 1 17 48
M  V30 53 1 21 49
M  V30 54 1 22 50
M  V30 55 1 24 51
M  V30 56 1 25 52
M  V30 57 1 26 53
M  V30 58 1 27 54
M  V30 59 1 30 55
M  V30 60 1 31 56
M  V30 END BOND
M  V30 END CTAB
M  END
>  <Dataset>  (729) 
ChEMBL_Kinases

>  <Ligand_Instance>  (729) 
nan

>  <PDB_ID>  (729) 
nan

>  <Standardized_SMILES>  (729) 
CN(C)CCn1cc(-c2ccc3c(Nc4ccnc(-c5ccsc5)c4)ccnc3c2)cn1

>  <Name>  (729) 
nan

>  <Pocket>  (729) 
nan

>  <ATP_Site>  (729) 
nan

>  <Peripheral>  (729) 
nan

>  <Num_H_Atoms_ProtBoundConf>  (729) 
nan

>  <Num_Resolved_Atoms>  (729) 
nan

>  <Num_Not_Resolved_Atoms>  (729) 
nan

$$$$
CHEMBL483165
     RDKit          3D

  0  0  0  0  0  0  0  0  0  0999 V3000
M  V30 BEGIN CTAB
M  V30 COUNTS 49 52 0 0 0
M  V30 BEGIN ATOM
M  V30 1 C -3.019445 -4.199807 4.234957 0
M  V30 2 C -3.230796 -4.098402 2.764335 0
M  V30 3 C -2.691302 -3.126643 1.945750 0
M  V30 4 C -3.087483 -3.332678 0.660835 0
M  V30 5 C -2.795963 -2.620871 -0.475672 0
M  V30 6 C -1.963269 -1.440130 -0.552096 0
M  V30 7 C -1.038256 -1.415313 -1.598154 0
M  V30 8 C -0.189323 -0.329935 -1.764623 0
M  V30 9 C -0.226166 0.768054 -0.902234 0
M  V30 10 S 0.878024 2.093006 -1.183721 0
M  V30 11 O 1.158810 2.131859 -2.667149 0
M  V30 12 O 0.191441 3.381393 -0.836754 0
M  V30 13 N 2.356313 1.880948 -0.354972 0
M  V30 14 C 2.190723 1.824746 1.061864 0
M  V30 15 C 2.919540 2.916326 1.787202 0
M  V30 16 C 4.356202 3.072691 1.411099 0
M  V30 17 S 5.083621 1.528414 0.967129 0
M  V30 18 O 5.424141 1.491037 -0.514668 0
M  V30 19 O 6.427400 1.387431 1.666673 0
M  V30 20 C 4.059468 0.167495 1.419210 0
M  V30 21 C 2.630368 0.514077 1.662744 0
M  V30 22 C -1.147077 0.719092 0.121065 0
M  V30 23 C -1.985361 -0.366182 0.275348 0
M  V30 24 C -3.367943 -3.099087 -1.659578 0
M  V30 25 C -4.180215 -4.231314 -1.656553 0
M  V30 26 N -4.411119 -4.865956 -0.493010 0
M  V30 27 C -3.889264 -4.454569 0.679759 0
M  V30 28 N -3.966697 -4.906885 1.959707 0
M  V30 29 H -1.976830 -3.919741 4.519574 0
M  V30 30 H -3.169798 -5.257391 4.533797 0
M  V30 31 H -3.730669 -3.556625 4.779552 0
M  V30 32 H -2.051847 -2.335164 2.314034 0
M  V30 33 H -0.907521 -2.213854 -2.344965 0
M  V30 34 H 0.534810 -0.309576 -2.582788 0
M  V30 35 H 2.958392 2.708550 -0.555914 0
M  V30 36 H 1.123830 1.933374 1.302090 0
M  V30 37 H 2.385712 3.895383 1.758854 0
M  V30 38 H 2.907755 2.611797 2.873593 0
M  V30 39 H 4.914346 3.505400 2.279892 0
M  V30 40 H 4.470847 3.807815 0.576649 0
M  V30 41 H 4.073041 -0.555694 0.551546 0
M  V30 42 H 4.460895 -0.351484 2.337646 0
M  V30 43 H 1.915236 -0.256148 1.252713 0
M  V30 44 H 2.409164 0.564750 2.753071 0
M  V30 45 H -1.191202 1.555190 0.796137 0
M  V30 46 H -2.693021 -0.380231 1.079154 0
M  V30 47 H -3.204853 -2.614387 -2.616802 0
M  V30 48 H -4.610269 -4.579338 -2.589359 0
M  V30 49 H -4.511491 -5.748872 2.268637 0
M  V30 END ATOM
M  V30 BEGIN BOND
M  V30 1 1 1 2
M  V30 2 2 2 3
M  V30 3 1 3 4
M  V30 4 2 4 5
M  V30 5 1 5 6
M  V30 6 2 6 7
M  V30 7 1 7 8
M  V30 8 2 8 9
M  V30 9 1 9 10
M  V30 10 2 10 11
M  V30 11 2 10 12
M  V30 12 1 10 13
M  V30 13 1 13 14
M  V30 14 1 14 15
M  V30 15 1 15 16
M  V30 16 1 16 17
M  V30 17 2 17 18
M  V30 18 2 17 19
M  V30 19 1 17 20
M  V30 20 1 20 21
M  V30 21 1 9 22
M  V30 22 2 22 23
M  V30 23 1 5 24
M  V30 24 2 24 25
M  V30 25 1 25 26
M  V30 26 2 26 27
M  V30 27 1 27 28
M  V30 28 1 28 2
M  V30 29 1 27 4
M  V30 30 1 23 6
M  V30 31 1 21 14
M  V30 32 1 1 29
M  V30 33 1 1 30
M  V30 34 1 1 31
M  V30 35 1 3 32
M  V30 36 1 7 33
M  V30 37 1 8 34
M  V30 38 1 13 35
M  V30 39 1 14 36
M  V30 40 1 15 37
M  V30 41 1 15 38
M  V30 42 1 16 39
M  V30 43 1 16 40
M  V30 44 1 20 41
M  V30 45 1 20 42
M  V30 46 1 21 43
M  V30 47 1 21 44
M  V30 48 1 22 45
M  V30 49 1 23 46
M  V30 50 1 24 47
M  V30 51 1 25 48
M  V30 52 1 28 49
M  V30 END BOND
M  V30 END CTAB
M  END
>  <Dataset>  (730) 
ChEMBL_Kinases

>  <Ligand_Instance>  (730) 
nan

>  <PDB_ID>  (730) 
nan

>  <Standardized_SMILES>  (730) 
Cc1cc2c(-c3ccc(S(=O)(=O)NC4CCS(=O)(=O)CC4)cc3)ccnc2[nH]1

>  <Name>  (730) 
nan

>  <Pocket>  (730) 
nan

>  <ATP_Site>  (730) 
nan

>  <Peripheral>  (730) 
nan

>  <Num_H_Atoms_ProtBoundConf>  (730) 
nan

>  <Num_Resolved_Atoms>  (730) 
nan

>  <Num_Not_Resolved_Atoms>  (730) 
nan

$$$$
CHEMBL483166
     RDKit          3D

  0  0  0  0  0  0  0  0  0  0999 V3000
M  V30 BEGIN CTAB
M  V30 COUNTS 52 55 0 0 0
M  V30 BEGIN ATOM
M  V30 1 C 1.368240 -6.275462 4.326413 0
M  V30 2 C 1.111316 -6.070771 2.875269 0
M  V30 3 C 1.143895 -4.822695 2.243622 0
M  V30 4 C 0.855400 -5.105607 0.946400 0
M  V30 5 C 0.756972 -4.228628 -0.115442 0
M  V30 6 C 0.945974 -2.780351 -0.084734 0
M  V30 7 C 1.978458 -2.123319 0.551912 0
M  V30 8 C 2.038994 -0.745269 0.502783 0
M  V30 9 C 1.122869 0.040595 -0.150489 0
M  V30 10 S 1.205442 1.790065 -0.212412 0
M  V30 11 O 2.700416 2.074629 -0.042237 0
M  V30 12 O 0.937665 2.269548 -1.610108 0
M  V30 13 N 0.454980 2.607621 0.995049 0
M  V30 14 C 0.971098 2.341743 2.291334 0
M  V30 15 C -0.794008 3.259198 0.885431 0
M  V30 16 C -1.984075 2.387943 0.735306 0
M  V30 17 C -2.525781 2.246478 -0.646845 0
M  V30 18 S -3.210034 3.841431 -1.062665 0
M  V30 19 O -4.600981 3.927810 -0.475175 0
M  V30 20 O -3.232341 3.956362 -2.546619 0
M  V30 21 C -2.121415 5.021044 -0.351349 0
M  V30 22 C -0.786062 4.486759 0.032001 0
M  V30 23 C 0.102807 -0.643575 -0.777223 0
M  V30 24 C -0.001162 -2.021150 -0.756703 0
M  V30 25 C 0.444910 -4.752803 -1.374931 0
M  V30 26 C 0.246760 -6.113354 -1.519603 0
M  V30 27 N 0.344348 -6.950198 -0.487860 0
M  V30 28 C 0.644391 -6.451475 0.726632 0
M  V30 29 N 0.814979 -6.993853 1.947545 0
M  V30 30 H 2.114944 -5.564539 4.718195 0
M  V30 31 H 0.425854 -6.100977 4.899230 0
M  V30 32 H 1.683977 -7.325135 4.465639 0
M  V30 33 H 1.349484 -3.866134 2.687015 0
M  V30 34 H 2.706644 -2.729579 1.070141 0
M  V30 35 H 2.865126 -0.235473 1.013352 0
M  V30 36 H 1.991404 2.812666 2.328295 0
M  V30 37 H 1.137773 1.254088 2.451754 0
M  V30 38 H 0.369287 2.781469 3.102133 0
M  V30 39 H -0.902678 3.667220 1.922968 0
M  V30 40 H -1.727285 1.395111 1.206968 0
M  V30 41 H -2.837594 2.768267 1.336738 0
M  V30 42 H -3.333371 1.503838 -0.598995 0
M  V30 43 H -1.832612 1.972246 -1.431064 0
M  V30 44 H -2.070468 5.933853 -0.976540 0
M  V30 45 H -2.619312 5.383575 0.589389 0
M  V30 46 H -0.191727 5.319126 0.458229 0
M  V30 47 H -0.282134 4.198340 -0.914929 0
M  V30 48 H -0.672102 -0.123575 -1.320685 0
M  V30 49 H -0.836463 -2.518257 -1.273680 0
M  V30 50 H 0.354226 -4.112911 -2.245299 0
M  V30 51 H 0.005348 -6.468098 -2.524494 0
M  V30 52 H 0.731962 -8.014383 2.174029 0
M  V30 END ATOM
M  V30 BEGIN BOND
M  V30 1 1 1 2
M  V30 2 2 2 3
M  V30 3 1 3 4
M  V30 4 2 4 5
M  V30 5 1 5 6
M  V30 6 2 6 7
M  V30 7 1 7 8
M  V30 8 2 8 9
M  V30 9 1 9 10
M  V30 10 2 10 11
M  V30 11 2 10 12
M  V30 12 1 10 13
M  V30 13 1 13 14
M  V30 14 1 13 15
M  V30 15 1 15 16
M  V30 16 1 16 17
M  V30 17 1 17 18
M  V30 18 2 18 19
M  V30 19 2 18 20
M  V30 20 1 18 21
M  V30 21 1 21 22
M  V30 22 1 9 23
M  V30 23 2 23 24
M  V30 24 1 5 25
M  V30 25 2 25 26
M  V30 26 1 26 27
M  V30 27 2 27 28
M  V30 28 1 28 29
M  V30 29 1 29 2
M  V30 30 1 28 4
M  V30 31 1 24 6
M  V30 32 1 22 15
M  V30 33 1 1 30
M  V30 34 1 1 31
M  V30 35 1 1 32
M  V30 36 1 3 33
M  V30 37 1 7 34
M  V30 38 1 8 35
M  V30 39 1 14 36
M  V30 40 1 14 37
M  V30 41 1 14 38
M  V30 42 1 15 39
M  V30 43 1 16 40
M  V30 44 1 16 41
M  V30 45 1 17 42
M  V30 46 1 17 43
M  V30 47 1 21 44
M  V30 48 1 21 45
M  V30 49 1 22 46
M  V30 50 1 22 47
M  V30 51 1 23 48
M  V30 52 1 24 49
M  V30 53 1 25 50
M  V30 54 1 26 51
M  V30 55 1 29 52
M  V30 END BOND
M  V30 END CTAB
M  END
>  <Dataset>  (731) 
ChEMBL_Kinases

>  <Ligand_Instance>  (731) 
nan

>  <PDB_ID>  (731) 
nan

>  <Standardized_SMILES>  (731) 
Cc1cc2c(-c3ccc(S(=O)(=O)N(C)C4CCS(=O)(=O)CC4)cc3)ccnc2[nH]1

>  <Name>  (731) 
nan

>  <Pocket>  (731) 
nan

>  <ATP_Site>  (731) 
nan

>  <Peripheral>  (731) 
nan

>  <Num_H_Atoms_ProtBoundConf>  (731) 
nan

>  <Num_Resolved_Atoms>  (731) 
nan

>  <Num_Not_Resolved_Atoms>  (731) 
nan

$$$$
CHEMBL483557
     RDKit          3D

  0  0  0  0  0  0  0  0  0  0999 V3000
M  V30 BEGIN CTAB
M  V30 COUNTS 40 42 0 0 0
M  V30 BEGIN ATOM
M  V30 1 C -0.638221 2.852213 4.433571 0
M  V30 2 C -0.931707 1.497473 3.884917 0
M  V30 3 C -0.722740 1.066938 2.593836 0
M  V30 4 C -1.111906 -0.241261 2.454838 0
M  V30 5 C -1.085196 -1.072283 1.354115 0
M  V30 6 C -0.601974 -0.684145 0.038061 0
M  V30 7 C -1.467972 -1.110810 -0.973777 0
M  V30 8 C -1.179089 -0.835807 -2.301178 0
M  V30 9 C -0.037157 -0.139903 -2.639549 0
M  V30 10 S 0.389121 0.241461 -4.292373 0
M  V30 11 O -0.922066 0.311758 -5.059735 0
M  V30 12 O 1.099675 1.532423 -4.441936 0
M  V30 13 N 1.355135 -1.070846 -4.906628 0
M  V30 14 C 0.624672 -2.305812 -4.907994 0
M  V30 15 C 1.415470 -3.482290 -5.432180 0
M  V30 16 O 0.570273 -4.611430 -5.371057 0
M  V30 17 C 0.816012 0.279078 -1.625607 0
M  V30 18 C 0.535512 0.009726 -0.307559 0
M  V30 19 C -1.562908 -2.353046 1.574997 0
M  V30 20 C -2.026688 -2.754909 2.804163 0
M  V30 21 N -2.023022 -1.889568 3.834022 0
M  V30 22 C -1.568589 -0.611268 3.696185 0
M  V30 23 N -1.457839 0.436697 4.550217 0
M  V30 24 H 0.253168 3.297841 3.930127 0
M  V30 25 H -0.480787 2.819575 5.520446 0
M  V30 26 H -1.489609 3.526982 4.219793 0
M  V30 27 H -0.311964 1.701637 1.840808 0
M  V30 28 H -2.402100 -1.668202 -0.845331 0
M  V30 29 H -1.838191 -1.156522 -3.121626 0
M  V30 30 H 1.602882 -0.791299 -5.882111 0
M  V30 31 H -0.240101 -2.203956 -5.619434 0
M  V30 32 H 0.219171 -2.535693 -3.921357 0
M  V30 33 H 2.298547 -3.721128 -4.833027 0
M  V30 34 H 1.716510 -3.362126 -6.477442 0
M  V30 35 H 0.562016 -4.920633 -4.410038 0
M  V30 36 H 1.732630 0.830486 -1.806966 0
M  V30 37 H 1.135717 0.293120 0.546215 0
M  V30 38 H -1.549377 -3.026105 0.713487 0
M  V30 39 H -2.377572 -3.772019 2.874390 0
M  V30 40 H -1.731802 0.443547 5.570701 0
M  V30 END ATOM
M  V30 BEGIN BOND
M  V30 1 1 1 2
M  V30 2 2 2 3
M  V30 3 1 3 4
M  V30 4 2 4 5
M  V30 5 1 5 6
M  V30 6 2 6 7
M  V30 7 1 7 8
M  V30 8 2 8 9
M  V30 9 1 9 10
M  V30 10 2 10 11
M  V30 11 2 10 12
M  V30 12 1 10 13
M  V30 13 1 13 14
M  V30 14 1 14 15
M  V30 15 1 15 16
M  V30 16 1 9 17
M  V30 17 2 17 18
M  V30 18 1 5 19
M  V30 19 2 19 20
M  V30 20 1 20 21
M  V30 21 2 21 22
M  V30 22 1 22 23
M  V30 23 1 23 2
M  V30 24 1 22 4
M  V30 25 1 18 6
M  V30 26 1 1 24
M  V30 27 1 1 25
M  V30 28 1 1 26
M  V30 29 1 3 27
M  V30 30 1 7 28
M  V30 31 1 8 29
M  V30 32 1 13 30
M  V30 33 1 14 31
M  V30 34 1 14 32
M  V30 35 1 15 33
M  V30 36 1 15 34
M  V30 37 1 16 35
M  V30 38 1 17 36
M  V30 39 1 18 37
M  V30 40 1 19 38
M  V30 41 1 20 39
M  V30 42 1 23 40
M  V30 END BOND
M  V30 END CTAB
M  END
>  <Dataset>  (732) 
ChEMBL_Kinases

>  <Ligand_Instance>  (732) 
nan

>  <PDB_ID>  (732) 
nan

>  <Standardized_SMILES>  (732) 
Cc1cc2c(-c3ccc(S(=O)(=O)NCCO)cc3)ccnc2[nH]1

>  <Name>  (732) 
nan

>  <Pocket>  (732) 
nan

>  <ATP_Site>  (732) 
nan

>  <Peripheral>  (732) 
nan

>  <Num_H_Atoms_ProtBoundConf>  (732) 
nan

>  <Num_Resolved_Atoms>  (732) 
nan

>  <Num_Not_Resolved_Atoms>  (732) 
nan

$$$$
CHEMBL4875545
     RDKit          3D

  0  0  0  0  0  0  0  0  0  0999 V3000
M  V30 BEGIN CTAB
M  V30 COUNTS 45 48 0 0 0
M  V30 BEGIN ATOM
M  V30 1 C 0.702066 -3.860522 4.589468 0
M  V30 2 C 2.024326 -3.168635 4.608831 0
M  V30 3 O 2.955470 -3.650700 5.303582 0
M  V30 4 C 2.254773 -1.950680 3.841097 0
M  V30 5 C 3.513394 -1.393672 3.931074 0
M  V30 6 C 3.721691 -0.242467 3.201667 0
M  V30 7 C 2.759427 0.379669 2.396307 0
M  V30 8 N 3.103385 1.559760 1.692222 0
M  V30 9 S 2.817169 2.007720 0.050987 0
M  V30 10 O 3.488629 0.956741 -0.795380 0
M  V30 11 O 3.516683 3.305162 -0.248307 0
M  V30 12 C 1.144370 2.104309 -0.364412 0
M  V30 13 C 0.573611 3.355595 -0.127484 0
M  V30 14 C -0.746153 3.657391 -0.389495 0
M  V30 15 C -1.549660 2.667774 -0.915691 0
M  V30 16 C -1.018417 1.418948 -1.162519 0
M  V30 17 C -1.820363 0.356472 -1.711039 0
M  V30 18 N -2.634582 0.612385 -2.743494 0
M  V30 19 N -3.297355 -0.484893 -3.118719 0
M  V30 20 C -2.917328 -1.498762 -2.318142 0
M  V30 21 C -3.240884 -2.833328 -2.216673 0
M  V30 22 C -2.625548 -3.589533 -1.235884 0
M  V30 23 F -3.000043 -4.903354 -1.200693 0
M  V30 24 C -1.700394 -3.048653 -0.359091 0
M  V30 25 C -1.352860 -1.699333 -0.438096 0
M  V30 26 C -1.992433 -0.987909 -1.430948 0
M  V30 27 C 0.304121 1.131469 -0.895282 0
M  V30 28 C 1.536641 -0.256599 2.375866 0
M  V30 29 C 1.248875 -1.405055 3.072902 0
M  V30 30 H -0.106771 -3.100280 4.555817 0
M  V30 31 H 0.616587 -4.512086 3.710321 0
M  V30 32 H 0.557797 -4.454294 5.536882 0
M  V30 33 H 4.331845 -1.790153 4.522806 0
M  V30 34 H 4.704016 0.233266 3.243097 0
M  V30 35 H 3.611684 2.236646 2.318871 0
M  V30 36 H 1.120202 4.213675 0.288243 0
M  V30 37 H -1.193527 4.609842 -0.212642 0
M  V30 38 H -2.594438 2.793763 -1.158403 0
M  V30 39 H -3.997503 -0.552655 -3.903977 0
M  V30 40 H -3.965559 -3.182201 -2.930113 0
M  V30 41 H -1.245870 -3.683961 0.392722 0
M  V30 42 H -0.636663 -1.250907 0.230090 0
M  V30 43 H 0.820684 0.190336 -1.049918 0
M  V30 44 H 0.768867 0.172092 1.783241 0
M  V30 45 H 0.268868 -1.835387 3.000456 0
M  V30 END ATOM
M  V30 BEGIN BOND
M  V30 1 1 1 2
M  V30 2 2 2 3
M  V30 3 1 2 4
M  V30 4 2 4 5
M  V30 5 1 5 6
M  V30 6 2 6 7
M  V30 7 1 7 8
M  V30 8 1 8 9
M  V30 9 2 9 10
M  V30 10 2 9 11
M  V30 11 1 9 12
M  V30 12 2 12 13
M  V30 13 1 13 14
M  V30 14 2 14 15
M  V30 15 1 15 16
M  V30 16 1 16 17
M  V30 17 2 17 18
M  V30 18 1 18 19
M  V30 19 1 19 20
M  V30 20 2 20 21
M  V30 21 1 21 22
M  V30 22 1 22 23
M  V30 23 2 22 24
M  V30 24 1 24 25
M  V30 25 2 25 26
M  V30 26 2 16 27
M  V30 27 1 7 28
M  V30 28 2 28 29
M  V30 29 1 29 4
M  V30 30 1 27 12
M  V30 31 1 26 17
M  V30 32 1 26 20
M  V30 33 1 1 30
M  V30 34 1 1 31
M  V30 35 1 1 32
M  V30 36 1 5 33
M  V30 37 1 6 34
M  V30 38 1 8 35
M  V30 39 1 13 36
M  V30 40 1 14 37
M  V30 41 1 15 38
M  V30 42 1 19 39
M  V30 43 1 21 40
M  V30 44 1 24 41
M  V30 45 1 25 42
M  V30 46 1 27 43
M  V30 47 1 28 44
M  V30 48 1 29 45
M  V30 END BOND
M  V30 END CTAB
M  END
>  <Dataset>  (733) 
ChEMBL_Kinases

>  <Ligand_Instance>  (733) 
nan

>  <PDB_ID>  (733) 
nan

>  <Standardized_SMILES>  (733) 
CC(=O)c1ccc(NS(=O)(=O)c2cccc(-c3n[nH]c4cc(F)ccc34)c2)cc1

>  <Name>  (733) 
nan

>  <Pocket>  (733) 
nan

>  <ATP_Site>  (733) 
nan

>  <Peripheral>  (733) 
nan

>  <Num_H_Atoms_ProtBoundConf>  (733) 
nan

>  <Num_Resolved_Atoms>  (733) 
nan

>  <Num_Not_Resolved_Atoms>  (733) 
nan

$$$$
CHEMBL483790
     RDKit          3D

  0  0  0  0  0  0  0  0  0  0999 V3000
M  V30 BEGIN CTAB
M  V30 COUNTS 21 22 0 0 0
M  V30 BEGIN ATOM
M  V30 1 N 0.438268 1.359519 5.067230 0
M  V30 2 C -0.232647 1.175501 3.740570 0
M  V30 3 N 0.235850 0.737783 2.794445 0
M  V30 4 C -0.302716 0.551240 1.601115 0
M  V30 5 C 0.418817 -0.031037 0.447768 0
M  V30 6 C 1.733557 -0.444405 0.487969 0
M  V30 7 C 2.405537 -0.981058 -0.567508 0
M  V30 8 C 1.760195 -1.133445 -1.762195 0
M  V30 9 O 2.485803 -1.685616 -2.811584 0
M  V30 10 C 0.445672 -0.743075 -1.878222 0
M  V30 11 C -0.168408 -0.212284 -0.780152 0
M  V30 12 C -1.615745 0.940227 1.482183 0
M  V30 13 S -1.999683 1.573093 3.164174 0
M  V30 14 H 1.211681 2.067974 4.983029 0
M  V30 15 H -0.054433 0.722480 5.724662 0
M  V30 16 H 2.276266 -0.332862 1.437730 0
M  V30 17 H 3.435778 -1.281941 -0.459831 0
M  V30 18 H 3.090591 -1.098511 -3.381394 0
M  V30 19 H -0.064275 -0.862458 -2.818835 0
M  V30 20 H -1.202676 0.077848 -0.927681 0
M  V30 21 H -2.249590 0.886192 0.625085 0
M  V30 END ATOM
M  V30 BEGIN BOND
M  V30 1 1 1 2
M  V30 2 2 2 3
M  V30 3 1 3 4
M  V30 4 1 4 5
M  V30 5 2 5 6
M  V30 6 1 6 7
M  V30 7 2 7 8
M  V30 8 1 8 9
M  V30 9 1 8 10
M  V30 10 2 10 11
M  V30 11 2 4 12
M  V30 12 1 12 13
M  V30 13 1 13 2
M  V30 14 1 11 5
M  V30 15 1 1 14
M  V30 16 1 1 15
M  V30 17 1 6 16
M  V30 18 1 7 17
M  V30 19 1 9 18
M  V30 20 1 10 19
M  V30 21 1 11 20
M  V30 22 1 12 21
M  V30 END BOND
M  V30 END CTAB
M  END
>  <Dataset>  (734) 
ChEMBL_Kinases

>  <Ligand_Instance>  (734) 
nan

>  <PDB_ID>  (734) 
nan

>  <Standardized_SMILES>  (734) 
Nc1nc(-c2ccc(O)cc2)cs1

>  <Name>  (734) 
nan

>  <Pocket>  (734) 
nan

>  <ATP_Site>  (734) 
nan

>  <Peripheral>  (734) 
nan

>  <Num_H_Atoms_ProtBoundConf>  (734) 
nan

>  <Num_Resolved_Atoms>  (734) 
nan

>  <Num_Not_Resolved_Atoms>  (734) 
nan

$$$$
CHEMBL4875006
     RDKit          3D

  0  0  0  0  0  0  0  0  0  0999 V3000
M  V30 BEGIN CTAB
M  V30 COUNTS 44 47 0 0 0
M  V30 BEGIN ATOM
M  V30 1 C -0.900068 -0.212259 4.417122 0
M  V30 2 O -1.047594 0.186024 3.049145 0
M  V30 3 C 0.090427 0.376098 2.290261 0
M  V30 4 C 1.388283 0.209807 2.722531 0
M  V30 5 C 2.427320 0.434424 1.843027 0
M  V30 6 C 3.785934 0.244733 2.337315 0
M  V30 7 C 4.892133 0.918473 1.938558 0
M  V30 8 C 6.116190 0.680261 2.441556 0
M  V30 9 S 5.821296 -0.659542 3.661607 0
M  V30 10 C 4.077397 -0.773148 3.379680 0
M  V30 11 C 2.236966 0.824728 0.526356 0
M  V30 12 C 0.925368 0.982621 0.125073 0
M  V30 13 C -0.154082 0.764011 0.989276 0
M  V30 14 C -1.439447 1.017545 0.341207 0
M  V30 15 C -1.866583 0.687344 -0.888369 0
M  V30 16 N -1.072495 -0.031135 -1.859130 0
M  V30 17 C -0.797689 -1.419500 -1.808911 0
M  V30 18 C -0.050738 -1.947810 -2.839918 0
M  V30 19 C 0.256263 -3.300844 -2.857845 0
M  V30 20 C -0.223278 -4.037062 -1.811055 0
M  V30 21 C -0.975653 -3.527494 -0.763733 0
M  V30 22 C -1.419632 -4.410098 0.277757 0
M  V30 23 N -1.783891 -5.113115 1.093988 0
M  V30 24 C -1.270334 -2.179800 -0.764596 0
M  V30 25 C -3.229672 1.190938 -1.029888 0
M  V30 26 O -3.810509 0.977334 -2.133416 0
M  V30 27 N -3.620856 1.839387 0.153575 0
M  V30 28 C -2.494417 1.745415 1.052242 0
M  V30 29 O -2.489823 2.223233 2.212552 0
M  V30 30 H -0.202169 -1.089086 4.467652 0
M  V30 31 H -0.536732 0.619914 5.055346 0
M  V30 32 H -1.902948 -0.457967 4.785515 0
M  V30 33 H 1.531554 -0.095041 3.753319 0
M  V30 34 H 4.816732 1.696795 1.176666 0
M  V30 35 H 7.066765 1.098669 2.252604 0
M  V30 36 H 3.291119 -1.393557 3.797321 0
M  V30 37 H 3.083421 0.989261 -0.127367 0
M  V30 38 H 0.840453 1.291033 -0.925149 0
M  V30 39 H -0.720054 0.597402 -2.609909 0
M  V30 40 H 0.326331 -1.337964 -3.672984 0
M  V30 41 H 0.840777 -3.690394 -3.675363 0
M  V30 42 H 0.009302 -5.106221 -1.809241 0
M  V30 43 H -1.854895 -1.760614 0.039973 0
M  V30 44 H -4.562589 2.276379 0.273237 0
M  V30 END ATOM
M  V30 BEGIN BOND
M  V30 1 1 1 2
M  V30 2 1 2 3
M  V30 3 2 3 4
M  V30 4 1 4 5
M  V30 5 1 5 6
M  V30 6 1 6 7
M  V30 7 2 7 8
M  V30 8 1 8 9
M  V30 9 1 9 10
M  V30 10 2 5 11
M  V30 11 1 11 12
M  V30 12 2 12 13
M  V30 13 1 13 14
M  V30 14 2 14 15
M  V30 15 1 15 16
M  V30 16 1 16 17
M  V30 17 2 17 18
M  V30 18 1 18 19
M  V30 19 2 19 20
M  V30 20 1 20 21
M  V30 21 1 21 22
M  V30 22 3 22 23
M  V30 23 2 21 24
M  V30 24 1 15 25
M  V30 25 2 25 26
M  V30 26 1 25 27
M  V30 27 1 27 28
M  V30 28 2 28 29
M  V30 29 1 13 3
M  V30 30 1 28 14
M  V30 31 2 10 6
M  V30 32 1 24 17
M  V30 33 1 1 30
M  V30 34 1 1 31
M  V30 35 1 1 32
M  V30 36 1 4 33
M  V30 37 1 7 34
M  V30 38 1 8 35
M  V30 39 1 10 36
M  V30 40 1 11 37
M  V30 41 1 12 38
M  V30 42 1 16 39
M  V30 43 1 18 40
M  V30 44 1 19 41
M  V30 45 1 20 42
M  V30 46 1 24 43
M  V30 47 1 27 44
M  V30 END BOND
M  V30 END CTAB
M  END
>  <Dataset>  (735) 
ChEMBL_Kinases

>  <Ligand_Instance>  (735) 
nan

>  <PDB_ID>  (735) 
nan

>  <Standardized_SMILES>  (735) 
COc1cc(-c2ccsc2)ccc1C1=C(Nc2cccc(C#N)c2)C(=O)NC1=O

>  <Name>  (735) 
nan

>  <Pocket>  (735) 
nan

>  <ATP_Site>  (735) 
nan

>  <Peripheral>  (735) 
nan

>  <Num_H_Atoms_ProtBoundConf>  (735) 
nan

>  <Num_Resolved_Atoms>  (735) 
nan

>  <Num_Not_Resolved_Atoms>  (735) 
nan

$$$$
CHEMBL4846181
     RDKit          3D

  0  0  0  0  0  0  0  0  0  0999 V3000
M  V30 BEGIN CTAB
M  V30 COUNTS 37 40 0 0 0
M  V30 BEGIN ATOM
M  V30 1 N 0.679694 -2.769943 5.349975 0
M  V30 2 C 1.430670 -2.687915 4.496259 0
M  V30 3 C 2.371627 -2.602613 3.407193 0
M  V30 4 C 3.674960 -3.039456 3.548658 0
M  V30 5 C 4.527374 -2.932565 2.474191 0
M  V30 6 C 4.147037 -2.403908 1.240427 0
M  V30 7 C 2.850394 -1.965723 1.089172 0
M  V30 8 N 2.368681 -1.410739 -0.130618 0
M  V30 9 C 1.033975 -0.952250 -0.313059 0
M  V30 10 N 0.825451 0.351543 -0.002893 0
M  V30 11 C -0.412409 0.857045 -0.150218 0
M  V30 12 C -0.586324 2.197942 0.178566 0
M  V30 13 C -1.836769 2.765942 0.045821 0
M  V30 14 C -2.032276 4.171619 0.387387 0
M  V30 15 O -3.172311 4.739444 0.279996 0
M  V30 16 O -0.983760 4.956278 0.845770 0
M  V30 17 C -2.912728 2.035906 -0.403792 0
M  V30 18 C -2.731154 0.697860 -0.729971 0
M  V30 19 C -1.489168 0.124664 -0.600567 0
M  V30 20 C -1.289436 -1.188440 -0.915301 0
M  V30 21 C -2.330465 -1.957094 -1.367539 0
M  V30 22 N -2.066719 -3.253309 -1.663093 0
M  V30 23 C -0.803623 -3.739327 -1.504647 0
M  V30 24 N 0.233715 -2.994974 -1.059924 0
M  V30 25 C -0.022889 -1.709548 -0.765651 0
M  V30 26 C 2.009509 -2.080119 2.175672 0
M  V30 27 H 4.029982 -3.461203 4.486877 0
M  V30 28 H 5.568641 -3.273204 2.562295 0
M  V30 29 H 4.826469 -2.325364 0.403042 0
M  V30 30 H 3.006060 -1.323737 -0.950276 0
M  V30 31 H 0.240536 2.791668 0.533218 0
M  V30 32 H -1.079436 5.870124 1.267829 0
M  V30 33 H -3.883757 2.519987 -0.495260 0
M  V30 34 H -3.621531 0.203596 -1.071604 0
M  V30 35 H -3.335263 -1.649267 -1.515453 0
M  V30 36 H -0.622673 -4.783938 -1.750063 0
M  V30 37 H 0.985561 -1.735406 2.060550 0
M  V30 END ATOM
M  V30 BEGIN BOND
M  V30 1 3 1 2
M  V30 2 1 2 3
M  V30 3 2 3 4
M  V30 4 1 4 5
M  V30 5 2 5 6
M  V30 6 1 6 7
M  V30 7 1 7 8
M  V30 8 1 8 9
M  V30 9 2 9 10
M  V30 10 1 10 11
M  V30 11 2 11 12
M  V30 12 1 12 13
M  V30 13 1 13 14
M  V30 14 2 14 15
M  V30 15 1 14 16
M  V30 16 2 13 17
M  V30 17 1 17 18
M  V30 18 2 18 19
M  V30 19 1 19 20
M  V30 20 2 20 21
M  V30 21 1 21 22
M  V30 22 2 22 23
M  V30 23 1 23 24
M  V30 24 2 24 25
M  V30 25 2 7 26
M  V30 26 1 26 3
M  V30 27 1 25 9
M  V30 28 1 19 11
M  V30 29 1 25 20
M  V30 30 1 4 27
M  V30 31 1 5 28
M  V30 32 1 6 29
M  V30 33 1 8 30
M  V30 34 1 12 31
M  V30 35 1 16 32
M  V30 36 1 17 33
M  V30 37 1 18 34
M  V30 38 1 21 35
M  V30 39 1 23 36
M  V30 40 1 26 37
M  V30 END BOND
M  V30 END CTAB
M  END
>  <Dataset>  (736) 
ChEMBL_Kinases

>  <Ligand_Instance>  (736) 
nan

>  <PDB_ID>  (736) 
nan

>  <Standardized_SMILES>  (736) 
N#Cc1cccc(Nc2nc3cc(C(=O)O)ccc3c3cncnc23)c1

>  <Name>  (736) 
nan

>  <Pocket>  (736) 
nan

>  <ATP_Site>  (736) 
nan

>  <Peripheral>  (736) 
nan

>  <Num_H_Atoms_ProtBoundConf>  (736) 
nan

>  <Num_Resolved_Atoms>  (736) 
nan

>  <Num_Not_Resolved_Atoms>  (736) 
nan

$$$$
CHEMBL4846302
     RDKit          3D

  0  0  0  0  0  0  0  0  0  0999 V3000
M  V30 BEGIN CTAB
M  V30 COUNTS 35 38 0 0 0
M  V30 BEGIN ATOM
M  V30 1 O 2.660228 -4.400492 -2.156817 0
M  V30 2 C 1.539064 -4.115791 -1.682373 0
M  V30 3 O 0.521959 -5.010617 -1.893863 0
M  V30 4 C 1.355730 -2.862506 -0.933036 0
M  V30 5 C 0.090351 -2.568373 -0.412760 0
M  V30 6 C 0.027036 -1.375159 0.268694 0
M  V30 7 C 1.044572 -0.500285 0.467633 0
M  V30 8 C 2.248907 -0.865018 -0.073670 0
M  V30 9 C 2.445912 -2.032014 -0.778131 0
M  V30 10 C 3.345521 -0.049840 0.088802 0
M  V30 11 C 3.148019 1.108147 0.804913 0
M  V30 12 Br 4.649669 2.248918 1.042414 0
M  V30 13 C 1.905140 1.407706 1.318689 0
M  V30 14 C 1.853987 2.579236 2.007591 0
M  V30 15 C 0.708626 3.028635 2.584448 0
M  V30 16 N -0.329403 2.220473 2.406034 0
M  V30 17 C -0.379799 1.054936 1.748122 0
M  V30 18 N -1.557447 0.277304 1.600973 0
M  V30 19 C -2.904452 -0.157331 1.719659 0
M  V30 20 C -4.139134 0.535096 1.312735 0
M  V30 21 C -3.561237 -0.377408 0.315623 0
M  V30 22 C 0.786277 0.631536 1.183448 0
M  V30 23 H 0.679248 -6.024426 -1.812563 0
M  V30 24 H -0.672907 -3.285409 -0.596409 0
M  V30 25 H -0.929562 -1.252312 0.626620 0
M  V30 26 H 3.410840 -2.300566 -1.199165 0
M  V30 27 H 4.300418 -0.321706 -0.330522 0
M  V30 28 H 2.675048 3.252963 2.167490 0
M  V30 29 H 0.431611 3.893214 3.160115 0
M  V30 30 H -2.140651 0.855984 2.212847 0
M  V30 31 H -3.096154 -1.096284 2.370865 0
M  V30 32 H -5.090571 0.264426 1.817209 0
M  V30 33 H -4.093172 1.643108 1.103842 0
M  V30 34 H -3.063989 0.104696 -0.548584 0
M  V30 35 H -3.975523 -1.382296 0.118416 0
M  V30 END ATOM
M  V30 BEGIN BOND
M  V30 1 2 1 2
M  V30 2 1 2 3
M  V30 3 1 2 4
M  V30 4 2 4 5
M  V30 5 1 5 6
M  V30 6 2 6 7
M  V30 7 1 7 8
M  V30 8 2 8 9
M  V30 9 1 8 10
M  V30 10 2 10 11
M  V30 11 1 11 12
M  V30 12 1 11 13
M  V30 13 2 13 14
M  V30 14 1 14 15
M  V30 15 2 15 16
M  V30 16 1 16 17
M  V30 17 1 17 18
M  V30 18 1 18 19
M  V30 19 1 19 20
M  V30 20 1 20 21
M  V30 21 2 17 22
M  V30 22 1 9 4
M  V30 23 1 22 13
M  V30 24 1 22 7
M  V30 25 1 21 19
M  V30 26 1 3 23
M  V30 27 1 5 24
M  V30 28 1 6 25
M  V30 29 1 9 26
M  V30 30 1 10 27
M  V30 31 1 14 28
M  V30 32 1 15 29
M  V30 33 1 18 30
M  V30 34 1 19 31
M  V30 35 1 20 32
M  V30 36 1 20 33
M  V30 37 1 21 34
M  V30 38 1 21 35
M  V30 END BOND
M  V30 END CTAB
M  END
>  <Dataset>  (737) 
ChEMBL_Kinases

>  <Ligand_Instance>  (737) 
nan

>  <PDB_ID>  (737) 
nan

>  <Standardized_SMILES>  (737) 
O=C(O)c1ccc2c(c1)cc(Br)c1ccnc(NC3CC3)c12

>  <Name>  (737) 
nan

>  <Pocket>  (737) 
nan

>  <ATP_Site>  (737) 
nan

>  <Peripheral>  (737) 
nan

>  <Num_H_Atoms_ProtBoundConf>  (737) 
nan

>  <Num_Resolved_Atoms>  (737) 
nan

>  <Num_Not_Resolved_Atoms>  (737) 
nan

$$$$
CHEMBL4875291
     RDKit          3D

  0  0  0  0  0  0  0  0  0  0999 V3000
M  V30 BEGIN CTAB
M  V30 COUNTS 61 65 0 0 0
M  V30 BEGIN ATOM
M  V30 1 C 5.167610 -3.534240 2.890422 0
M  V30 2 O 3.787830 -3.535546 2.698511 0
M  V30 3 C 3.023032 -2.592908 2.073197 0
M  V30 4 C 3.537040 -1.442632 1.512229 0
M  V30 5 C 2.768725 -0.487955 0.879817 0
M  V30 6 C 1.417285 -0.722747 0.820260 0
M  V30 7 C 0.587537 0.275310 0.154543 0
M  V30 8 C -0.691293 0.395149 0.653111 0
M  V30 9 C -1.518695 1.319268 0.064505 0
M  V30 10 C -1.200779 2.148186 -0.982999 0
M  V30 11 O -1.727527 3.111699 -1.762586 0
M  V30 12 C -2.993551 3.653007 -1.709974 0
M  V30 13 C -3.253527 4.322202 -0.429100 0
M  V30 14 C -2.713047 5.617048 -0.478091 0
M  V30 15 C -2.809634 6.511429 0.573196 0
M  V30 16 C -3.467301 6.140104 1.747689 0
M  V30 17 C -4.002056 4.868159 1.803797 0
M  V30 18 C -3.892083 3.999129 0.744296 0
M  V30 19 C 0.118014 1.992675 -1.463073 0
M  V30 20 F 0.789625 2.629393 -2.477655 0
M  V30 21 C 1.005090 1.067224 -0.902667 0
M  V30 22 C 0.872884 -1.863595 1.371805 0
M  V30 23 C 1.646184 -2.825801 2.009045 0
M  V30 24 C 0.971719 -3.995749 2.557852 0
M  V30 25 C -0.081546 -4.582775 1.962155 0
M  V30 26 N -0.733440 -4.225793 0.749586 0
M  V30 27 C -0.265307 -4.346263 -0.577395 0
M  V30 28 C 0.966088 -4.863485 -0.824523 0
M  V30 29 C 1.317892 -4.933474 -2.156960 0
M  V30 30 C 0.497348 -4.514008 -3.206828 0
M  V30 31 C -0.755207 -3.992532 -2.880514 0
M  V30 32 C -1.670554 -3.533786 -3.901568 0
M  V30 33 N -2.424373 -3.167202 -4.712569 0
M  V30 34 C -1.125189 -3.914072 -1.556856 0
M  V30 35 C -0.477651 -5.717306 2.808939 0
M  V30 36 O -1.433644 -6.502466 2.564211 0
M  V30 37 N 0.381881 -5.807310 3.961956 0
M  V30 38 C 1.282803 -4.717161 3.782488 0
M  V30 39 O 2.211701 -4.453463 4.605590 0
M  V30 40 H 5.682824 -2.869319 2.186343 0
M  V30 41 H 5.503486 -4.603812 2.754814 0
M  V30 42 H 5.408227 -3.283897 3.963713 0
M  V30 43 H 4.614345 -1.248768 1.556108 0
M  V30 44 H 3.219093 0.399032 0.454744 0
M  V30 45 H -1.170349 -0.137747 1.461926 0
M  V30 46 H -2.538267 1.508246 0.346191 0
M  V30 47 H -3.237075 4.300476 -2.586464 0
M  V30 48 H -3.711573 2.767024 -1.737413 0
M  V30 49 H -2.171585 6.091153 -1.289239 0
M  V30 50 H -2.427932 7.507274 0.614025 0
M  V30 51 H -3.614719 6.733719 2.638435 0
M  V30 52 H -4.535169 4.452068 2.649012 0
M  V30 53 H -4.285704 2.998423 0.689754 0
M  V30 54 H 2.025951 0.846015 -1.165880 0
M  V30 55 H -0.205670 -1.947850 1.267649 0
M  V30 56 H -1.660944 -3.842011 1.033159 0
M  V30 57 H 1.642634 -5.203545 -0.050622 0
M  V30 58 H 2.270520 -5.325043 -2.486043 0
M  V30 59 H 0.792123 -4.578072 -4.238799 0
M  V30 60 H -2.100426 -3.506027 -1.331941 0
M  V30 61 H 0.358510 -6.495667 4.740115 0
M  V30 END ATOM
M  V30 BEGIN BOND
M  V30 1 1 1 2
M  V30 2 1 2 3
M  V30 3 2 3 4
M  V30 4 1 4 5
M  V30 5 2 5 6
M  V30 6 1 6 7
M  V30 7 2 7 8
M  V30 8 1 8 9
M  V30 9 2 9 10
M  V30 10 1 10 11
M  V30 11 1 11 12
M  V30 12 1 12 13
M  V30 13 2 13 14
M  V30 14 1 14 15
M  V30 15 2 15 16
M  V30 16 1 16 17
M  V30 17 2 17 18
M  V30 18 1 10 19
M  V30 19 1 19 20
M  V30 20 2 19 21
M  V30 21 1 6 22
M  V30 22 2 22 23
M  V30 23 1 23 24
M  V30 24 2 24 25
M  V30 25 1 25 26
M  V30 26 1 26 27
M  V30 27 2 27 28
M  V30 28 1 28 29
M  V30 29 2 29 30
M  V30 30 1 30 31
M  V30 31 1 31 32
M  V30 32 3 32 33
M  V30 33 2 31 34
M  V30 34 1 25 35
M  V30 35 2 35 36
M  V30 36 1 35 37
M  V30 37 1 37 38
M  V30 38 2 38 39
M  V30 39 1 23 3
M  V30 40 1 38 24
M  V30 41 1 21 7
M  V30 42 1 34 27
M  V30 43 1 18 13
M  V30 44 1 1 40
M  V30 45 1 1 41
M  V30 46 1 1 42
M  V30 47 1 4 43
M  V30 48 1 5 44
M  V30 49 1 8 45
M  V30 50 1 9 46
M  V30 51 1 12 47
M  V30 52 1 12 48
M  V30 53 1 14 49
M  V30 54 1 15 50
M  V30 55 1 16 51
M  V30 56 1 17 52
M  V30 57 1 18 53
M  V30 58 1 21 54
M  V30 59 1 22 55
M  V30 60 1 26 56
M  V30 61 1 28 57
M  V30 62 1 29 58
M  V30 63 1 30 59
M  V30 64 1 34 60
M  V30 65 1 37 61
M  V30 END BOND
M  V30 END CTAB
M  END
>  <Dataset>  (738) 
ChEMBL_Kinases

>  <Ligand_Instance>  (738) 
nan

>  <PDB_ID>  (738) 
nan

>  <Standardized_SMILES>  (738) 
COc1ccc(-c2ccc(OCc3ccccc3)c(F)c2)cc1C1=C(Nc2cccc(C#N)c2)C(=O)NC1=O

>  <Name>  (738) 
nan

>  <Pocket>  (738) 
nan

>  <ATP_Site>  (738) 
nan

>  <Peripheral>  (738) 
nan

>  <Num_H_Atoms_ProtBoundConf>  (738) 
nan

>  <Num_Resolved_Atoms>  (738) 
nan

>  <Num_Not_Resolved_Atoms>  (738) 
nan

$$$$
CHEMBL4875281
     RDKit          3D

  0  0  0  0  0  0  0  0  0  0999 V3000
M  V30 BEGIN CTAB
M  V30 COUNTS 35 37 0 0 0
M  V30 BEGIN ATOM
M  V30 1 O -1.117268 -3.318353 3.236541 0
M  V30 2 C -0.183856 -2.561248 2.869801 0
M  V30 3 N 0.785510 -2.159106 3.850940 0
M  V30 4 C 1.685798 -1.328985 3.137785 0
M  V30 5 O 2.686335 -0.774735 3.637939 0
M  V30 6 C 1.340900 -1.175305 1.740851 0
M  V30 7 C 1.768251 -0.567261 0.503725 0
M  V30 8 C 1.996437 -1.431959 -0.581931 0
M  V30 9 C 2.362537 -1.070053 -1.867770 0
M  V30 10 C 2.503334 0.284709 -2.048203 0
M  V30 11 C 2.292281 1.175855 -1.021502 0
M  V30 12 C 1.927425 0.772155 0.249893 0
M  V30 13 C 1.725223 1.815275 1.252985 0
M  V30 14 F 2.589374 1.781023 2.320417 0
M  V30 15 F 0.450692 1.756151 1.817410 0
M  V30 16 F 1.833937 3.067261 0.683518 0
M  V30 17 C 0.223633 -1.921727 1.612943 0
M  V30 18 N -0.660968 -2.231187 0.531691 0
M  V30 19 C -1.571790 -1.153792 0.229687 0
M  V30 20 C -1.418242 -0.161325 -0.719285 0
M  V30 21 C -2.399054 0.789898 -0.853680 0
M  V30 22 C -3.538246 0.824231 -0.100698 0
M  V30 23 C -3.696649 -0.178203 0.859535 0
M  V30 24 F -4.839206 -0.105638 1.585682 0
M  V30 25 C -2.717052 -1.145139 1.008556 0
M  V30 26 H 0.875036 -2.381359 4.865337 0
M  V30 27 H 1.880053 -2.514832 -0.419209 0
M  V30 28 H 2.508699 -1.825218 -2.620277 0
M  V30 29 H 2.789195 0.648629 -3.024009 0
M  V30 30 H 2.424965 2.240083 -1.243935 0
M  V30 31 H -0.704647 -3.105048 -0.021665 0
M  V30 32 H -0.509545 -0.216033 -1.298885 0
M  V30 33 H -2.165720 1.524442 -1.638893 0
M  V30 34 H -4.238076 1.626468 -0.304362 0
M  V30 35 H -2.995135 -1.851129 1.798360 0
M  V30 END ATOM
M  V30 BEGIN BOND
M  V30 1 2 1 2
M  V30 2 1 2 3
M  V30 3 1 3 4
M  V30 4 2 4 5
M  V30 5 1 4 6
M  V30 6 1 6 7
M  V30 7 2 7 8
M  V30 8 1 8 9
M  V30 9 2 9 10
M  V30 10 1 10 11
M  V30 11 2 11 12
M  V30 12 1 12 13
M  V30 13 1 13 14
M  V30 14 1 13 15
M  V30 15 1 13 16
M  V30 16 2 6 17
M  V30 17 1 17 18
M  V30 18 1 18 19
M  V30 19 2 19 20
M  V30 20 1 20 21
M  V30 21 2 21 22
M  V30 22 1 22 23
M  V30 23 1 23 24
M  V30 24 2 23 25
M  V30 25 1 17 2
M  V30 26 1 25 19
M  V30 27 1 12 7
M  V30 28 1 3 26
M  V30 29 1 8 27
M  V30 30 1 9 28
M  V30 31 1 10 29
M  V30 32 1 11 30
M  V30 33 1 18 31
M  V30 34 1 20 32
M  V30 35 1 21 33
M  V30 36 1 22 34
M  V30 37 1 25 35
M  V30 END BOND
M  V30 END CTAB
M  END
>  <Dataset>  (739) 
ChEMBL_Kinases

>  <Ligand_Instance>  (739) 
nan

>  <PDB_ID>  (739) 
nan

>  <Standardized_SMILES>  (739) 
O=C1NC(=O)C(c2ccccc2C(F)(F)F)=C1Nc1cccc(F)c1

>  <Name>  (739) 
nan

>  <Pocket>  (739) 
nan

>  <ATP_Site>  (739) 
nan

>  <Peripheral>  (739) 
nan

>  <Num_H_Atoms_ProtBoundConf>  (739) 
nan

>  <Num_Resolved_Atoms>  (739) 
nan

>  <Num_Not_Resolved_Atoms>  (739) 
nan

$$$$
CHEMBL1551913
     RDKit          3D

  0  0  0  0  0  0  0  0  0  0999 V3000
M  V30 BEGIN CTAB
M  V30 COUNTS 38 41 0 0 0
M  V30 BEGIN ATOM
M  V30 1 C 0.028058 -3.377948 3.318219 0
M  V30 2 C 1.393905 -3.149960 2.808539 0
M  V30 3 C 2.480372 -3.898064 3.280882 0
M  V30 4 C 3.788601 -3.770701 2.878673 0
M  V30 5 C 4.060555 -2.817542 1.919931 0
M  V30 6 C 3.017878 -2.037602 1.408087 0
M  V30 7 C 1.729813 -2.221650 1.859484 0
M  V30 8 C 0.638961 -1.414426 1.332244 0
M  V30 9 N 0.995945 -0.520759 0.411085 0
M  V30 10 C 0.100200 0.318936 -0.189258 0
M  V30 11 N 0.490443 1.269162 -1.162757 0
M  V30 12 C 0.025212 2.271637 -2.062234 0
M  V30 13 C 1.098678 3.132041 -2.767892 0
M  V30 14 C 0.098221 3.716393 -1.820015 0
M  V30 15 C -1.191516 0.144524 0.255265 0
M  V30 16 C -2.209951 0.924426 -0.245017 0
M  V30 17 C -3.536701 0.857885 0.117263 0
M  V30 18 C -3.906385 -0.075638 1.075982 0
M  V30 19 C -2.930191 -0.882151 1.612131 0
M  V30 20 C -1.626385 -0.757700 1.201074 0
M  V30 21 N -0.639487 -1.518020 1.705786 0
M  V30 22 H 0.083436 -4.188362 4.090241 0
M  V30 23 H -0.685986 -3.739240 2.553356 0
M  V30 24 H -0.314217 -2.470948 3.860096 0
M  V30 25 H 2.275311 -4.655993 4.040833 0
M  V30 26 H 4.558719 -4.379836 3.287952 0
M  V30 27 H 5.054625 -2.637334 1.535525 0
M  V30 28 H 3.260410 -1.291552 0.651285 0
M  V30 29 H 1.547087 1.222521 -1.276066 0
M  V30 30 H -0.739335 1.951068 -2.853390 0
M  V30 31 H 2.131711 3.056593 -2.326914 0
M  V30 32 H 1.036771 3.308380 -3.840317 0
M  V30 33 H -0.663010 4.376549 -2.277995 0
M  V30 34 H 0.426346 4.118522 -0.827245 0
M  V30 35 H -2.021477 1.682042 -0.981674 0
M  V30 36 H -4.308489 1.473310 -0.285252 0
M  V30 37 H -4.900301 -0.223536 1.438782 0
M  V30 38 H -3.173110 -1.616161 2.355491 0
M  V30 END ATOM
M  V30 BEGIN BOND
M  V30 1 1 1 2
M  V30 2 2 2 3
M  V30 3 1 3 4
M  V30 4 2 4 5
M  V30 5 1 5 6
M  V30 6 2 6 7
M  V30 7 1 7 8
M  V30 8 2 8 9
M  V30 9 1 9 10
M  V30 10 1 10 11
M  V30 11 1 11 12
M  V30 12 1 12 13
M  V30 13 1 13 14
M  V30 14 2 10 15
M  V30 15 1 15 16
M  V30 16 2 16 17
M  V30 17 1 17 18
M  V30 18 2 18 19
M  V30 19 1 19 20
M  V30 20 2 20 21
M  V30 21 1 7 2
M  V30 22 1 21 8
M  V30 23 1 14 12
M  V30 24 1 20 15
M  V30 25 1 1 22
M  V30 26 1 1 23
M  V30 27 1 1 24
M  V30 28 1 3 25
M  V30 29 1 4 26
M  V30 30 1 5 27
M  V30 31 1 6 28
M  V30 32 1 11 29
M  V30 33 1 12 30
M  V30 34 1 13 31
M  V30 35 1 13 32
M  V30 36 1 14 33
M  V30 37 1 14 34
M  V30 38 1 16 35
M  V30 39 1 17 36
M  V30 40 1 18 37
M  V30 41 1 19 38
M  V30 END BOND
M  V30 END CTAB
M  END
>  <Dataset>  (740) 
ChEMBL_Kinases

>  <Ligand_Instance>  (740) 
nan

>  <PDB_ID>  (740) 
nan

>  <Standardized_SMILES>  (740) 
Cc1ccccc1-c1nc(NC2CC2)c2ccccc2n1

>  <Name>  (740) 
nan

>  <Pocket>  (740) 
nan

>  <ATP_Site>  (740) 
nan

>  <Peripheral>  (740) 
nan

>  <Num_H_Atoms_ProtBoundConf>  (740) 
nan

>  <Num_Resolved_Atoms>  (740) 
nan

>  <Num_Not_Resolved_Atoms>  (740) 
nan

$$$$
CHEMBL4875258
     RDKit          3D

  0  0  0  0  0  0  0  0  0  0999 V3000
M  V30 BEGIN CTAB
M  V30 COUNTS 51 53 0 0 0
M  V30 BEGIN ATOM
M  V30 1 N 3.003611 -2.650055 4.897707 0
M  V30 2 C 2.735764 -2.176554 3.870361 0
M  V30 3 C 2.386606 -1.571758 2.603597 0
M  V30 4 C 3.431985 -1.173453 1.850740 0
M  V30 5 N 3.131497 -0.601564 0.663356 0
M  V30 6 C 1.864558 -0.438509 0.254244 0
M  V30 7 N 1.557764 0.183677 -0.970179 0
M  V30 8 C 1.216335 1.277557 -1.828373 0
M  V30 9 C 2.219179 2.356327 -1.703455 0
M  V30 10 C 3.278417 2.384987 -2.600718 0
M  V30 11 N 4.276939 3.284123 -2.587226 0
M  V30 12 C 4.305661 4.258783 -1.652693 0
M  V30 13 C 3.252559 4.228892 -0.763043 0
M  V30 14 C 2.183838 3.323320 -0.722050 0
M  V30 15 C 1.110639 3.438052 0.260625 0
M  V30 16 F 0.921182 2.367372 1.091796 0
M  V30 17 F 1.445910 4.500197 1.114499 0
M  V30 18 F -0.092207 3.850433 -0.314819 0
M  V30 19 C 0.852495 -0.871185 1.078056 0
M  V30 20 C 1.046003 -1.466700 2.307573 0
M  V30 21 N 0.010866 -1.885218 3.175725 0
M  V30 22 C -1.419449 -1.916103 3.125617 0
M  V30 23 C -2.039301 -3.005108 2.326908 0 CFG=1
M  V30 24 C -3.550016 -2.874119 2.400347 0
M  V30 25 C -4.168757 -2.495194 1.085013 0
M  V30 26 C -3.957598 -3.588203 0.075601 0 CFG=1
M  V30 27 O -4.134257 -3.121471 -1.226940 0
M  V30 28 C -2.558135 -4.181787 0.259333 0
M  V30 29 C -1.672937 -3.092878 0.888186 0
M  V30 30 H 4.440669 -1.291217 2.150843 0
M  V30 31 H 1.649235 -0.742664 -1.497156 0
M  V30 32 H 1.201648 0.961372 -2.892478 0
M  V30 33 H 0.205756 1.615884 -1.493035 0
M  V30 34 H 3.412276 1.667110 -3.424209 0
M  V30 35 H 5.053476 5.031756 -1.543798 0
M  V30 36 H 3.239302 5.008395 0.016289 0
M  V30 37 H -0.147669 -0.702971 0.711246 0
M  V30 38 H 0.398274 -2.277437 4.090629 0
M  V30 39 H -1.830288 -0.922117 2.788133 0
M  V30 40 H -1.823093 -2.006857 4.171504 0
M  V30 41 H -1.790505 -3.976923 2.821150 0
M  V30 42 H -3.817782 -2.095039 3.135680 0
M  V30 43 H -4.001202 -3.851667 2.689132 0
M  V30 44 H -5.279154 -2.469528 1.273732 0
M  V30 45 H -3.826243 -1.519202 0.683668 0
M  V30 46 H -4.688693 -4.411868 0.243776 0
M  V30 47 H -3.477037 -2.417105 -1.457506 0
M  V30 48 H -2.572528 -5.010444 0.979094 0
M  V30 49 H -2.177290 -4.514297 -0.719958 0
M  V30 50 H -0.617574 -3.370181 0.728222 0
M  V30 51 H -1.943024 -2.175567 0.309913 0
M  V30 END ATOM
M  V30 BEGIN BOND
M  V30 1 3 1 2
M  V30 2 1 2 3
M  V30 3 2 3 4
M  V30 4 1 4 5
M  V30 5 2 5 6
M  V30 6 1 6 7
M  V30 7 1 7 8
M  V30 8 1 8 9
M  V30 9 2 9 10
M  V30 10 1 10 11
M  V30 11 2 11 12
M  V30 12 1 12 13
M  V30 13 2 13 14
M  V30 14 1 14 15
M  V30 15 1 15 16
M  V30 16 1 15 17
M  V30 17 1 15 18
M  V30 18 1 6 19
M  V30 19 2 19 20
M  V30 20 1 20 21
M  V30 21 1 21 22
M  V30 22 1 22 23
M  V30 23 1 23 24
M  V30 24 1 24 25
M  V30 25 1 25 26
M  V30 26 1 26 27
M  V30 27 1 26 28
M  V30 28 1 28 29
M  V30 29 1 20 3
M  V30 30 1 29 23
M  V30 31 1 14 9
M  V30 32 1 4 30
M  V30 33 1 7 31
M  V30 34 1 8 32
M  V30 35 1 8 33
M  V30 36 1 10 34
M  V30 37 1 12 35
M  V30 38 1 13 36
M  V30 39 1 19 37
M  V30 40 1 21 38
M  V30 41 1 22 39
M  V30 42 1 22 40
M  V30 43 1 23 41 CFG=1
M  V30 44 1 24 42
M  V30 45 1 24 43
M  V30 46 1 25 44
M  V30 47 1 25 45
M  V30 48 1 26 46 CFG=1
M  V30 49 1 27 47
M  V30 50 1 28 48
M  V30 51 1 28 49
M  V30 52 1 29 50
M  V30 53 1 29 51
M  V30 END BOND
M  V30 END CTAB
M  END
>  <Dataset>  (741) 
ChEMBL_Kinases

>  <Ligand_Instance>  (741) 
nan

>  <PDB_ID>  (741) 
nan

>  <Standardized_SMILES>  (741) 
N#Cc1cnc(NCc2cnccc2C(F)(F)F)cc1NC[C@H]1CC[C@@H](O)CC1

>  <Name>  (741) 
nan

>  <Pocket>  (741) 
nan

>  <ATP_Site>  (741) 
nan

>  <Peripheral>  (741) 
nan

>  <Num_H_Atoms_ProtBoundConf>  (741) 
nan

>  <Num_Resolved_Atoms>  (741) 
nan

>  <Num_Not_Resolved_Atoms>  (741) 
nan

$$$$
CHEMBL4846578
     RDKit          3D

  0  0  0  0  0  0  0  0  0  0999 V3000
M  V30 BEGIN CTAB
M  V30 COUNTS 56 60 0 0 0
M  V30 BEGIN ATOM
M  V30 1 C 3.685613 2.189196 4.147775 0
M  V30 2 N 3.613448 1.136654 3.143470 0
M  V30 3 C 2.944053 0.012098 3.727450 0
M  V30 4 C 4.927836 0.879326 2.643241 0
M  V30 5 C 4.991330 -0.184356 1.574151 0
M  V30 6 N 4.169703 0.237549 0.439667 0
M  V30 7 C 2.863440 -0.026387 0.257555 0
M  V30 8 C 2.424361 0.545207 -0.943657 0
M  V30 9 C 1.028374 0.395051 -1.362552 0
M  V30 10 C 0.066084 0.319892 -0.380427 0
M  V30 11 C -1.276670 0.177856 -0.679265 0
M  V30 12 C -1.699215 0.106102 -1.980960 0
M  V30 13 C -3.049891 -0.032442 -2.274116 0
M  V30 14 N -4.029999 -0.106169 -1.242909 0
M  V30 15 C -4.300295 -0.995220 -0.162412 0
M  V30 16 C -5.280288 -0.645306 0.742097 0
M  V30 17 C -5.493518 -1.556464 1.753891 0
M  V30 18 N -4.828789 -2.715224 1.900686 0
M  V30 19 C -3.870326 -3.080894 1.035044 0
M  V30 20 C -3.109477 -4.322083 1.129850 0
M  V30 21 C -2.108980 -4.817740 0.319821 0
M  V30 22 C -1.719659 -6.040402 0.850329 0
M  V30 23 O -2.444948 -6.245226 1.900967 0
M  V30 24 C -3.276534 -5.275487 2.116183 0
M  V30 25 C -3.630308 -2.190982 0.008379 0
M  V30 26 C -3.382632 -0.090487 -3.610956 0
M  V30 27 C -2.435306 -0.016768 -4.624588 0
M  V30 28 N -1.150136 0.116228 -4.256058 0
M  V30 29 C -0.727792 0.182064 -2.984201 0
M  V30 30 C 0.620063 0.324674 -2.682970 0
M  V30 31 C 3.554154 1.157168 -1.448809 0
M  V30 32 N 4.578740 0.955452 -0.600405 0
M  V30 33 H 2.648329 2.436463 4.457939 0
M  V30 34 H 4.292885 1.854393 5.039104 0
M  V30 35 H 4.148420 3.070906 3.663993 0
M  V30 36 H 3.068349 -0.933207 3.198959 0
M  V30 37 H 3.177015 -0.117227 4.810476 0
M  V30 38 H 1.848330 0.270316 3.709096 0
M  V30 39 H 5.677555 0.714180 3.435712 0
M  V30 40 H 5.260925 1.831696 2.138465 0
M  V30 41 H 4.687460 -1.143299 1.989793 0
M  V30 42 H 6.039368 -0.199843 1.211498 0
M  V30 43 H 2.283540 -0.598651 0.962051 0
M  V30 44 H 0.377920 0.374856 0.664193 0
M  V30 45 H -1.958297 0.132619 0.158186 0
M  V30 46 H -4.618248 0.715363 -1.417032 0
M  V30 47 H -5.839838 0.276255 0.663211 0
M  V30 48 H -6.251905 -1.324499 2.486134 0
M  V30 49 H -1.799562 -4.228573 -0.540452 0
M  V30 50 H -0.926184 -6.527794 0.285304 0
M  V30 51 H -3.991124 -5.198613 2.922667 0
M  V30 52 H -2.876202 -2.409989 -0.729215 0
M  V30 53 H -4.422284 -0.198374 -3.905361 0
M  V30 54 H -2.705105 -0.062780 -5.677162 0
M  V30 55 H 1.379270 0.383921 -3.463103 0
M  V30 56 H 3.470451 1.683138 -2.397884 0
M  V30 END ATOM
M  V30 BEGIN BOND
M  V30 1 1 1 2
M  V30 2 1 2 3
M  V30 3 1 2 4
M  V30 4 1 4 5
M  V30 5 1 5 6
M  V30 6 1 6 7
M  V30 7 2 7 8
M  V30 8 1 8 9
M  V30 9 2 9 10
M  V30 10 1 10 11
M  V30 11 2 11 12
M  V30 12 1 12 13
M  V30 13 1 13 14
M  V30 14 1 14 15
M  V30 15 2 15 16
M  V30 16 1 16 17
M  V30 17 2 17 18
M  V30 18 1 18 19
M  V30 19 1 19 20
M  V30 20 1 20 21
M  V30 21 2 21 22
M  V30 22 1 22 23
M  V30 23 1 23 24
M  V30 24 2 19 25
M  V30 25 2 13 26
M  V30 26 1 26 27
M  V30 27 2 27 28
M  V30 28 1 28 29
M  V30 29 2 29 30
M  V30 30 1 8 31
M  V30 31 2 31 32
M  V30 32 1 32 6
M  V30 33 1 30 9
M  V30 34 1 29 12
M  V30 35 1 25 15
M  V30 36 2 24 20
M  V30 37 1 1 33
M  V30 38 1 1 34
M  V30 39 1 1 35
M  V30 40 1 3 36
M  V30 41 1 3 37
M  V30 42 1 3 38
M  V30 43 1 4 39
M  V30 44 1 4 40
M  V30 45 1 5 41
M  V30 46 1 5 42
M  V30 47 1 7 43
M  V30 48 1 10 44
M  V30 49 1 11 45
M  V30 50 1 14 46
M  V30 51 1 16 47
M  V30 52 1 17 48
M  V30 53 1 21 49
M  V30 54 1 22 50
M  V30 55 1 24 51
M  V30 56 1 25 52
M  V30 57 1 26 53
M  V30 58 1 27 54
M  V30 59 1 30 55
M  V30 60 1 31 56
M  V30 END BOND
M  V30 END CTAB
M  END
>  <Dataset>  (742) 
ChEMBL_Kinases

>  <Ligand_Instance>  (742) 
nan

>  <PDB_ID>  (742) 
nan

>  <Standardized_SMILES>  (742) 
CN(C)CCn1cc(-c2ccc3c(Nc4ccnc(-c5ccoc5)c4)ccnc3c2)cn1

>  <Name>  (742) 
nan

>  <Pocket>  (742) 
nan

>  <ATP_Site>  (742) 
nan

>  <Peripheral>  (742) 
nan

>  <Num_H_Atoms_ProtBoundConf>  (742) 
nan

>  <Num_Resolved_Atoms>  (742) 
nan

>  <Num_Not_Resolved_Atoms>  (742) 
nan

$$$$
CHEMBL4875241
     RDKit          3D

  0  0  0  0  0  0  0  0  0  0999 V3000
M  V30 BEGIN CTAB
M  V30 COUNTS 39 42 0 0 0
M  V30 BEGIN ATOM
M  V30 1 O 0.946595 -2.200213 4.743654 0
M  V30 2 S 1.255014 -3.283749 3.765068 0
M  V30 3 O 1.782161 -4.458894 4.562066 0
M  V30 4 N 2.456553 -2.783288 2.612645 0
M  V30 5 C 2.150536 -1.643698 1.818355 0
M  V30 6 C 2.446562 -1.783927 0.457844 0
M  V30 7 C 2.186503 -0.732207 -0.401386 0
M  V30 8 C 1.648086 0.458059 0.003914 0
M  V30 9 C 1.371826 1.570638 -0.898374 0
M  V30 10 N 2.169672 2.064381 -1.863630 0
M  V30 11 N 1.589230 3.087662 -2.493236 0
M  V30 12 C 0.371336 3.320688 -1.970358 0
M  V30 13 C -0.634533 4.231159 -2.230231 0
M  V30 14 C -1.817367 4.216384 -1.490159 0
M  V30 15 F -2.844321 5.079805 -1.691770 0
M  V30 16 C -1.956996 3.265430 -0.488361 0
M  V30 17 C -0.932882 2.369330 -0.253525 0
M  V30 18 C 0.247795 2.367360 -0.976141 0
M  V30 19 C 1.369049 0.560218 1.352780 0
M  V30 20 C 1.615155 -0.467757 2.238211 0
M  V30 21 C -0.229764 -3.726990 2.954011 0
M  V30 22 C -0.557644 -4.988907 2.495246 0
M  V30 23 C -1.779659 -5.149651 1.876746 0
M  V30 24 C -2.696177 -4.153385 1.681185 0
M  V30 25 N -2.356802 -2.928584 2.136487 0
M  V30 26 C -1.169159 -2.710327 2.752496 0
M  V30 27 H 3.357864 -3.315024 2.526994 0
M  V30 28 H 2.879291 -2.702799 0.048551 0
M  V30 29 H 2.426909 -0.875211 -1.441825 0
M  V30 30 H 1.967760 3.664736 -3.281453 0
M  V30 31 H -0.528729 4.966412 -3.003469 0
M  V30 32 H -2.870244 3.212583 0.122956 0
M  V30 33 H -1.093248 1.650613 0.537268 0
M  V30 34 H 0.942001 1.450254 1.793799 0
M  V30 35 H 1.395714 -0.390732 3.306363 0
M  V30 36 H 0.171090 -5.748990 2.658444 0
M  V30 37 H -2.010897 -6.145460 1.527772 0
M  V30 38 H -3.645612 -4.306165 1.193948 0
M  V30 39 H -1.035704 -1.680559 3.063228 0
M  V30 END ATOM
M  V30 BEGIN BOND
M  V30 1 2 1 2
M  V30 2 2 2 3
M  V30 3 1 2 4
M  V30 4 1 4 5
M  V30 5 2 5 6
M  V30 6 1 6 7
M  V30 7 2 7 8
M  V30 8 1 8 9
M  V30 9 2 9 10
M  V30 10 1 10 11
M  V30 11 1 11 12
M  V30 12 2 12 13
M  V30 13 1 13 14
M  V30 14 1 14 15
M  V30 15 2 14 16
M  V30 16 1 16 17
M  V30 17 2 17 18
M  V30 18 1 8 19
M  V30 19 2 19 20
M  V30 20 1 2 21
M  V30 21 2 21 22
M  V30 22 1 22 23
M  V30 23 2 23 24
M  V30 24 1 24 25
M  V30 25 2 25 26
M  V30 26 1 20 5
M  V30 27 1 26 21
M  V30 28 1 18 9
M  V30 29 1 18 12
M  V30 30 1 4 27
M  V30 31 1 6 28
M  V30 32 1 7 29
M  V30 33 1 11 30
M  V30 34 1 13 31
M  V30 35 1 16 32
M  V30 36 1 17 33
M  V30 37 1 19 34
M  V30 38 1 20 35
M  V30 39 1 22 36
M  V30 40 1 23 37
M  V30 41 1 24 38
M  V30 42 1 26 39
M  V30 END BOND
M  V30 END CTAB
M  END
>  <Dataset>  (743) 
ChEMBL_Kinases

>  <Ligand_Instance>  (743) 
nan

>  <PDB_ID>  (743) 
nan

>  <Standardized_SMILES>  (743) 
O=S(=O)(Nc1ccc(-c2n[nH]c3cc(F)ccc23)cc1)c1cccnc1

>  <Name>  (743) 
nan

>  <Pocket>  (743) 
nan

>  <ATP_Site>  (743) 
nan

>  <Peripheral>  (743) 
nan

>  <Num_H_Atoms_ProtBoundConf>  (743) 
nan

>  <Num_Resolved_Atoms>  (743) 
nan

>  <Num_Not_Resolved_Atoms>  (743) 
nan

$$$$
CHEMBL4846720
     RDKit          3D

  0  0  0  0  0  0  0  0  0  0999 V3000
M  V30 BEGIN CTAB
M  V30 COUNTS 63 67 0 0 0
M  V30 BEGIN ATOM
M  V30 1 C 2.319828 -0.163426 5.150053 0
M  V30 2 C 3.487213 -0.002357 4.229616 0
M  V30 3 C 4.414988 1.136040 4.622115 0
M  V30 4 O 4.278256 -1.165958 4.325482 0
M  V30 5 C 3.072907 0.227483 2.806729 0
M  V30 6 C 2.899845 -0.873761 1.972971 0
M  V30 7 C 2.514915 -0.659624 0.651701 0
M  V30 8 C 2.314220 0.645396 0.201630 0
M  V30 9 C 2.496304 1.710510 1.060094 0
M  V30 10 N 2.272592 3.010901 0.528192 0
M  V30 11 C 3.122227 4.039316 0.581967 0
M  V30 12 C 2.550457 5.134408 -0.042840 0
M  V30 13 F 3.029673 6.393247 -0.236127 0
M  V30 14 C 1.306191 4.726291 -0.483240 0
M  V30 15 C 0.266171 5.301910 -1.153084 0
M  V30 16 N -0.825024 4.604098 -1.427226 0
M  V30 17 C -1.024422 3.329832 -1.099655 0
M  V30 18 N -2.220695 2.659864 -1.430891 0
M  V30 19 C -2.591693 1.320706 -1.160927 0
M  V30 20 C -1.823663 0.387912 -0.505388 0
M  V30 21 C -2.176983 -0.916946 -0.237834 0
M  V30 22 C -3.419617 -1.335881 -0.665629 0
M  V30 23 N -3.806103 -2.682909 -0.399234 0
M  V30 24 C -3.505717 -3.680098 -1.339031 0
M  V30 25 O -2.896379 -3.393532 -2.418114 0
M  V30 26 C -3.843976 -5.142669 -1.206937 0
M  V30 27 C -3.323264 -5.793649 -2.446335 0
M  V30 28 C -1.924874 -6.331748 -2.305080 0
M  V30 29 O -1.876261 -7.082033 -1.145467 0
M  V30 30 C -1.841860 -6.155108 -0.080594 0
M  V30 31 C -3.236903 -5.603682 0.060636 0
M  V30 32 C -4.235580 -0.443929 -1.329558 0
M  V30 33 C -3.819804 0.848562 -1.564622 0
M  V30 34 N 0.016751 2.804284 -0.445759 0
M  V30 35 C 1.153782 3.428044 -0.126042 0
M  V30 36 N 2.872957 1.492520 2.351249 0
M  V30 37 H 2.365114 -1.107398 5.714421 0
M  V30 38 H 1.373084 -0.207236 4.545560 0
M  V30 39 H 2.311453 0.690587 5.848604 0
M  V30 40 H 3.810076 2.007302 4.908706 0
M  V30 41 H 5.048452 1.315949 3.712164 0
M  V30 42 H 5.043643 0.789788 5.478831 0
M  V30 43 H 4.674549 -1.338981 3.423457 0
M  V30 44 H 3.049940 -1.898988 2.299785 0
M  V30 45 H 2.367019 -1.494974 -0.039306 0
M  V30 46 H 2.016902 0.745742 -0.831860 0
M  V30 47 H 4.116655 4.052600 1.037105 0
M  V30 48 H 0.337733 6.343035 -1.462961 0
M  V30 49 H -2.938369 3.242476 -1.954153 0
M  V30 50 H -0.843973 0.665656 -0.150866 0
M  V30 51 H -1.517829 -1.595887 0.284700 0
M  V30 52 H -4.314713 -2.991383 0.476183 0
M  V30 53 H -4.951658 -5.185271 -1.148737 0
M  V30 54 H -3.980099 -6.659196 -2.694079 0
M  V30 55 H -3.337452 -5.128941 -3.334530 0
M  V30 56 H -1.633846 -6.889778 -3.203115 0
M  V30 57 H -1.197336 -5.491437 -2.196207 0
M  V30 58 H -1.151887 -5.346595 -0.388490 0
M  V30 59 H -1.510610 -6.692343 0.820814 0
M  V30 60 H -3.212161 -4.826571 0.852792 0
M  V30 61 H -3.845141 -6.445807 0.495756 0
M  V30 62 H -5.212040 -0.764926 -1.668297 0
M  V30 63 H -4.519432 1.505994 -2.098803 0
M  V30 END ATOM
M  V30 BEGIN BOND
M  V30 1 1 1 2
M  V30 2 1 2 3
M  V30 3 1 2 4
M  V30 4 1 2 5
M  V30 5 2 5 6
M  V30 6 1 6 7
M  V30 7 2 7 8
M  V30 8 1 8 9
M  V30 9 1 9 10
M  V30 10 1 10 11
M  V30 11 2 11 12
M  V30 12 1 12 13
M  V30 13 1 12 14
M  V30 14 2 14 15
M  V30 15 1 15 16
M  V30 16 2 16 17
M  V30 17 1 17 18
M  V30 18 1 18 19
M  V30 19 2 19 20
M  V30 20 1 20 21
M  V30 21 2 21 22
M  V30 22 1 22 23
M  V30 23 1 23 24
M  V30 24 2 24 25
M  V30 25 1 24 26
M  V30 26 1 26 27
M  V30 27 1 27 28
M  V30 28 1 28 29
M  V30 29 1 29 30
M  V30 30 1 30 31
M  V30 31 1 22 32
M  V30 32 2 32 33
M  V30 33 1 17 34
M  V30 34 2 34 35
M  V30 35 2 9 36
M  V30 36 1 36 5
M  V30 37 1 35 10
M  V30 38 1 35 14
M  V30 39 1 33 19
M  V30 40 1 31 26
M  V30 41 1 1 37
M  V30 42 1 1 38
M  V30 43 1 1 39
M  V30 44 1 3 40
M  V30 45 1 3 41
M  V30 46 1 3 42
M  V30 47 1 4 43
M  V30 48 1 6 44
M  V30 49 1 7 45
M  V30 50 1 8 46
M  V30 51 1 11 47
M  V30 52 1 15 48
M  V30 53 1 18 49
M  V30 54 1 20 50
M  V30 55 1 21 51
M  V30 56 1 23 52
M  V30 57 1 26 53
M  V30 58 1 27 54
M  V30 59 1 27 55
M  V30 60 1 28 56
M  V30 61 1 28 57
M  V30 62 1 30 58
M  V30 63 1 30 59
M  V30 64 1 31 60
M  V30 65 1 31 61
M  V30 66 1 32 62
M  V30 67 1 33 63
M  V30 END BOND
M  V30 END CTAB
M  END
>  <Dataset>  (744) 
ChEMBL_Kinases

>  <Ligand_Instance>  (744) 
nan

>  <PDB_ID>  (744) 
nan

>  <Standardized_SMILES>  (744) 
CC(C)(O)c1cccc(-n2cc(F)c3cnc(Nc4ccc(NC(=O)C5CCOCC5)cc4)nc32)n1

>  <Name>  (744) 
nan

>  <Pocket>  (744) 
nan

>  <ATP_Site>  (744) 
nan

>  <Peripheral>  (744) 
nan

>  <Num_H_Atoms_ProtBoundConf>  (744) 
nan

>  <Num_Resolved_Atoms>  (744) 
nan

>  <Num_Not_Resolved_Atoms>  (744) 
nan

$$$$
CHEMBL4845800
     RDKit          3D

  0  0  0  0  0  0  0  0  0  0999 V3000
M  V30 BEGIN CTAB
M  V30 COUNTS 46 49 0 0 0
M  V30 BEGIN ATOM
M  V30 1 C 1.675739 -2.305739 3.248812 0
M  V30 2 O 0.905781 -1.177775 2.997409 0
M  V30 3 C 1.100009 -0.223553 2.024748 0
M  V30 4 C 2.128147 -0.227958 1.108358 0
M  V30 5 C 2.260562 0.762158 0.163140 0
M  V30 6 C 3.306153 0.816030 -0.833146 0
M  V30 7 C 2.840968 1.072169 -2.125767 0
M  V30 8 C 3.619956 1.170000 -3.241205 0
M  V30 9 C 4.995061 0.993391 -3.034173 0
M  V30 10 Cl 6.113455 1.095469 -4.389216 0
M  V30 11 N 5.476150 0.744571 -1.801575 0
M  V30 12 C 4.671135 0.654876 -0.721906 0
M  V30 13 Cl 5.199540 0.338368 0.913039 0
M  V30 14 C 1.314430 1.786833 0.155912 0
M  V30 15 C 0.270282 1.804645 1.074885 0
M  V30 16 C 0.159920 0.784878 2.022640 0
M  V30 17 C -1.004782 0.918220 2.870134 0
M  V30 18 C -1.733216 -0.169435 2.954251 0
M  V30 19 N -1.763641 -1.508375 2.464982 0
M  V30 20 C -2.165619 -2.140785 1.261099 0
M  V30 21 C -3.421638 -2.746761 1.151481 0
M  V30 22 C -3.915302 -3.397029 0.012034 0
M  V30 23 C -3.065401 -3.419741 -1.063651 0
M  V30 24 C -1.814631 -2.836591 -1.009057 0
M  V30 25 C -1.031073 -2.940964 -2.217164 0
M  V30 26 N -0.417590 -3.020906 -3.194852 0
M  V30 27 C -1.362275 -2.209286 0.118103 0
M  V30 28 C -2.885510 0.086416 3.844755 0
M  V30 29 O -3.891136 -0.556664 4.288766 0
M  V30 30 N -2.805265 1.445860 4.312021 0
M  V30 31 C -1.616041 1.954579 3.689229 0
M  V30 32 O -1.025649 3.085048 3.718057 0
M  V30 33 H 1.180847 -3.157903 2.693094 0
M  V30 34 H 1.539578 -2.539931 4.346489 0
M  V30 35 H 2.730221 -2.248467 2.964271 0
M  V30 36 H 2.857543 -1.043851 1.135211 0
M  V30 37 H 1.780722 1.215397 -2.357399 0
M  V30 38 H 3.263505 1.362981 -4.233078 0
M  V30 39 H 1.401867 2.584297 -0.583992 0
M  V30 40 H -0.412282 2.648969 0.987905 0
M  V30 41 H -1.478085 -2.419759 2.922163 0
M  V30 42 H -4.038145 -2.692501 2.037056 0
M  V30 43 H -4.907973 -3.812128 0.104784 0
M  V30 44 H -3.444324 -3.922308 -1.938241 0
M  V30 45 H -0.383069 -1.763929 0.122329 0
M  V30 46 H -3.320630 2.110717 4.925166 0
M  V30 END ATOM
M  V30 BEGIN BOND
M  V30 1 1 1 2
M  V30 2 1 2 3
M  V30 3 2 3 4
M  V30 4 1 4 5
M  V30 5 1 5 6
M  V30 6 2 6 7
M  V30 7 1 7 8
M  V30 8 2 8 9
M  V30 9 1 9 10
M  V30 10 1 9 11
M  V30 11 2 11 12
M  V30 12 1 12 13
M  V30 13 2 5 14
M  V30 14 1 14 15
M  V30 15 2 15 16
M  V30 16 1 16 17
M  V30 17 2 17 18
M  V30 18 1 18 19
M  V30 19 1 19 20
M  V30 20 2 20 21
M  V30 21 1 21 22
M  V30 22 2 22 23
M  V30 23 1 23 24
M  V30 24 1 24 25
M  V30 25 3 25 26
M  V30 26 2 24 27
M  V30 27 1 18 28
M  V30 28 2 28 29
M  V30 29 1 28 30
M  V30 30 1 30 31
M  V30 31 2 31 32
M  V30 32 1 16 3
M  V30 33 1 31 17
M  V30 34 1 12 6
M  V30 35 1 27 20
M  V30 36 1 1 33
M  V30 37 1 1 34
M  V30 38 1 1 35
M  V30 39 1 4 36
M  V30 40 1 7 37
M  V30 41 1 8 38
M  V30 42 1 14 39
M  V30 43 1 15 40
M  V30 44 1 19 41
M  V30 45 1 21 42
M  V30 46 1 22 43
M  V30 47 1 23 44
M  V30 48 1 27 45
M  V30 49 1 30 46
M  V30 END BOND
M  V30 END CTAB
M  END
>  <Dataset>  (745) 
ChEMBL_Kinases

>  <Ligand_Instance>  (745) 
nan

>  <PDB_ID>  (745) 
nan

>  <Standardized_SMILES>  (745) 
COc1cc(-c2ccc(Cl)nc2Cl)ccc1C1=C(Nc2cccc(C#N)c2)C(=O)NC1=O

>  <Name>  (745) 
nan

>  <Pocket>  (745) 
nan

>  <ATP_Site>  (745) 
nan

>  <Peripheral>  (745) 
nan

>  <Num_H_Atoms_ProtBoundConf>  (745) 
nan

>  <Num_Resolved_Atoms>  (745) 
nan

>  <Num_Not_Resolved_Atoms>  (745) 
nan

$$$$
CHEMBL4849960
     RDKit          3D

  0  0  0  0  0  0  0  0  0  0999 V3000
M  V30 BEGIN CTAB
M  V30 COUNTS 58 63 0 0 0
M  V30 BEGIN ATOM
M  V30 1 C 3.262341 -4.669234 4.643830 0
M  V30 2 N 3.837401 -3.801462 3.625652 0
M  V30 3 C 3.223250 -2.740640 3.094427 0
M  V30 4 C 4.082283 -2.173556 2.167300 0
M  V30 5 N 3.724776 -1.012522 1.415468 0
M  V30 6 C 4.408289 0.130131 1.235403 0
M  V30 7 N 3.647645 0.912550 0.447680 0
M  V30 8 C 2.522765 0.291853 0.137962 0
M  V30 9 C 1.433031 0.694238 -0.644850 0
M  V30 10 N 1.457728 1.972550 -1.252010 0
M  V30 11 C 0.439962 2.569147 -2.088826 0
M  V30 12 C -0.866633 2.737772 -1.369200 0
M  V30 13 N -1.111040 3.879958 -0.658496 0
M  V30 14 C -2.335427 3.815843 -0.104688 0
M  V30 15 C -3.149812 4.583288 0.684677 0
M  V30 16 C -4.412159 4.209944 1.095996 0
M  V30 17 Cl -5.386607 5.261313 2.109789 0
M  V30 18 C -4.884285 2.962115 0.673913 0
M  V30 19 Cl -6.491822 2.455899 1.181668 0
M  V30 20 C -4.102494 2.145298 -0.125468 0
M  V30 21 C -2.866857 2.602990 -0.480143 0
M  V30 22 N -1.963994 1.969971 -1.242123 0
M  V30 23 N 0.421662 -0.183166 -0.769544 0
M  V30 24 C 0.467460 -1.402821 -0.158199 0
M  V30 25 N -0.585748 -2.361318 -0.269032 0
M  V30 26 C -0.501295 -3.664683 0.369145 0
M  V30 27 C -1.544920 -3.690753 1.471699 0
M  V30 28 O -2.739617 -3.113432 1.051784 0
M  V30 29 C -2.846429 -3.123130 -0.340902 0
M  V30 30 C -1.831384 -2.200438 -0.991825 0 CFG=2
M  V30 31 C -1.670567 -2.629157 -2.442249 0
M  V30 32 O -0.715535 -1.893096 -3.103365 0
M  V30 33 N 1.519807 -1.774664 0.589701 0
M  V30 34 C 2.557298 -0.939890 0.749186 0
M  V30 35 C 5.226116 -2.965942 2.193008 0
M  V30 36 N 5.050695 -3.955952 3.094258 0
M  V30 37 H 2.726871 -5.523652 4.206579 0
M  V30 38 H 2.627521 -4.026839 5.287609 0
M  V30 39 H 4.083880 -5.033501 5.312060 0
M  V30 40 H 2.234758 -2.402114 3.354186 0
M  V30 41 H 5.384146 0.286903 1.687696 0
M  V30 42 H 2.296940 2.573265 -1.091984 0
M  V30 43 H 0.752716 3.545740 -2.499296 0
M  V30 44 H 0.294591 1.920887 -2.997432 0
M  V30 45 H -2.756404 5.559442 1.003315 0
M  V30 46 H -4.482256 1.164974 -0.452818 0
M  V30 47 H -1.888433 1.070258 -1.748470 0
M  V30 48 H 0.518960 -3.827859 0.773222 0
M  V30 49 H -0.762644 -4.432898 -0.367652 0
M  V30 50 H -1.119727 -3.121227 2.325820 0
M  V30 51 H -1.705234 -4.730776 1.838572 0
M  V30 52 H -2.742301 -4.155144 -0.731739 0
M  V30 53 H -3.848331 -2.702544 -0.571331 0
M  V30 54 H -2.182970 -1.170161 -1.015458 0
M  V30 55 H -2.644204 -2.442423 -2.940554 0
M  V30 56 H -1.357093 -3.703809 -2.499328 0
M  V30 57 H -1.018210 -1.067723 -3.518581 0
M  V30 58 H 6.056146 -2.717657 1.541223 0
M  V30 END ATOM
M  V30 BEGIN BOND
M  V30 1 1 1 2
M  V30 2 1 2 3
M  V30 3 2 3 4
M  V30 4 1 4 5
M  V30 5 1 5 6
M  V30 6 2 6 7
M  V30 7 1 7 8
M  V30 8 2 8 9
M  V30 9 1 9 10
M  V30 10 1 10 11
M  V30 11 1 11 12
M  V30 12 2 12 13
M  V30 13 1 13 14
M  V30 14 2 14 15
M  V30 15 1 15 16
M  V30 16 1 16 17
M  V30 17 2 16 18
M  V30 18 1 18 19
M  V30 19 1 18 20
M  V30 20 2 20 21
M  V30 21 1 21 22
M  V30 22 1 9 23
M  V30 23 2 23 24
M  V30 24 1 24 25
M  V30 25 1 25 26
M  V30 26 1 26 27
M  V30 27 1 27 28
M  V30 28 1 28 29
M  V30 29 1 29 30
M  V30 30 1 30 31
M  V30 31 1 31 32
M  V30 32 1 24 33
M  V30 33 2 33 34
M  V30 34 1 4 35
M  V30 35 2 35 36
M  V30 36 1 36 2
M  V30 37 1 34 5
M  V30 38 1 34 8
M  V30 39 1 22 12
M  V30 40 1 30 25
M  V30 41 1 21 14
M  V30 42 1 1 37
M  V30 43 1 1 38
M  V30 44 1 1 39
M  V30 45 1 3 40
M  V30 46 1 6 41
M  V30 47 1 10 42
M  V30 48 1 11 43
M  V30 49 1 11 44
M  V30 50 1 15 45
M  V30 51 1 20 46
M  V30 52 1 22 47
M  V30 53 1 26 48
M  V30 54 1 26 49
M  V30 55 1 27 50
M  V30 56 1 27 51
M  V30 57 1 29 52
M  V30 58 1 29 53
M  V30 59 1 30 54 CFG=3
M  V30 60 1 31 55
M  V30 61 1 31 56
M  V30 62 1 32 57
M  V30 63 1 35 58
M  V30 END BOND
M  V30 END CTAB
M  END
>  <Dataset>  (746) 
ChEMBL_Kinases

>  <Ligand_Instance>  (746) 
nan

>  <PDB_ID>  (746) 
nan

>  <Standardized_SMILES>  (746) 
Cn1cc(-n2cnc3c(NCc4nc5cc(Cl)c(Cl)cc5[nH]4)nc(N4CCOC[C@@H]4CO)nc32)cn1

>  <Name>  (746) 
nan

>  <Pocket>  (746) 
nan

>  <ATP_Site>  (746) 
nan

>  <Peripheral>  (746) 
nan

>  <Num_H_Atoms_ProtBoundConf>  (746) 
nan

>  <Num_Resolved_Atoms>  (746) 
nan

>  <Num_Not_Resolved_Atoms>  (746) 
nan

$$$$
CHEMBL4873015
     RDKit          3D

  0  0  0  0  0  0  0  0  0  0999 V3000
M  V30 BEGIN CTAB
M  V30 COUNTS 48 50 0 0 0
M  V30 BEGIN ATOM
M  V30 1 C 0.632738 -3.056333 1.561974 0
M  V30 2 O 1.087128 -2.872058 0.234396 0
M  V30 3 C 2.365557 -2.394706 -0.044011 0
M  V30 4 N 3.302155 -2.070357 0.858480 0
M  V30 5 C 4.512802 -1.617815 0.558785 0
M  V30 6 N 4.811026 -1.478035 -0.732484 0
M  V30 7 C 3.911443 -1.787509 -1.665958 0
M  V30 8 C 2.622880 -2.269397 -1.387258 0
M  V30 9 C 1.810451 -2.542475 -2.576521 0
M  V30 10 N 0.801449 -1.558245 -2.865016 0
M  V30 11 C -0.405260 -0.967054 -2.427542 0
M  V30 12 C -0.577027 -0.444498 -1.162833 0
M  V30 13 C -1.732696 0.131609 -0.681383 0
M  V30 14 N -1.979333 0.627495 0.622571 0
M  V30 15 C -1.323417 0.674814 1.860492 0 CFG=1
M  V30 16 C 0.047457 1.271343 1.937808 0
M  V30 17 C 0.476570 1.115640 3.406712 0
M  V30 18 C -0.471212 0.303088 4.228833 0 CFG=1
M  V30 19 O -0.028138 0.461985 5.568016 0
M  V30 20 C -1.896974 0.768496 4.227500 0
M  V30 21 C -2.147655 1.476734 2.888867 0
M  V30 22 C -2.741864 0.135568 -1.632602 0
M  V30 23 C -4.032527 0.692021 -1.294898 0
M  V30 24 N -5.078454 1.130223 -1.004998 0
M  V30 25 C -2.638332 -0.364471 -2.899488 0
M  V30 26 N -1.463350 -0.898075 -3.239269 0
M  V30 27 H -0.444697 -3.270468 1.580367 0
M  V30 28 H 1.165648 -3.892623 2.037381 0
M  V30 29 H 0.809871 -2.106478 2.128598 0
M  V30 30 H 5.116114 -1.416405 1.430219 0
M  V30 31 H 4.265180 -1.635543 -2.675998 0
M  V30 32 H 1.347905 -3.557494 -2.413733 0
M  V30 33 H 2.455763 -2.703347 -3.485051 0
M  V30 34 H 1.034536 -1.026690 -3.758198 0
M  V30 35 H 0.266692 -0.474447 -0.516065 0
M  V30 36 H -2.916661 1.099217 0.705860 0
M  V30 37 H -1.201172 -0.380720 2.270035 0
M  V30 38 H 0.054133 2.380565 1.751916 0
M  V30 39 H 0.818633 0.775115 1.342215 0
M  V30 40 H 1.471120 0.589235 3.480859 0
M  V30 41 H 0.606430 2.109769 3.902015 0
M  V30 42 H -0.357982 -0.807631 4.062823 0
M  V30 43 H -0.448369 -0.296357 6.087190 0
M  V30 44 H -2.165344 1.399431 5.079531 0
M  V30 45 H -2.592007 -0.129189 4.201287 0
M  V30 46 H -3.207569 1.519469 2.623659 0
M  V30 47 H -1.725104 2.525359 2.931805 0
M  V30 48 H -3.474509 -0.335969 -3.612161 0
M  V30 END ATOM
M  V30 BEGIN BOND
M  V30 1 1 1 2
M  V30 2 1 2 3
M  V30 3 2 3 4
M  V30 4 1 4 5
M  V30 5 2 5 6
M  V30 6 1 6 7
M  V30 7 2 7 8
M  V30 8 1 8 9
M  V30 9 1 9 10
M  V30 10 1 10 11
M  V30 11 2 11 12
M  V30 12 1 12 13
M  V30 13 1 13 14
M  V30 14 1 14 15
M  V30 15 1 15 16
M  V30 16 1 16 17
M  V30 17 1 17 18
M  V30 18 1 18 19
M  V30 19 1 18 20
M  V30 20 1 20 21
M  V30 21 2 13 22
M  V30 22 1 22 23
M  V30 23 3 23 24
M  V30 24 1 22 25
M  V30 25 2 25 26
M  V30 26 1 8 3
M  V30 27 1 26 11
M  V30 28 1 21 15
M  V30 29 1 1 27
M  V30 30 1 1 28
M  V30 31 1 1 29
M  V30 32 1 5 30
M  V30 33 1 7 31
M  V30 34 1 9 32
M  V30 35 1 9 33
M  V30 36 1 10 34
M  V30 37 1 12 35
M  V30 38 1 14 36
M  V30 39 1 15 37 CFG=1
M  V30 40 1 16 38
M  V30 41 1 16 39
M  V30 42 1 17 40
M  V30 43 1 17 41
M  V30 44 1 18 42 CFG=3
M  V30 45 1 19 43
M  V30 46 1 20 44
M  V30 47 1 20 45
M  V30 48 1 21 46
M  V30 49 1 21 47
M  V30 50 1 25 48
M  V30 END BOND
M  V30 END CTAB
M  END
>  <Dataset>  (747) 
ChEMBL_Kinases

>  <Ligand_Instance>  (747) 
nan

>  <PDB_ID>  (747) 
nan

>  <Standardized_SMILES>  (747) 
COc1ncncc1CNc1cc(N[C@H]2CC[C@@H](O)CC2)c(C#N)cn1

>  <Name>  (747) 
nan

>  <Pocket>  (747) 
nan

>  <ATP_Site>  (747) 
nan

>  <Peripheral>  (747) 
nan

>  <Num_H_Atoms_ProtBoundConf>  (747) 
nan

>  <Num_Resolved_Atoms>  (747) 
nan

>  <Num_Not_Resolved_Atoms>  (747) 
nan

$$$$
CHEMBL4872952
     RDKit          3D

  0  0  0  0  0  0  0  0  0  0999 V3000
M  V30 BEGIN CTAB
M  V30 COUNTS 45 48 0 0 0
M  V30 BEGIN ATOM
M  V30 1 C -1.605513 -3.472313 2.417324 0
M  V30 2 C -1.629499 -3.833912 0.959342 0
M  V30 3 N -2.051052 -4.978667 0.398958 0
M  V30 4 N -1.918189 -4.928844 -0.918883 0
M  V30 5 C -1.394270 -3.706269 -1.184347 0
M  V30 6 C -1.058664 -3.143295 -2.412219 0
M  V30 7 C -0.538267 -1.874834 -2.415623 0
M  V30 8 C -0.319005 -1.109525 -1.307710 0
M  V30 9 C 0.234329 0.238721 -1.316021 0
M  V30 10 C 0.585992 0.856055 -2.479811 0
M  V30 11 N 1.086949 2.083504 -2.459084 0
M  V30 12 C 1.243665 2.710449 -1.280772 0
M  V30 13 C 0.904184 2.133133 -0.067224 0
M  V30 14 N 1.083342 2.822649 1.149537 0
M  V30 15 C 0.750587 2.277605 2.441665 0 CFG=1
M  V30 16 C -0.726479 1.957079 2.480964 0
M  V30 17 O -1.448512 3.125064 2.259877 0
M  V30 18 C 1.489462 0.976682 2.593699 0
M  V30 19 C 1.023455 -0.231943 3.064966 0
M  V30 20 C 1.897134 -1.296010 3.112226 0
M  V30 21 C 3.210111 -1.192975 2.707486 0
M  V30 22 C 3.677062 0.007819 2.238139 0
M  V30 23 F 4.964475 0.061026 1.854649 0
M  V30 24 C 2.813409 1.080810 2.185509 0
M  V30 25 N 0.407942 0.901974 -0.161457 0
M  V30 26 C -0.665583 -1.703258 -0.099213 0
M  V30 27 C -1.193343 -2.975773 -0.028812 0
M  V30 28 H -0.672670 -3.860249 2.897868 0
M  V30 29 H -1.586983 -2.385304 2.548053 0
M  V30 30 H -2.463992 -3.920691 2.937752 0
M  V30 31 H -2.155524 -5.656785 -1.635383 0
M  V30 32 H -1.210536 -3.699530 -3.305251 0
M  V30 33 H -0.294293 -1.479681 -3.376357 0
M  V30 34 H 0.481267 0.401641 -3.438322 0
M  V30 35 H 1.654856 3.713498 -1.285019 0
M  V30 36 H 1.482501 3.791498 1.121022 0
M  V30 37 H 1.019931 2.947755 3.257549 0
M  V30 38 H -0.987363 1.581663 3.503398 0
M  V30 39 H -0.937529 1.149998 1.781121 0
M  V30 40 H -2.319328 3.023486 2.700128 0
M  V30 41 H -0.009378 -0.200750 3.351931 0
M  V30 42 H 1.477447 -2.230406 3.493561 0
M  V30 43 H 3.798520 -2.092728 2.790504 0
M  V30 44 H 3.280277 1.987906 1.798300 0
M  V30 45 H -0.552093 -1.229275 0.846125 0
M  V30 END ATOM
M  V30 BEGIN BOND
M  V30 1 1 1 2
M  V30 2 2 2 3
M  V30 3 1 3 4
M  V30 4 1 4 5
M  V30 5 2 5 6
M  V30 6 1 6 7
M  V30 7 2 7 8
M  V30 8 1 8 9
M  V30 9 2 9 10
M  V30 10 1 10 11
M  V30 11 2 11 12
M  V30 12 1 12 13
M  V30 13 1 13 14
M  V30 14 1 14 15
M  V30 15 1 15 16
M  V30 16 1 16 17
M  V30 17 1 15 18
M  V30 18 2 18 19
M  V30 19 1 19 20
M  V30 20 2 20 21
M  V30 21 1 21 22
M  V30 22 1 22 23
M  V30 23 2 22 24
M  V30 24 2 13 25
M  V30 25 1 8 26
M  V30 26 2 26 27
M  V30 27 1 27 2
M  V30 28 1 27 5
M  V30 29 1 25 9
M  V30 30 1 24 18
M  V30 31 1 1 28
M  V30 32 1 1 29
M  V30 33 1 1 30
M  V30 34 1 4 31
M  V30 35 1 6 32
M  V30 36 1 7 33
M  V30 37 1 10 34
M  V30 38 1 12 35
M  V30 39 1 14 36
M  V30 40 1 15 37 CFG=1
M  V30 41 1 16 38
M  V30 42 1 16 39
M  V30 43 1 17 40
M  V30 44 1 19 41
M  V30 45 1 20 42
M  V30 46 1 21 43
M  V30 47 1 24 44
M  V30 48 1 26 45
M  V30 END BOND
M  V30 END CTAB
M  END
>  <Dataset>  (748) 
ChEMBL_Kinases

>  <Ligand_Instance>  (748) 
nan

>  <PDB_ID>  (748) 
nan

>  <Standardized_SMILES>  (748) 
Cc1n[nH]c2ccc(-c3cncc(N[C@@H](CO)c4cccc(F)c4)n3)cc12

>  <Name>  (748) 
nan

>  <Pocket>  (748) 
nan

>  <ATP_Site>  (748) 
nan

>  <Peripheral>  (748) 
nan

>  <Num_H_Atoms_ProtBoundConf>  (748) 
nan

>  <Num_Resolved_Atoms>  (748) 
nan

>  <Num_Not_Resolved_Atoms>  (748) 
nan

$$$$
CHEMBL4872884
     RDKit          3D

  0  0  0  0  0  0  0  0  0  0999 V3000
M  V30 BEGIN CTAB
M  V30 COUNTS 51 55 0 0 0
M  V30 BEGIN ATOM
M  V30 1 C 4.667705 -5.581381 3.802857 0
M  V30 2 S 5.515413 -4.753021 2.475651 0
M  V30 3 O 6.683379 -3.957165 3.030307 0
M  V30 4 O 6.010205 -5.802492 1.515571 0
M  V30 5 C 4.405385 -3.663304 1.699862 0
M  V30 6 C 4.243619 -2.345496 2.101344 0
M  V30 7 C 3.341141 -1.498364 1.451966 0
M  V30 8 C 2.597176 -1.991650 0.387413 0
M  V30 9 C 1.680599 -1.030988 -0.227716 0
M  V30 10 C 1.105012 -0.051733 0.561549 0
M  V30 11 C 0.243999 0.838841 -0.054777 0
M  V30 12 C -0.078533 0.817485 -1.394913 0
M  V30 13 C -0.958301 1.773183 -1.903445 0
M  V30 14 N -1.554272 2.785493 -1.102328 0
M  V30 15 C -2.442041 2.780931 0.028780 0
M  V30 16 C -2.683321 3.994727 0.634776 0
M  V30 17 C -3.544110 3.971087 1.709347 0
M  V30 18 N -4.115133 2.829572 2.141167 0
M  V30 19 C -3.879309 1.645700 1.549432 0
M  V30 20 C -4.516768 0.423608 2.043023 0
M  V30 21 C -4.401075 -0.884390 1.570966 0
M  V30 22 C -5.216727 -1.665389 2.398285 0
M  V30 23 O -5.785829 -0.890648 3.305447 0
M  V30 24 C -5.383284 0.360790 3.113636 0
M  V30 25 C -3.023664 1.587993 0.461008 0
M  V30 26 C -1.233054 1.691197 -3.275228 0
M  V30 27 C -0.635054 0.692616 -4.038585 0
M  V30 28 N 0.201482 -0.190280 -3.470416 0
M  V30 29 C 0.507866 -0.167511 -2.161257 0
M  V30 30 C 1.377636 -1.078615 -1.574801 0
M  V30 31 C 2.746677 -3.304042 -0.025552 0
M  V30 32 C 3.645871 -4.110983 0.637894 0
M  V30 33 H 3.717033 -5.980290 3.361191 0
M  V30 34 H 5.236362 -6.437616 4.196169 0
M  V30 35 H 4.378326 -4.894928 4.608149 0
M  V30 36 H 4.849762 -2.040258 2.925949 0
M  V30 37 H 3.297049 -0.492005 1.848921 0
M  V30 38 H 1.330613 0.003820 1.626124 0
M  V30 39 H -0.166868 1.581908 0.613236 0
M  V30 40 H -1.204882 3.656546 -1.510761 0
M  V30 41 H -2.239138 4.917742 0.307883 0
M  V30 42 H -3.748136 4.913113 2.200586 0
M  V30 43 H -3.799075 -1.185825 0.740649 0
M  V30 44 H -5.313450 -2.745874 2.249389 0
M  V30 45 H -5.726224 1.184971 3.749594 0
M  V30 46 H -2.801557 0.666190 -0.048096 0
M  V30 47 H -1.908521 2.418740 -3.688931 0
M  V30 48 H -0.894112 0.691262 -5.089271 0
M  V30 49 H 1.810549 -1.828134 -2.211224 0
M  V30 50 H 2.139566 -3.629013 -0.859736 0
M  V30 51 H 3.767716 -5.152832 0.313577 0
M  V30 END ATOM
M  V30 BEGIN BOND
M  V30 1 1 1 2
M  V30 2 2 2 3
M  V30 3 2 2 4
M  V30 4 1 2 5
M  V30 5 2 5 6
M  V30 6 1 6 7
M  V30 7 2 7 8
M  V30 8 1 8 9
M  V30 9 2 9 10
M  V30 10 1 10 11
M  V30 11 2 11 12
M  V30 12 1 12 13
M  V30 13 1 13 14
M  V30 14 1 14 15
M  V30 15 2 15 16
M  V30 16 1 16 17
M  V30 17 2 17 18
M  V30 18 1 18 19
M  V30 19 1 19 20
M  V30 20 1 20 21
M  V30 21 2 21 22
M  V30 22 1 22 23
M  V30 23 1 23 24
M  V30 24 2 19 25
M  V30 25 2 13 26
M  V30 26 1 26 27
M  V30 27 2 27 28
M  V30 28 1 28 29
M  V30 29 2 29 30
M  V30 30 1 8 31
M  V30 31 2 31 32
M  V30 32 1 32 5
M  V30 33 1 30 9
M  V30 34 1 29 12
M  V30 35 1 25 15
M  V30 36 2 24 20
M  V30 37 1 1 33
M  V30 38 1 1 34
M  V30 39 1 1 35
M  V30 40 1 6 36
M  V30 41 1 7 37
M  V30 42 1 10 38
M  V30 43 1 11 39
M  V30 44 1 14 40
M  V30 45 1 16 41
M  V30 46 1 17 42
M  V30 47 1 21 43
M  V30 48 1 22 44
M  V30 49 1 24 45
M  V30 50 1 25 46
M  V30 51 1 26 47
M  V30 52 1 27 48
M  V30 53 1 30 49
M  V30 54 1 31 50
M  V30 55 1 32 51
M  V30 END BOND
M  V30 END CTAB
M  END
>  <Dataset>  (749) 
ChEMBL_Kinases

>  <Ligand_Instance>  (749) 
nan

>  <PDB_ID>  (749) 
nan

>  <Standardized_SMILES>  (749) 
CS(=O)(=O)c1ccc(-c2ccc3c(Nc4ccnc(-c5ccoc5)c4)ccnc3c2)cc1

>  <Name>  (749) 
nan

>  <Pocket>  (749) 
nan

>  <ATP_Site>  (749) 
nan

>  <Peripheral>  (749) 
nan

>  <Num_H_Atoms_ProtBoundConf>  (749) 
nan

>  <Num_Resolved_Atoms>  (749) 
nan

>  <Num_Not_Resolved_Atoms>  (749) 
nan

$$$$
CHEMBL4872723
     RDKit          3D

  0  0  0  0  0  0  0  0  0  0999 V3000
M  V30 BEGIN CTAB
M  V30 COUNTS 40 43 0 0 0
M  V30 BEGIN ATOM
M  V30 1 O 0.337303 -3.566585 -2.077132 0
M  V30 2 S 1.036685 -2.237495 -2.124111 0
M  V30 3 O 1.088326 -1.777270 -3.549190 0
M  V30 4 N 2.611849 -2.397212 -1.439665 0
M  V30 5 C 3.372408 -1.199419 -1.400564 0
M  V30 6 C 4.005345 -1.023548 -0.167525 0
M  V30 7 C 4.793345 0.095211 0.051754 0
M  V30 8 C 4.978865 1.066661 -0.932065 0
M  V30 9 C 4.335055 0.857287 -2.141711 0
M  V30 10 C 3.543101 -0.253454 -2.382027 0
M  V30 11 C 0.064728 -1.114940 -1.177898 0
M  V30 12 C 0.128436 0.214555 -1.553024 0
M  V30 13 C -0.589626 1.204143 -0.889728 0
M  V30 14 C -1.393078 0.822371 0.184737 0
M  V30 15 C -1.448272 -0.507224 0.549408 0
M  V30 16 C -2.254444 -1.031513 1.659074 0
M  V30 17 N -3.057092 -2.119862 1.721588 0
M  V30 18 N -3.593074 -2.214636 2.926508 0
M  V30 19 C -3.167861 -1.200203 3.699283 0
M  V30 20 C -3.454013 -0.884919 5.016007 0
M  V30 21 C -2.884987 0.228065 5.600092 0
M  V30 22 F -3.080320 0.649338 6.878170 0
M  V30 23 C -2.022473 1.015212 4.829160 0
M  V30 24 C -1.777237 0.656088 3.537039 0
M  V30 25 C -2.318435 -0.436408 2.919045 0
M  V30 26 C -0.735641 -1.511930 -0.103834 0
M  V30 27 H 2.981666 -3.307266 -1.079543 0
M  V30 28 H 3.942559 -1.709266 0.687430 0
M  V30 29 H 5.295788 0.253341 1.003487 0
M  V30 30 H 5.585765 1.950128 -0.795114 0
M  V30 31 H 4.437585 1.576845 -2.952555 0
M  V30 32 H 3.025632 -0.467553 -3.287305 0
M  V30 33 H 0.748438 0.529038 -2.386581 0
M  V30 34 H -0.566180 2.250874 -1.152191 0
M  V30 35 H -1.983016 1.528526 0.753524 0
M  V30 36 H -4.255439 -2.965849 3.248494 0
M  V30 37 H -4.113903 -1.460281 5.655285 0
M  V30 38 H -1.558818 1.897262 5.259382 0
M  V30 39 H -1.106298 1.288707 2.974677 0
M  V30 40 H -0.749189 -2.545264 0.143448 0
M  V30 END ATOM
M  V30 BEGIN BOND
M  V30 1 2 1 2
M  V30 2 2 2 3
M  V30 3 1 2 4
M  V30 4 1 4 5
M  V30 5 2 5 6
M  V30 6 1 6 7
M  V30 7 2 7 8
M  V30 8 1 8 9
M  V30 9 2 9 10
M  V30 10 1 2 11
M  V30 11 2 11 12
M  V30 12 1 12 13
M  V30 13 2 13 14
M  V30 14 1 14 15
M  V30 15 1 15 16
M  V30 16 2 16 17
M  V30 17 1 17 18
M  V30 18 1 18 19
M  V30 19 2 19 20
M  V30 20 1 20 21
M  V30 21 1 21 22
M  V30 22 2 21 23
M  V30 23 1 23 24
M  V30 24 2 24 25
M  V30 25 2 15 26
M  V30 26 1 10 5
M  V30 27 1 26 11
M  V30 28 1 25 16
M  V30 29 1 25 19
M  V30 30 1 4 27
M  V30 31 1 6 28
M  V30 32 1 7 29
M  V30 33 1 8 30
M  V30 34 1 9 31
M  V30 35 1 10 32
M  V30 36 1 12 33
M  V30 37 1 13 34
M  V30 38 1 14 35
M  V30 39 1 18 36
M  V30 40 1 20 37
M  V30 41 1 23 38
M  V30 42 1 24 39
M  V30 43 1 26 40
M  V30 END BOND
M  V30 END CTAB
M  END
>  <Dataset>  (750) 
ChEMBL_Kinases

>  <Ligand_Instance>  (750) 
nan

>  <PDB_ID>  (750) 
nan

>  <Standardized_SMILES>  (750) 
O=S(=O)(Nc1ccccc1)c1cccc(-c2n[nH]c3cc(F)ccc23)c1

>  <Name>  (750) 
nan

>  <Pocket>  (750) 
nan

>  <ATP_Site>  (750) 
nan

>  <Peripheral>  (750) 
nan

>  <Num_H_Atoms_ProtBoundConf>  (750) 
nan

>  <Num_Resolved_Atoms>  (750) 
nan

>  <Num_Not_Resolved_Atoms>  (750) 
nan

$$$$
CHEMBL4872717
     RDKit          3D

  0  0  0  0  0  0  0  0  0  0999 V3000
M  V30 BEGIN CTAB
M  V30 COUNTS 48 50 0 0 0
M  V30 BEGIN ATOM
M  V30 1 N 2.198943 -5.112872 3.732741 0
M  V30 2 C 2.206634 -4.121554 3.123647 0
M  V30 3 C 2.241014 -2.883879 2.363224 0
M  V30 4 C 3.449651 -2.300610 2.095527 0
M  V30 5 N 3.505709 -1.164116 1.399198 0
M  V30 6 C 2.385621 -0.555947 0.939347 0
M  V30 7 N 2.447876 0.667001 0.186949 0
M  V30 8 C 1.254972 1.335603 -0.313416 0
M  V30 9 C 1.571633 2.590391 -1.040438 0
M  V30 10 C 1.556179 2.582833 -2.436269 0
M  V30 11 N 1.848716 3.700346 -3.119413 0
M  V30 12 C 2.162830 4.851980 -2.499568 0
M  V30 13 C 2.168632 4.824972 -1.118748 0
M  V30 14 C 1.878626 3.713197 -0.322359 0
M  V30 15 C 1.910423 3.814388 1.153218 0
M  V30 16 F 2.797666 2.978235 1.762838 0
M  V30 17 F 2.299610 5.114108 1.501824 0
M  V30 18 F 0.616291 3.698158 1.647812 0
M  V30 19 C 1.203472 -1.176010 1.231807 0
M  V30 20 C 1.026627 -2.344043 1.938073 0
M  V30 21 N -0.226217 -2.946706 2.218324 0
M  V30 22 C -1.549258 -2.499044 1.828289 0 CFG=1
M  V30 23 C -1.610817 -2.513613 0.321113 0
M  V30 24 C -2.883242 -3.187585 -0.170483 0
M  V30 25 C -4.000292 -2.584135 0.677181 0 CFG=1
M  V30 26 O -5.259374 -2.803183 0.126953 0
M  V30 27 C -3.953985 -3.287058 2.009622 0
M  V30 28 C -2.552429 -3.383434 2.477682 0
M  V30 29 H 4.336334 -2.794682 2.467999 0
M  V30 30 H 3.401773 1.053653 0.010829 0
M  V30 31 H 0.518227 1.514888 0.493949 0
M  V30 32 H 0.755075 0.620797 -1.009527 0
M  V30 33 H 1.310346 1.683671 -2.987184 0
M  V30 34 H 2.408647 5.787360 -2.995471 0
M  V30 35 H 2.422576 5.754524 -0.585903 0
M  V30 36 H 0.335384 -0.658388 0.851820 0
M  V30 37 H -0.136377 -3.833900 2.785827 0
M  V30 38 H -1.641901 -1.447687 2.230873 0
M  V30 39 H -0.702878 -2.926786 -0.134129 0
M  V30 40 H -1.706020 -1.459747 -0.018802 0
M  V30 41 H -2.833038 -4.259999 0.086325 0
M  V30 42 H -3.046067 -3.017702 -1.244583 0
M  V30 43 H -3.753406 -1.515970 0.820915 0
M  V30 44 H -5.876700 -2.055476 0.355938 0
M  V30 45 H -4.344208 -4.332644 1.849835 0
M  V30 46 H -4.626966 -2.739424 2.705194 0
M  V30 47 H -2.565079 -3.087274 3.570824 0
M  V30 48 H -2.207208 -4.459850 2.525322 0
M  V30 END ATOM
M  V30 BEGIN BOND
M  V30 1 3 1 2
M  V30 2 1 2 3
M  V30 3 2 3 4
M  V30 4 1 4 5
M  V30 5 2 5 6
M  V30 6 1 6 7
M  V30 7 1 7 8
M  V30 8 1 8 9
M  V30 9 2 9 10
M  V30 10 1 10 11
M  V30 11 2 11 12
M  V30 12 1 12 13
M  V30 13 2 13 14
M  V30 14 1 14 15
M  V30 15 1 15 16
M  V30 16 1 15 17
M  V30 17 1 15 18
M  V30 18 1 6 19
M  V30 19 2 19 20
M  V30 20 1 20 21
M  V30 21 1 21 22
M  V30 22 1 22 23
M  V30 23 1 23 24
M  V30 24 1 24 25
M  V30 25 1 25 26
M  V30 26 1 25 27
M  V30 27 1 27 28
M  V30 28 1 20 3
M  V30 29 1 28 22
M  V30 30 1 14 9
M  V30 31 1 4 29
M  V30 32 1 7 30
M  V30 33 1 8 31
M  V30 34 1 8 32
M  V30 35 1 10 33
M  V30 36 1 12 34
M  V30 37 1 13 35
M  V30 38 1 19 36
M  V30 39 1 21 37
M  V30 40 1 22 38 CFG=1
M  V30 41 1 23 39
M  V30 42 1 23 40
M  V30 43 1 24 41
M  V30 44 1 24 42
M  V30 45 1 25 43 CFG=1
M  V30 46 1 26 44
M  V30 47 1 27 45
M  V30 48 1 27 46
M  V30 49 1 28 47
M  V30 50 1 28 48
M  V30 END BOND
M  V30 END CTAB
M  END
>  <Dataset>  (751) 
ChEMBL_Kinases

>  <Ligand_Instance>  (751) 
nan

>  <PDB_ID>  (751) 
nan

>  <Standardized_SMILES>  (751) 
N#Cc1cnc(NCc2cnccc2C(F)(F)F)cc1N[C@H]1CC[C@@H](O)CC1

>  <Name>  (751) 
nan

>  <Pocket>  (751) 
nan

>  <ATP_Site>  (751) 
nan

>  <Peripheral>  (751) 
nan

>  <Num_H_Atoms_ProtBoundConf>  (751) 
nan

>  <Num_Resolved_Atoms>  (751) 
nan

>  <Num_Not_Resolved_Atoms>  (751) 
nan

$$$$
CHEMBL4872637
     RDKit          3D

  0  0  0  0  0  0  0  0  0  0999 V3000
M  V30 BEGIN CTAB
M  V30 COUNTS 59 64 0 0 0
M  V30 BEGIN ATOM
M  V30 1 N 6.092349 -2.994412 2.770431 0
M  V30 2 C 5.409397 -1.738461 2.389911 0
M  V30 3 C 6.255337 -0.947388 1.457646 0
M  V30 4 C 5.629736 -0.960782 0.084888 0
M  V30 5 N 4.337684 -0.349730 0.217086 0
M  V30 6 C 4.104098 0.947397 -0.348936 0
M  V30 7 O 5.134253 1.409983 -0.915687 0
M  V30 8 C 2.734616 1.414573 -0.131828 0
M  V30 9 C 2.296166 2.476384 0.632586 0
M  V30 10 C 0.945578 2.755694 0.708582 0
M  V30 11 C 0.042072 1.973128 0.020957 0
M  V30 12 C -1.409754 2.248776 0.083637 0
M  V30 13 C -1.997321 3.487843 0.219800 0
M  V30 14 C -3.392979 3.563038 0.264122 0
M  V30 15 C -4.185499 2.425924 0.174335 0
M  V30 16 N -5.519462 2.232822 0.194809 0
M  V30 17 C -5.771083 0.896397 0.073617 0
M  V30 18 C -4.556329 0.226322 -0.026677 0
M  V30 19 C -4.321906 -1.217660 -0.163728 0
M  V30 20 C -3.416003 -1.554587 -1.161970 0
M  V30 21 C -3.096775 -2.899994 -1.378654 0
M  V30 22 C -3.693087 -3.887373 -0.589358 0
M  V30 23 C -3.450477 -5.235350 -0.715839 0
M  V30 24 N -4.028906 -6.167463 0.049885 0
M  V30 25 C -4.903953 -5.826612 1.012306 0
M  V30 26 C -5.170978 -4.490922 1.168292 0
M  V30 27 C -4.593329 -3.524433 0.399499 0
M  V30 28 C -4.910407 -2.182614 0.614461 0
M  V30 29 N -3.638514 1.205766 0.041024 0
M  V30 30 C -2.296442 1.180071 0.003244 0
M  V30 31 C 0.441219 0.886621 -0.766658 0
M  V30 32 C 1.815969 0.620608 -0.830208 0
M  V30 33 C 3.406912 -1.177846 0.945301 0
M  V30 34 C 4.021976 -2.031871 1.981376 0
M  V30 35 H 5.732015 -3.784818 2.187149 0
M  V30 36 H 5.995922 -3.191157 3.792501 0
M  V30 37 H 5.398249 -1.177387 3.375832 0
M  V30 38 H 6.313780 0.108085 1.858138 0
M  V30 39 H 7.280396 -1.379035 1.450651 0
M  V30 40 H 5.478517 -2.025580 -0.211490 0
M  V30 41 H 6.268233 -0.442498 -0.666517 0
M  V30 42 H 3.086944 3.021034 1.127397 0
M  V30 43 H 0.629642 3.589688 1.311076 0
M  V30 44 H -1.327489 4.327264 0.282608 0
M  V30 45 H -3.814562 4.545940 0.372297 0
M  V30 46 H -6.765608 0.422200 0.057598 0
M  V30 47 H -2.875867 -0.957630 -1.855953 0
M  V30 48 H -2.416322 -3.313603 -2.107985 0
M  V30 49 H -2.736779 -5.518489 -1.497981 0
M  V30 50 H -5.291701 -6.668377 1.551083 0
M  V30 51 H -5.890133 -4.251321 1.964945 0
M  V30 52 H -5.607629 -1.868281 1.377008 0
M  V30 53 H -1.839811 0.202566 -0.091790 0
M  V30 54 H -0.242071 0.256269 -1.319072 0
M  V30 55 H 2.082320 -0.236925 -1.457276 0
M  V30 56 H 2.613298 -0.511018 1.337362 0
M  V30 57 H 2.918403 -1.809293 0.168314 0
M  V30 58 H 3.997873 -3.112379 1.646435 0
M  V30 59 H 3.367089 -2.004040 2.878966 0
M  V30 END ATOM
M  V30 BEGIN BOND
M  V30 1 1 1 2
M  V30 2 1 2 3
M  V30 3 1 3 4
M  V30 4 1 4 5
M  V30 5 1 5 6
M  V30 6 2 6 7
M  V30 7 1 6 8
M  V30 8 2 8 9
M  V30 9 1 9 10
M  V30 10 2 10 11
M  V30 11 1 11 12
M  V30 12 1 12 13
M  V30 13 2 13 14
M  V30 14 1 14 15
M  V30 15 2 15 16
M  V30 16 1 16 17
M  V30 17 2 17 18
M  V30 18 1 18 19
M  V30 19 2 19 20
M  V30 20 1 20 21
M  V30 21 2 21 22
M  V30 22 1 22 23
M  V30 23 2 23 24
M  V30 24 1 24 25
M  V30 25 2 25 26
M  V30 26 1 26 27
M  V30 27 2 27 28
M  V30 28 1 18 29
M  V30 29 1 29 30
M  V30 30 1 11 31
M  V30 31 2 31 32
M  V30 32 1 5 33
M  V30 33 1 33 34
M  V30 34 1 34 2
M  V30 35 1 32 8
M  V30 36 2 30 12
M  V30 37 1 29 15
M  V30 38 1 28 19
M  V30 39 1 27 22
M  V30 40 1 1 35
M  V30 41 1 1 36
M  V30 42 1 2 37
M  V30 43 1 3 38
M  V30 44 1 3 39
M  V30 45 1 4 40
M  V30 46 1 4 41
M  V30 47 1 9 42
M  V30 48 1 10 43
M  V30 49 1 13 44
M  V30 50 1 14 45
M  V30 51 1 17 46
M  V30 52 1 20 47
M  V30 53 1 21 48
M  V30 54 1 23 49
M  V30 55 1 25 50
M  V30 56 1 26 51
M  V30 57 1 28 52
M  V30 58 1 30 53
M  V30 59 1 31 54
M  V30 60 1 32 55
M  V30 61 1 33 56
M  V30 62 1 33 57
M  V30 63 1 34 58
M  V30 64 1 34 59
M  V30 END BOND
M  V30 END CTAB
M  END
>  <Dataset>  (752) 
ChEMBL_Kinases

>  <Ligand_Instance>  (752) 
nan

>  <PDB_ID>  (752) 
nan

>  <Standardized_SMILES>  (752) 
NC1CCN(C(=O)c2ccc(-c3ccc4ncc(-c5ccc6cnccc6c5)n4c3)cc2)CC1

>  <Name>  (752) 
nan

>  <Pocket>  (752) 
nan

>  <ATP_Site>  (752) 
nan

>  <Peripheral>  (752) 
nan

>  <Num_H_Atoms_ProtBoundConf>  (752) 
nan

>  <Num_Resolved_Atoms>  (752) 
nan

>  <Num_Not_Resolved_Atoms>  (752) 
nan

$$$$
CHEMBL4872553
     RDKit          3D

  0  0  0  0  0  0  0  0  0  0999 V3000
M  V30 BEGIN CTAB
M  V30 COUNTS 63 68 0 0 0
M  V30 BEGIN ATOM
M  V30 1 C 4.321925 -2.588221 3.057435 0
M  V30 2 C 4.580308 -1.764000 1.791138 0
M  V30 3 C 4.799505 -2.636326 0.603837 0
M  V30 4 N 3.619003 -0.707856 1.615508 0
M  V30 5 C 3.807909 0.644392 1.683261 0
M  V30 6 O 4.921143 1.215766 1.923353 0
M  V30 7 C 2.624053 1.272005 1.454576 0
M  V30 8 C 2.267472 2.605917 1.410187 0
M  V30 9 N 0.977960 2.948194 1.153756 0
M  V30 10 C 0.049962 1.973376 0.943257 0
M  V30 11 N -1.332438 2.078641 0.658258 0
M  V30 12 C -1.821583 2.085710 -0.679163 0
M  V30 13 C -0.874989 1.954881 -1.671943 0
M  V30 14 C -1.350752 1.958617 -2.966440 0
M  V30 15 C -2.673439 2.083247 -3.256950 0
M  V30 16 C -3.552734 2.209314 -2.204504 0
M  V30 17 C -3.192707 2.218823 -0.872418 0
M  V30 18 C -4.999401 2.342763 -2.612548 0
M  V30 19 C -5.248402 1.144281 -3.503588 0
M  V30 20 N -4.484206 1.296935 -4.701020 0
M  V30 21 C -3.304677 2.100831 -4.586944 0
M  V30 22 N 0.425445 0.701007 0.992720 0
M  V30 23 C 1.694382 0.278496 1.242932 0
M  V30 24 N 2.341829 -0.909455 1.349597 0
M  V30 25 C 1.558302 -2.080033 1.160132 0
M  V30 26 C 1.528257 -2.953397 0.092394 0
M  V30 27 C 0.677087 -4.038081 0.104540 0
M  V30 28 C -0.174115 -4.312558 1.152622 0
M  V30 29 C -0.109191 -3.405258 2.205989 0
M  V30 30 C -1.030159 -3.674894 3.365237 0
M  V30 31 C -0.894187 -2.669974 4.474456 0
M  V30 32 F -1.719829 -2.891285 5.538702 0
M  V30 33 C -1.710085 -4.954106 3.511919 0
M  V30 34 C -2.484465 -3.820102 2.884935 0
M  V30 35 N 0.717349 -2.361945 2.182498 0
M  V30 36 H 4.740703 -2.045205 3.956070 0
M  V30 37 H 3.265942 -2.805623 3.224895 0
M  V30 38 H 4.951953 -3.506641 2.949176 0
M  V30 39 H 5.571998 -1.267257 2.018320 0
M  V30 40 H 5.891260 -2.917799 0.583833 0
M  V30 41 H 4.639473 -2.079835 -0.326866 0
M  V30 42 H 4.279661 -3.613777 0.665283 0
M  V30 43 H 2.959305 3.420184 1.569578 0
M  V30 44 H -1.980178 2.151680 1.491622 0
M  V30 45 H 0.166014 1.856697 -1.448107 0
M  V30 46 H -0.667177 1.859376 -3.818388 0
M  V30 47 H -3.915051 2.319586 -0.083779 0
M  V30 48 H -5.676010 2.371069 -1.735757 0
M  V30 49 H -5.134410 3.256824 -3.264422 0
M  V30 50 H -4.840145 0.249873 -2.971870 0
M  V30 51 H -6.318759 1.010312 -3.762811 0
M  V30 52 H -5.127901 1.642593 -5.463461 0
M  V30 53 H -3.580338 3.160136 -4.838704 0
M  V30 54 H -2.558772 1.767439 -5.359452 0
M  V30 55 H 2.218018 -2.686508 -0.702004 0
M  V30 56 H 0.694688 -4.693482 -0.762499 0
M  V30 57 H -0.796225 -5.170262 1.079137 0
M  V30 58 H 0.186599 -2.610583 4.785197 0
M  V30 59 H -1.125670 -1.670481 4.032568 0
M  V30 60 H -2.053123 -5.226067 4.527538 0
M  V30 61 H -1.417061 -5.826342 2.904609 0
M  V30 62 H -2.698122 -3.904095 1.820182 0
M  V30 63 H -3.286667 -3.320085 3.452684 0
M  V30 END ATOM
M  V30 BEGIN BOND
M  V30 1 1 1 2
M  V30 2 1 2 3
M  V30 3 1 2 4
M  V30 4 1 4 5
M  V30 5 2 5 6
M  V30 6 1 5 7
M  V30 7 2 7 8
M  V30 8 1 8 9
M  V30 9 2 9 10
M  V30 10 1 10 11
M  V30 11 1 11 12
M  V30 12 2 12 13
M  V30 13 1 13 14
M  V30 14 2 14 15
M  V30 15 1 15 16
M  V30 16 2 16 17
M  V30 17 1 16 18
M  V30 18 1 18 19
M  V30 19 1 19 20
M  V30 20 1 20 21
M  V30 21 1 10 22
M  V30 22 2 22 23
M  V30 23 1 23 24
M  V30 24 1 24 25
M  V30 25 2 25 26
M  V30 26 1 26 27
M  V30 27 2 27 28
M  V30 28 1 28 29
M  V30 29 1 29 30
M  V30 30 1 30 31
M  V30 31 1 31 32
M  V30 32 1 30 33
M  V30 33 1 33 34
M  V30 34 2 29 35
M  V30 35 1 24 4
M  V30 36 1 35 25
M  V30 37 1 23 7
M  V30 38 1 34 30
M  V30 39 1 17 12
M  V30 40 1 21 15
M  V30 41 1 1 36
M  V30 42 1 1 37
M  V30 43 1 1 38
M  V30 44 1 2 39
M  V30 45 1 3 40
M  V30 46 1 3 41
M  V30 47 1 3 42
M  V30 48 1 8 43
M  V30 49 1 11 44
M  V30 50 1 13 45
M  V30 51 1 14 46
M  V30 52 1 17 47
M  V30 53 1 18 48
M  V30 54 1 18 49
M  V30 55 1 19 50
M  V30 56 1 19 51
M  V30 57 1 20 52
M  V30 58 1 21 53
M  V30 59 1 21 54
M  V30 60 1 26 55
M  V30 61 1 27 56
M  V30 62 1 28 57
M  V30 63 1 31 58
M  V30 64 1 31 59
M  V30 65 1 33 60
M  V30 66 1 33 61
M  V30 67 1 34 62
M  V30 68 1 34 63
M  V30 END BOND
M  V30 END CTAB
M  END
>  <Dataset>  (753) 
ChEMBL_Kinases

>  <Ligand_Instance>  (753) 
nan

>  <PDB_ID>  (753) 
nan

>  <Standardized_SMILES>  (753) 
CC(C)n1c(=O)c2cnc(Nc3ccc4c(c3)CCNC4)nc2n1-c1cccc(C2(CF)CC2)n1

>  <Name>  (753) 
nan

>  <Pocket>  (753) 
nan

>  <ATP_Site>  (753) 
nan

>  <Peripheral>  (753) 
nan

>  <Num_H_Atoms_ProtBoundConf>  (753) 
nan

>  <Num_Resolved_Atoms>  (753) 
nan

>  <Num_Not_Resolved_Atoms>  (753) 
nan

$$$$
CHEMBL4872426
     RDKit          3D

  0  0  0  0  0  0  0  0  0  0999 V3000
M  V30 BEGIN CTAB
M  V30 COUNTS 49 52 0 0 0
M  V30 BEGIN ATOM
M  V30 1 C 1.045674 -2.342595 5.016069 0
M  V30 2 C 0.635982 -3.760828 4.608211 0
M  V30 3 C 0.619360 -3.801281 3.114036 0
M  V30 4 C -0.484168 -3.508175 2.344772 0
M  V30 5 C -0.199028 -3.630694 1.005811 0
M  V30 6 N -0.998124 -3.439077 -0.191038 0
M  V30 7 C -0.924854 -2.058619 -0.555152 0
M  V30 8 N 0.320189 -1.673306 -0.875950 0
M  V30 9 C 0.618549 -0.392029 -1.246272 0
M  V30 10 N 1.941308 -0.009463 -1.592104 0
M  V30 11 C 2.406449 1.282083 -1.981311 0
M  V30 12 C 2.282562 2.333029 -0.942648 0
M  V30 13 C 1.235518 3.198159 -0.715966 0
M  V30 14 C 1.385530 4.083956 0.322310 0
M  V30 15 C 2.475804 4.169101 1.132302 0
M  V30 16 Cl 2.572191 5.331904 2.426184 0
M  V30 17 C 3.523154 3.295335 0.897208 0
M  V30 18 C 3.414153 2.378190 -0.147609 0
M  V30 19 N -0.428549 0.437920 -1.261027 0
M  V30 20 C -1.693096 0.126458 -0.955447 0
M  V30 21 C -2.737694 1.028216 -0.995847 0
M  V30 22 C -4.022910 0.644082 -0.677054 0
M  V30 23 C -4.208862 -0.674878 -0.319691 0
M  V30 24 C -3.214931 -1.659751 -0.249903 0
M  V30 25 C -3.515235 -3.046619 0.117471 0
M  V30 26 C -1.974196 -1.169059 -0.585661 0
M  V30 27 N 1.114976 -4.007931 1.000846 0
M  V30 28 N 1.585110 -4.105128 2.230441 0
M  V30 29 H 1.660816 -2.329985 5.917829 0
M  V30 30 H 0.118057 -1.726829 5.127597 0
M  V30 31 H 1.602207 -1.850153 4.165390 0
M  V30 32 H -0.391553 -3.978433 4.960256 0
M  V30 33 H 1.387040 -4.446374 5.032663 0
M  V30 34 H -1.431055 -3.224345 2.728465 0
M  V30 35 H -1.320358 -4.419926 -0.324914 0
M  V30 36 H 2.667794 -0.782509 -1.554383 0
M  V30 37 H 1.737294 1.630421 -2.831178 0
M  V30 38 H 3.414628 1.234609 -2.424836 0
M  V30 39 H 0.403565 3.086378 -1.387547 0
M  V30 40 H 0.542066 4.764622 0.487360 0
M  V30 41 H 4.387037 3.380534 1.557559 0
M  V30 42 H 4.303663 1.753459 -0.222683 0
M  V30 43 H -2.552207 2.047575 -1.279653 0
M  V30 44 H -4.860682 1.319359 -0.696964 0
M  V30 45 H -5.234956 -0.969264 -0.068522 0
M  V30 46 H -3.040856 -3.443040 1.006742 0
M  V30 47 H -3.504430 -3.733421 -0.781345 0
M  V30 48 H -4.621691 -3.076051 0.385516 0
M  V30 49 H 2.551657 -4.373079 2.525266 0
M  V30 END ATOM
M  V30 BEGIN BOND
M  V30 1 1 1 2
M  V30 2 1 2 3
M  V30 3 2 3 4
M  V30 4 1 4 5
M  V30 5 1 5 6
M  V30 6 1 6 7
M  V30 7 2 7 8
M  V30 8 1 8 9
M  V30 9 1 9 10
M  V30 10 1 10 11
M  V30 11 1 11 12
M  V30 12 2 12 13
M  V30 13 1 13 14
M  V30 14 2 14 15
M  V30 15 1 15 16
M  V30 16 1 15 17
M  V30 17 2 17 18
M  V30 18 2 9 19
M  V30 19 1 19 20
M  V30 20 2 20 21
M  V30 21 1 21 22
M  V30 22 2 22 23
M  V30 23 1 23 24
M  V30 24 1 24 25
M  V30 25 2 24 26
M  V30 26 2 5 27
M  V30 27 1 27 28
M  V30 28 1 28 3
M  V30 29 1 26 7
M  V30 30 1 18 12
M  V30 31 1 26 20
M  V30 32 1 1 29
M  V30 33 1 1 30
M  V30 34 1 1 31
M  V30 35 1 2 32
M  V30 36 1 2 33
M  V30 37 1 4 34
M  V30 38 1 6 35
M  V30 39 1 10 36
M  V30 40 1 11 37
M  V30 41 1 11 38
M  V30 42 1 13 39
M  V30 43 1 14 40
M  V30 44 1 17 41
M  V30 45 1 18 42
M  V30 46 1 21 43
M  V30 47 1 22 44
M  V30 48 1 23 45
M  V30 49 1 25 46
M  V30 50 1 25 47
M  V30 51 1 25 48
M  V30 52 1 28 49
M  V30 END BOND
M  V30 END CTAB
M  END
>  <Dataset>  (754) 
ChEMBL_Kinases

>  <Ligand_Instance>  (754) 
nan

>  <PDB_ID>  (754) 
nan

>  <Standardized_SMILES>  (754) 
CCc1cc(Nc2nc(NCc3ccc(Cl)cc3)nc3cccc(C)c23)n[nH]1

>  <Name>  (754) 
nan

>  <Pocket>  (754) 
nan

>  <ATP_Site>  (754) 
nan

>  <Peripheral>  (754) 
nan

>  <Num_H_Atoms_ProtBoundConf>  (754) 
nan

>  <Num_Resolved_Atoms>  (754) 
nan

>  <Num_Not_Resolved_Atoms>  (754) 
nan

$$$$
CHEMBL4874184
     RDKit          3D

  0  0  0  0  0  0  0  0  0  0999 V3000
M  V30 BEGIN CTAB
M  V30 COUNTS 46 49 0 0 0
M  V30 BEGIN ATOM
M  V30 1 C 0.132367 -2.370990 4.110260 0
M  V30 2 O 0.673509 -2.333425 2.804684 0
M  V30 3 C 1.852600 -1.714083 2.481077 0
M  V30 4 C 2.536794 -1.087799 3.528165 0
M  V30 5 C 3.728398 -0.443919 3.275793 0
M  V30 6 C 4.246111 -0.415655 1.996697 0
M  V30 7 C 3.527691 -1.050406 1.004184 0
M  V30 8 C 2.330966 -1.712811 1.185853 0
M  V30 9 C 1.624926 -2.376541 0.097172 0
M  V30 10 C 1.420097 -2.030359 -1.171941 0
M  V30 11 N 1.984955 -0.770561 -1.585015 0
M  V30 12 C 1.159133 0.368196 -1.295640 0
M  V30 13 C 1.540842 1.676238 -1.616416 0
M  V30 14 C 0.731960 2.755495 -1.330230 0
M  V30 15 C -0.489264 2.578926 -0.713665 0
M  V30 16 C -0.920333 1.316984 -0.373555 0
M  V30 17 C -2.191634 1.026335 0.279774 0
M  V30 18 C -2.417167 -0.039043 1.159345 0
M  V30 19 C -3.649527 -0.252984 1.741688 0
M  V30 20 C -4.699598 0.623074 1.440604 0
M  V30 21 F -5.924684 0.402909 2.025226 0
M  V30 22 C -4.547634 1.693571 0.582410 0
M  V30 23 C -3.293112 1.840855 0.042787 0
M  V30 24 C -0.064513 0.286706 -0.687745 0
M  V30 25 C 0.647135 -3.019646 -1.903467 0
M  V30 26 O 0.339829 -2.896763 -3.106428 0
M  V30 27 N 0.352760 -4.066029 -0.998234 0
M  V30 28 C 0.949889 -3.683971 0.241391 0
M  V30 29 O 0.849785 -4.429353 1.237180 0
M  V30 30 H 0.824640 -2.899276 4.816022 0
M  V30 31 H 0.005527 -1.331525 4.515726 0
M  V30 32 H -0.857879 -2.834436 4.109095 0
M  V30 33 H 2.116608 -1.115450 4.543857 0
M  V30 34 H 4.295311 0.057072 4.059030 0
M  V30 35 H 5.191410 0.091955 1.783476 0
M  V30 36 H 3.980801 -0.997162 0.023605 0
M  V30 37 H 2.898430 -0.547274 -2.063314 0
M  V30 38 H 2.489557 1.840696 -2.098718 0
M  V30 39 H 1.050346 3.759745 -1.589243 0
M  V30 40 H -1.163705 3.392371 -0.465502 0
M  V30 41 H -1.542277 -0.667604 1.333126 0
M  V30 42 H -3.762832 -1.093305 2.413504 0
M  V30 43 H -5.348534 2.377633 0.341415 0
M  V30 44 H -3.137783 2.678570 -0.641161 0
M  V30 45 H -0.398332 -0.720193 -0.421033 0
M  V30 46 H -0.185272 -4.913236 -1.223939 0
M  V30 END ATOM
M  V30 BEGIN BOND
M  V30 1 1 1 2
M  V30 2 1 2 3
M  V30 3 2 3 4
M  V30 4 1 4 5
M  V30 5 2 5 6
M  V30 6 1 6 7
M  V30 7 2 7 8
M  V30 8 1 8 9
M  V30 9 2 9 10
M  V30 10 1 10 11
M  V30 11 1 11 12
M  V30 12 2 12 13
M  V30 13 1 13 14
M  V30 14 2 14 15
M  V30 15 1 15 16
M  V30 16 1 16 17
M  V30 17 2 17 18
M  V30 18 1 18 19
M  V30 19 2 19 20
M  V30 20 1 20 21
M  V30 21 1 20 22
M  V30 22 2 22 23
M  V30 23 2 16 24
M  V30 24 1 10 25
M  V30 25 2 25 26
M  V30 26 1 25 27
M  V30 27 1 27 28
M  V30 28 2 28 29
M  V30 29 1 8 3
M  V30 30 1 28 9
M  V30 31 1 24 12
M  V30 32 1 23 17
M  V30 33 1 1 30
M  V30 34 1 1 31
M  V30 35 1 1 32
M  V30 36 1 4 33
M  V30 37 1 5 34
M  V30 38 1 6 35
M  V30 39 1 7 36
M  V30 40 1 11 37
M  V30 41 1 13 38
M  V30 42 1 14 39
M  V30 43 1 15 40
M  V30 44 1 18 41
M  V30 45 1 19 42
M  V30 46 1 22 43
M  V30 47 1 23 44
M  V30 48 1 24 45
M  V30 49 1 27 46
M  V30 END BOND
M  V30 END CTAB
M  END
>  <Dataset>  (755) 
ChEMBL_Kinases

>  <Ligand_Instance>  (755) 
nan

>  <PDB_ID>  (755) 
nan

>  <Standardized_SMILES>  (755) 
COc1ccccc1C1=C(Nc2cccc(-c3ccc(F)cc3)c2)C(=O)NC1=O

>  <Name>  (755) 
nan

>  <Pocket>  (755) 
nan

>  <ATP_Site>  (755) 
nan

>  <Peripheral>  (755) 
nan

>  <Num_H_Atoms_ProtBoundConf>  (755) 
nan

>  <Num_Resolved_Atoms>  (755) 
nan

>  <Num_Not_Resolved_Atoms>  (755) 
nan

$$$$
CHEMBL4872330
     RDKit          3D

  0  0  0  0  0  0  0  0  0  0999 V3000
M  V30 BEGIN CTAB
M  V30 COUNTS 67 72 0 0 0
M  V30 BEGIN ATOM
M  V30 1 C 0.878946 0.158141 -6.173503 0
M  V30 2 C 1.066616 -0.815328 -5.018779 0
M  V30 3 C 0.025203 -1.895862 -4.977456 0
M  V30 4 N 1.304095 -0.159795 -3.759322 0
M  V30 5 C 2.515913 0.254391 -3.295634 0
M  V30 6 O 3.660787 0.159056 -3.854564 0
M  V30 7 C 2.394287 0.837451 -2.061809 0
M  V30 8 C 3.256264 1.412362 -1.152893 0
M  V30 9 N 2.769582 1.897242 -0.000403 0
M  V30 10 C 1.436972 1.832684 0.290536 0
M  V30 11 N 0.869846 2.334743 1.511593 0
M  V30 12 C 0.733928 1.424516 2.593630 0
M  V30 13 C 0.215095 1.860320 3.816841 0
M  V30 14 C 0.095827 0.931728 4.849886 0
M  V30 15 C 0.466416 -0.388059 4.713164 0
M  V30 16 C 0.979671 -0.807808 3.495187 0
M  V30 17 C 1.095990 0.097234 2.488178 0
M  V30 18 C 1.365464 -2.240556 3.392573 0
M  V30 19 C 0.473989 -3.166807 4.146853 0
M  V30 20 N -0.276657 -2.566170 5.217617 0
M  V30 21 C 0.349196 -1.397904 5.795814 0
M  V30 22 C 1.645686 -1.708569 6.474048 0
M  V30 23 C -0.631005 -0.890901 6.856856 0
M  V30 24 N 0.598553 1.260461 -0.620601 0
M  V30 25 C 1.044808 0.760933 -1.790168 0
M  V30 26 N 0.411331 0.162456 -2.815020 0
M  V30 27 C -0.992446 -0.067092 -2.831436 0
M  V30 28 C -1.921114 0.253607 -3.799255 0
M  V30 29 C -3.252247 -0.061290 -3.622008 0
M  V30 30 C -3.659191 -0.701337 -2.469350 0
M  V30 31 C -2.730265 -1.021594 -1.501829 0
M  V30 32 C -3.100758 -1.718305 -0.223879 0
M  V30 33 C -4.361210 -1.306743 0.371482 0
M  V30 34 N -5.358122 -0.966814 0.828216 0
M  V30 35 C -1.971568 -1.967703 0.764911 0
M  V30 36 C -2.596010 -3.117381 0.008746 0
M  V30 37 N -1.440402 -0.700105 -1.706777 0
M  V30 38 H 0.583074 1.160009 -5.746713 0
M  V30 39 H 1.814764 0.343870 -6.741580 0
M  V30 40 H 0.087858 -0.144693 -6.866243 0
M  V30 41 H 2.027474 -1.353858 -5.284346 0
M  V30 42 H 0.392903 -2.878757 -5.399585 0
M  V30 43 H -0.330135 -2.160451 -3.970390 0
M  V30 44 H -0.798417 -1.627149 -5.692661 0
M  V30 45 H 4.321473 1.469325 -1.372986 0
M  V30 46 H 0.568983 3.308186 1.617171 0
M  V30 47 H -0.081841 2.898113 3.940453 0
M  V30 48 H -0.310438 1.258319 5.820706 0
M  V30 49 H 1.494976 -0.221164 1.534967 0
M  V30 50 H 1.307177 -2.558485 2.311093 0
M  V30 51 H 2.447541 -2.392432 3.648508 0
M  V30 52 H -0.267687 -3.665023 3.482049 0
M  V30 53 H 1.051659 -4.018276 4.593599 0
M  V30 54 H -0.492329 -3.203565 5.990453 0
M  V30 55 H 2.489030 -1.044790 6.180547 0
M  V30 56 H 1.948232 -2.790443 6.357938 0
M  V30 57 H 1.568737 -1.589880 7.593204 0
M  V30 58 H -1.477831 -0.356450 6.381858 0
M  V30 59 H -1.004828 -1.752603 7.439147 0
M  V30 60 H -0.083789 -0.245917 7.594853 0
M  V30 61 H -1.506879 0.743407 -4.644676 0
M  V30 62 H -3.941806 0.211615 -4.410803 0
M  V30 63 H -4.703234 -0.958558 -2.309546 0
M  V30 64 H -0.943596 -1.686152 0.511926 0
M  V30 65 H -2.216241 -1.841334 1.851658 0
M  V30 66 H -2.034897 -3.568339 -0.833395 0
M  V30 67 H -3.262639 -3.805942 0.586123 0
M  V30 END ATOM
M  V30 BEGIN BOND
M  V30 1 1 1 2
M  V30 2 1 2 3
M  V30 3 1 2 4
M  V30 4 1 4 5
M  V30 5 2 5 6
M  V30 6 1 5 7
M  V30 7 2 7 8
M  V30 8 1 8 9
M  V30 9 2 9 10
M  V30 10 1 10 11
M  V30 11 1 11 12
M  V30 12 2 12 13
M  V30 13 1 13 14
M  V30 14 2 14 15
M  V30 15 1 15 16
M  V30 16 2 16 17
M  V30 17 1 16 18
M  V30 18 1 18 19
M  V30 19 1 19 20
M  V30 20 1 20 21
M  V30 21 1 21 22
M  V30 22 1 21 23
M  V30 23 1 10 24
M  V30 24 2 24 25
M  V30 25 1 25 26
M  V30 26 1 26 27
M  V30 27 2 27 28
M  V30 28 1 28 29
M  V30 29 2 29 30
M  V30 30 1 30 31
M  V30 31 1 31 32
M  V30 32 1 32 33
M  V30 33 3 33 34
M  V30 34 1 32 35
M  V30 35 1 35 36
M  V30 36 2 31 37
M  V30 37 1 26 4
M  V30 38 1 37 27
M  V30 39 1 25 7
M  V30 40 1 36 32
M  V30 41 1 17 12
M  V30 42 1 21 15
M  V30 43 1 1 38
M  V30 44 1 1 39
M  V30 45 1 1 40
M  V30 46 1 2 41
M  V30 47 1 3 42
M  V30 48 1 3 43
M  V30 49 1 3 44
M  V30 50 1 8 45
M  V30 51 1 11 46
M  V30 52 1 13 47
M  V30 53 1 14 48
M  V30 54 1 17 49
M  V30 55 1 18 50
M  V30 56 1 18 51
M  V30 57 1 19 52
M  V30 58 1 19 53
M  V30 59 1 20 54
M  V30 60 1 22 55
M  V30 61 1 22 56
M  V30 62 1 22 57
M  V30 63 1 23 58
M  V30 64 1 23 59
M  V30 65 1 23 60
M  V30 66 1 28 61
M  V30 67 1 29 62
M  V30 68 1 30 63
M  V30 69 1 35 64
M  V30 70 1 35 65
M  V30 71 1 36 66
M  V30 72 1 36 67
M  V30 END BOND
M  V30 END CTAB
M  END
>  <Dataset>  (756) 
ChEMBL_Kinases

>  <Ligand_Instance>  (756) 
nan

>  <PDB_ID>  (756) 
nan

>  <Standardized_SMILES>  (756) 
CC(C)n1c(=O)c2cnc(Nc3ccc4c(c3)CCNC4(C)C)nc2n1-c1cccc(C2(C#N)CC2)n1

>  <Name>  (756) 
nan

>  <Pocket>  (756) 
nan

>  <ATP_Site>  (756) 
nan

>  <Peripheral>  (756) 
nan

>  <Num_H_Atoms_ProtBoundConf>  (756) 
nan

>  <Num_Resolved_Atoms>  (756) 
nan

>  <Num_Not_Resolved_Atoms>  (756) 
nan

$$$$
CHEMBL4872136
     RDKit          3D

  0  0  0  0  0  0  0  0  0  0999 V3000
M  V30 BEGIN CTAB
M  V30 COUNTS 45 48 0 0 0
M  V30 BEGIN ATOM
M  V30 1 C 0.844173 -6.985512 -0.372850 0
M  V30 2 O 0.129934 -6.372105 -1.420880 0
M  V30 3 C 0.325527 -5.025646 -1.661979 0
M  V30 4 C 1.192347 -4.259379 -0.916381 0
M  V30 5 C 1.353207 -2.901516 -1.202007 0
M  V30 6 C 0.626219 -2.362351 -2.239488 0
M  V30 7 C 0.659926 -0.972833 -2.682214 0
M  V30 8 N 0.734917 -0.520317 -3.928615 0
M  V30 9 N 0.739882 0.799602 -3.944439 0
M  V30 10 C 0.666887 1.294294 -2.684126 0
M  V30 11 N 0.641549 2.557758 -2.208284 0
M  V30 12 C 0.562188 2.773925 -0.870628 0
M  V30 13 C 0.510380 1.667200 -0.052029 0
M  V30 14 C 0.423161 1.917937 1.385688 0
M  V30 15 C -0.260382 3.063781 1.759530 0
M  V30 16 C -0.365537 3.341474 3.119599 0
M  V30 17 C 0.219042 2.455314 4.002796 0
M  V30 18 N 0.177816 2.628273 5.415579 0
M  V30 19 C -0.998598 1.951993 5.898782 0
M  V30 20 C -1.581450 1.771951 7.234320 0
M  V30 21 O -1.742574 1.359990 5.042456 0
M  V30 22 C 0.898019 1.315905 3.618630 0
M  V30 23 C 1.007767 1.031247 2.268028 0
M  V30 24 C 0.535621 0.372114 -0.526563 0
M  V30 25 C 0.617112 0.161039 -1.896470 0
M  V30 26 C -0.248821 -3.130633 -2.994218 0
M  V30 27 C -0.409322 -4.484840 -2.709458 0
M  V30 28 H 0.447156 -7.992460 -0.126673 0
M  V30 29 H 1.880244 -7.146085 -0.706330 0
M  V30 30 H 0.851160 -6.399816 0.547623 0
M  V30 31 H 1.760362 -4.684767 -0.104523 0
M  V30 32 H 2.009824 -2.234954 -0.667016 0
M  V30 33 H 0.794698 1.340198 -4.846391 0
M  V30 34 H 0.546775 3.806100 -0.576380 0
M  V30 35 H -0.702358 3.729424 1.033716 0
M  V30 36 H -0.880311 4.212357 3.497601 0
M  V30 37 H 0.670230 3.061902 6.253771 0
M  V30 38 H -1.661717 0.675472 7.468067 0
M  V30 39 H -0.973771 2.205214 8.045263 0
M  V30 40 H -2.618604 2.175319 7.220136 0
M  V30 41 H 1.359146 0.616345 4.302264 0
M  V30 42 H 1.531909 0.148249 1.924113 0
M  V30 43 H 0.493890 -0.478853 0.135505 0
M  V30 44 H -0.849674 -2.762443 -3.824107 0
M  V30 45 H -1.089118 -5.092871 -3.291273 0
M  V30 END ATOM
M  V30 BEGIN BOND
M  V30 1 1 1 2
M  V30 2 1 2 3
M  V30 3 2 3 4
M  V30 4 1 4 5
M  V30 5 2 5 6
M  V30 6 1 6 7
M  V30 7 2 7 8
M  V30 8 1 8 9
M  V30 9 1 9 10
M  V30 10 2 10 11
M  V30 11 1 11 12
M  V30 12 2 12 13
M  V30 13 1 13 14
M  V30 14 2 14 15
M  V30 15 1 15 16
M  V30 16 2 16 17
M  V30 17 1 17 18
M  V30 18 1 18 19
M  V30 19 1 19 20
M  V30 20 2 19 21
M  V30 21 1 17 22
M  V30 22 2 22 23
M  V30 23 1 13 24
M  V30 24 2 24 25
M  V30 25 1 6 26
M  V30 26 2 26 27
M  V30 27 1 27 3
M  V30 28 1 25 7
M  V30 29 1 25 10
M  V30 30 1 23 14
M  V30 31 1 1 28
M  V30 32 1 1 29
M  V30 33 1 1 30
M  V30 34 1 4 31
M  V30 35 1 5 32
M  V30 36 1 9 33
M  V30 37 1 12 34
M  V30 38 1 15 35
M  V30 39 1 16 36
M  V30 40 1 18 37
M  V30 41 1 20 38
M  V30 42 1 20 39
M  V30 43 1 20 40
M  V30 44 1 22 41
M  V30 45 1 23 42
M  V30 46 1 24 43
M  V30 47 1 26 44
M  V30 48 1 27 45
M  V30 END BOND
M  V30 END CTAB
M  END
>  <Dataset>  (757) 
ChEMBL_Kinases

>  <Ligand_Instance>  (757) 
nan

>  <PDB_ID>  (757) 
nan

>  <Standardized_SMILES>  (757) 
COc1ccc(-c2n[nH]c3ncc(-c4ccc(NC(C)=O)cc4)cc23)cc1

>  <Name>  (757) 
nan

>  <Pocket>  (757) 
nan

>  <ATP_Site>  (757) 
nan

>  <Peripheral>  (757) 
nan

>  <Num_H_Atoms_ProtBoundConf>  (757) 
nan

>  <Num_Resolved_Atoms>  (757) 
nan

>  <Num_Not_Resolved_Atoms>  (757) 
nan

$$$$
CHEMBL4872045
     RDKit          3D

  0  0  0  0  0  0  0  0  0  0999 V3000
M  V30 BEGIN CTAB
M  V30 COUNTS 59 63 0 0 0
M  V30 BEGIN ATOM
M  V30 1 C -3.048915 -0.227456 5.291909 0
M  V30 2 N -3.347881 1.105036 4.876747 0
M  V30 3 C -4.725842 1.435669 5.046587 0
M  V30 4 C -2.433855 2.116847 5.282215 0
M  V30 5 C -1.074341 2.029873 4.630183 0
M  V30 6 N -1.177188 2.144391 3.180073 0
M  V30 7 C -1.333942 1.085639 2.361789 0
M  V30 8 C -1.388269 1.632578 1.096070 0
M  V30 9 C -1.551260 0.880485 -0.161182 0
M  V30 10 C -0.948765 1.423707 -1.298155 0
M  V30 11 C -1.131417 0.677097 -2.442391 0
M  V30 12 C -1.838804 -0.507586 -2.505332 0
M  V30 13 C -1.976779 -1.191354 -3.692260 0
M  V30 14 N -1.408880 -0.732384 -4.910053 0
M  V30 15 C -0.061578 -0.483497 -5.358207 0
M  V30 16 C 0.053292 0.125868 -6.603626 0
M  V30 17 C 1.344548 0.342270 -7.007994 0
M  V30 18 N 2.468695 0.014855 -6.302949 0
M  V30 19 C 2.289738 -0.579349 -5.090163 0
M  V30 20 C 3.502474 -0.917362 -4.357062 0
M  V30 21 C 4.728957 -0.623239 -4.919342 0
M  V30 22 C 5.889533 -0.940801 -4.228931 0
M  V30 23 C 5.891767 -1.550796 -2.977710 0
M  V30 24 C 4.662684 -1.840899 -2.423872 0
M  V30 25 F 4.622046 -2.437226 -1.202166 0
M  V30 26 C 3.530905 -1.520814 -3.118269 0
M  V30 27 C 1.014077 -0.835494 -4.603687 0
M  V30 28 C -2.710320 -2.351824 -3.603018 0
M  V30 29 C -3.299197 -2.875187 -2.474190 0
M  V30 30 N -3.105924 -2.126060 -1.350539 0
M  V30 31 C -2.405247 -0.980773 -1.341462 0
M  V30 32 C -2.272390 -0.294094 -0.142376 0
M  V30 33 C -1.262799 3.021606 1.167331 0
M  V30 34 N -1.135418 3.258100 2.502347 0
M  V30 35 H -3.880347 -0.534480 5.985420 0
M  V30 36 H -2.132519 -0.297555 5.887138 0
M  V30 37 H -3.113776 -0.973817 4.462880 0
M  V30 38 H -5.282966 1.415626 4.075239 0
M  V30 39 H -5.145906 0.700306 5.783007 0
M  V30 40 H -4.768542 2.469379 5.491799 0
M  V30 41 H -2.867110 3.094030 4.922444 0
M  V30 42 H -2.305125 2.224361 6.377358 0
M  V30 43 H -0.525726 1.124137 4.911376 0
M  V30 44 H -0.474376 2.893276 4.979209 0
M  V30 45 H -1.399966 0.045102 2.656845 0
M  V30 46 H -0.393334 2.329892 -1.306966 0
M  V30 47 H -0.680005 1.083065 -3.335348 0
M  V30 48 H -2.240446 -0.581983 -5.519589 0
M  V30 49 H -0.775201 0.420632 -7.233622 0
M  V30 50 H 1.562820 0.815658 -7.970121 0
M  V30 51 H 4.855181 -0.147489 -5.891971 0
M  V30 52 H 6.895048 -0.740244 -4.605485 0
M  V30 53 H 6.801080 -1.795081 -2.446769 0
M  V30 54 H 2.595130 -1.769003 -2.638542 0
M  V30 55 H 0.890264 -1.306439 -3.639709 0
M  V30 56 H -2.862430 -2.950757 -4.514276 0
M  V30 57 H -3.861193 -3.797480 -2.491703 0
M  V30 58 H -2.702252 -0.628150 0.803878 0
M  V30 59 H -1.262081 3.763295 0.384957 0
M  V30 END ATOM
M  V30 BEGIN BOND
M  V30 1 1 1 2
M  V30 2 1 2 3
M  V30 3 1 2 4
M  V30 4 1 4 5
M  V30 5 1 5 6
M  V30 6 1 6 7
M  V30 7 2 7 8
M  V30 8 1 8 9
M  V30 9 2 9 10
M  V30 10 1 10 11
M  V30 11 2 11 12
M  V30 12 1 12 13
M  V30 13 1 13 14
M  V30 14 1 14 15
M  V30 15 2 15 16
M  V30 16 1 16 17
M  V30 17 2 17 18
M  V30 18 1 18 19
M  V30 19 1 19 20
M  V30 20 2 20 21
M  V30 21 1 21 22
M  V30 22 2 22 23
M  V30 23 1 23 24
M  V30 24 1 24 25
M  V30 25 2 24 26
M  V30 26 2 19 27
M  V30 27 2 13 28
M  V30 28 1 28 29
M  V30 29 2 29 30
M  V30 30 1 30 31
M  V30 31 2 31 32
M  V30 32 1 8 33
M  V30 33 2 33 34
M  V30 34 1 34 6
M  V30 35 1 32 9
M  V30 36 1 31 12
M  V30 37 1 27 15
M  V30 38 1 26 20
M  V30 39 1 1 35
M  V30 40 1 1 36
M  V30 41 1 1 37
M  V30 42 1 3 38
M  V30 43 1 3 39
M  V30 44 1 3 40
M  V30 45 1 4 41
M  V30 46 1 4 42
M  V30 47 1 5 43
M  V30 48 1 5 44
M  V30 49 1 7 45
M  V30 50 1 10 46
M  V30 51 1 11 47
M  V30 52 1 14 48
M  V30 53 1 16 49
M  V30 54 1 17 50
M  V30 55 1 21 51
M  V30 56 1 22 52
M  V30 57 1 23 53
M  V30 58 1 26 54
M  V30 59 1 27 55
M  V30 60 1 28 56
M  V30 61 1 29 57
M  V30 62 1 32 58
M  V30 63 1 33 59
M  V30 END BOND
M  V30 END CTAB
M  END
>  <Dataset>  (758) 
ChEMBL_Kinases

>  <Ligand_Instance>  (758) 
nan

>  <PDB_ID>  (758) 
nan

>  <Standardized_SMILES>  (758) 
CN(C)CCn1cc(-c2ccc3c(Nc4ccnc(-c5cccc(F)c5)c4)ccnc3c2)cn1

>  <Name>  (758) 
nan

>  <Pocket>  (758) 
nan

>  <ATP_Site>  (758) 
nan

>  <Peripheral>  (758) 
nan

>  <Num_H_Atoms_ProtBoundConf>  (758) 
nan

>  <Num_Resolved_Atoms>  (758) 
nan

>  <Num_Not_Resolved_Atoms>  (758) 
nan

$$$$
CHEMBL4871955
     RDKit          3D

  0  0  0  0  0  0  0  0  0  0999 V3000
M  V30 BEGIN CTAB
M  V30 COUNTS 60 65 0 0 0
M  V30 BEGIN ATOM
M  V30 1 C 4.915270 1.669452 4.886570 0
M  V30 2 C 5.539959 1.391883 3.531194 0
M  V30 3 C 6.260385 0.085142 3.615576 0
M  V30 4 O 6.411470 2.445830 3.235079 0
M  V30 5 C 4.423286 1.350125 2.532236 0
M  V30 6 C 4.847276 1.088924 1.231909 0
M  V30 7 C 3.841667 1.046574 0.274443 0
M  V30 8 C 2.540255 1.258841 0.664306 0
M  V30 9 C 2.141406 1.516366 1.956929 0
M  V30 10 N 0.793795 1.741089 2.344219 0
M  V30 11 C 0.367927 1.829692 3.617399 0
M  V30 12 C -1.005841 2.065892 3.598995 0
M  V30 13 F -1.797341 2.214408 4.708911 0
M  V30 14 C -1.385975 2.115200 2.278366 0
M  V30 15 C -2.648783 2.328515 1.788650 0
M  V30 16 N -2.739699 2.328587 0.433960 0
M  V30 17 C -1.646960 2.129769 -0.351250 0
M  V30 18 N -1.588524 2.114432 -1.773285 0
M  V30 19 C -2.286347 1.116554 -2.524588 0
M  V30 20 C -3.145615 0.249190 -1.868515 0
M  V30 21 C -3.859426 -0.748306 -2.548418 0
M  V30 22 C -3.658444 -0.820864 -3.915243 0
M  V30 23 N -4.374227 -1.816368 -4.636473 0
M  V30 24 C -5.460755 -2.610897 -4.038588 0
M  V30 25 C -5.920351 -3.507986 -5.166629 0 CFG=1
M  V30 26 C -5.707192 -2.556873 -6.334436 0
M  V30 27 C -4.250214 -2.292254 -6.001665 0 CFG=2
M  V30 28 C -3.762206 -3.719404 -5.885618 0
M  V30 29 N -4.905760 -4.483690 -5.412581 0
M  V30 30 C -2.806048 0.034959 -4.584379 0
M  V30 31 C -2.103303 1.023424 -3.888328 0
M  V30 32 N -0.435848 1.926844 0.195251 0
M  V30 33 C -0.255919 1.911292 1.518409 0
M  V30 34 N 3.152265 1.546287 2.844976 0
M  V30 35 H 3.839418 1.913654 4.822521 0
M  V30 36 H 5.007508 0.784909 5.559983 0
M  V30 37 H 5.417623 2.549472 5.369996 0
M  V30 38 H 7.198884 0.060744 3.024134 0
M  V30 39 H 6.548661 -0.086604 4.673399 0
M  V30 40 H 5.543599 -0.717517 3.368850 0
M  V30 41 H 5.977770 3.320177 3.477623 0
M  V30 42 H 5.884753 0.928524 0.968424 0
M  V30 43 H 4.135811 0.844817 -0.748173 0
M  V30 44 H 1.803908 1.214215 -0.119812 0
M  V30 45 H 0.925022 1.743991 4.530317 0
M  V30 46 H -3.534458 2.485855 2.360540 0
M  V30 47 H -1.027068 2.840268 -2.275775 0
M  V30 48 H -3.322470 0.282930 -0.797052 0
M  V30 49 H -4.527295 -1.408480 -1.989776 0
M  V30 50 H -5.078394 -3.173300 -3.180157 0
M  V30 51 H -6.264208 -1.882328 -3.781646 0
M  V30 52 H -6.930957 -3.867056 -5.068336 0
M  V30 53 H -5.843838 -3.072655 -7.305543 0
M  V30 54 H -6.343457 -1.662938 -6.199528 0
M  V30 55 H -3.711547 -1.662215 -6.687306 0
M  V30 56 H -3.331286 -4.099211 -6.812632 0
M  V30 57 H -2.999541 -3.803933 -5.063221 0
M  V30 58 H -5.179659 -5.172214 -6.159893 0
M  V30 59 H -2.654880 -0.024900 -5.655116 0
M  V30 60 H -1.435588 1.699498 -4.393211 0
M  V30 END ATOM
M  V30 BEGIN BOND
M  V30 1 1 1 2
M  V30 2 1 2 3
M  V30 3 1 2 4
M  V30 4 1 2 5
M  V30 5 2 5 6
M  V30 6 1 6 7
M  V30 7 2 7 8
M  V30 8 1 8 9
M  V30 9 1 9 10
M  V30 10 1 10 11
M  V30 11 2 11 12
M  V30 12 1 12 13
M  V30 13 1 12 14
M  V30 14 2 14 15
M  V30 15 1 15 16
M  V30 16 2 16 17
M  V30 17 1 17 18
M  V30 18 1 18 19
M  V30 19 2 19 20
M  V30 20 1 20 21
M  V30 21 2 21 22
M  V30 22 1 22 23
M  V30 23 1 23 24
M  V30 24 1 24 25
M  V30 25 1 25 26
M  V30 26 1 26 27
M  V30 27 1 27 28
M  V30 28 1 28 29
M  V30 29 1 22 30
M  V30 30 2 30 31
M  V30 31 1 17 32
M  V30 32 2 32 33
M  V30 33 2 9 34
M  V30 34 1 34 5
M  V30 35 1 33 10
M  V30 36 1 33 14
M  V30 37 1 31 19
M  V30 38 1 27 23
M  V30 39 1 29 25
M  V30 40 1 1 35
M  V30 41 1 1 36
M  V30 42 1 1 37
M  V30 43 1 3 38
M  V30 44 1 3 39
M  V30 45 1 3 40
M  V30 46 1 4 41
M  V30 47 1 6 42
M  V30 48 1 7 43
M  V30 49 1 8 44
M  V30 50 1 11 45
M  V30 51 1 15 46
M  V30 52 1 18 47
M  V30 53 1 20 48
M  V30 54 1 21 49
M  V30 55 1 24 50
M  V30 56 1 24 51
M  V30 57 1 25 52 CFG=1
M  V30 58 1 26 53
M  V30 59 1 26 54
M  V30 60 1 27 55 CFG=3
M  V30 61 1 28 56
M  V30 62 1 28 57
M  V30 63 1 29 58
M  V30 64 1 30 59
M  V30 65 1 31 60
M  V30 END BOND
M  V30 END CTAB
M  END
>  <Dataset>  (759) 
ChEMBL_Kinases

>  <Ligand_Instance>  (759) 
nan

>  <PDB_ID>  (759) 
nan

>  <Standardized_SMILES>  (759) 
CC(C)(O)c1cccc(-n2cc(F)c3cnc(Nc4ccc(N5C[C@H]6C[C@@H]5CN6)cc4)nc32)n1

>  <Name>  (759) 
nan

>  <Pocket>  (759) 
nan

>  <ATP_Site>  (759) 
nan

>  <Peripheral>  (759) 
nan

>  <Num_H_Atoms_ProtBoundConf>  (759) 
nan

>  <Num_Resolved_Atoms>  (759) 
nan

>  <Num_Not_Resolved_Atoms>  (759) 
nan

$$$$
CHEMBL4871944
     RDKit          3D

  0  0  0  0  0  0  0  0  0  0999 V3000
M  V30 BEGIN CTAB
M  V30 COUNTS 52 55 0 0 0
M  V30 BEGIN ATOM
M  V30 1 C -1.129723 -1.623751 4.944307 0
M  V30 2 C 0.061546 -1.072251 4.154673 0
M  V30 3 C 0.438394 -2.019562 3.101133 0
M  V30 4 C 1.398636 -2.017295 2.109879 0
M  V30 5 C 1.363974 -3.160049 1.314212 0
M  V30 6 N 2.271532 -3.394670 0.206200 0
M  V30 7 C 1.572636 -2.649798 -0.824285 0
M  V30 8 N 1.839592 -1.333296 -0.855998 0
M  V30 9 C 1.256054 -0.460606 -1.727367 0
M  V30 10 N 1.703733 0.870000 -1.532146 0
M  V30 11 C 1.681563 1.643286 -0.310671 0 CFG=1
M  V30 12 C 2.350339 2.986419 -0.488218 0
M  V30 13 C 0.357213 1.765658 0.319193 0
M  V30 14 C -0.108364 3.001430 0.731900 0
M  V30 15 C -1.331223 3.199937 1.340239 0
M  V30 16 C -2.184275 2.138255 1.577879 0
M  V30 17 C -3.488526 2.315608 2.234818 0
M  V30 18 C -1.748782 0.897854 1.178821 0
M  V30 19 C -0.529604 0.759113 0.581121 0
M  V30 20 N 0.352432 -0.953529 -2.617500 0
M  V30 21 C 0.074401 -2.277580 -2.600087 0
M  V30 22 C -0.840316 -2.744290 -3.517065 0
M  V30 23 C -1.120219 -4.092776 -3.502931 0
M  V30 24 C -0.512310 -4.978955 -2.603473 0
M  V30 25 C 0.403703 -4.517356 -1.682863 0
M  V30 26 F 1.051060 -5.279645 -0.774843 0
M  V30 27 C 0.658252 -3.165701 -1.724368 0
M  V30 28 N 0.333391 -3.866226 1.868082 0
M  V30 29 N -0.165882 -3.201920 2.867246 0
M  V30 30 H -0.820121 -2.459217 5.601402 0
M  V30 31 H -1.880003 -2.070231 4.229173 0
M  V30 32 H -1.660213 -0.832645 5.484033 0
M  V30 33 H -0.222178 -0.064707 3.780783 0
M  V30 34 H 0.843044 -0.904032 4.923222 0
M  V30 35 H 2.068643 -1.168903 2.030755 0
M  V30 36 H 3.168211 -3.939551 0.178951 0
M  V30 37 H 2.083917 1.288128 -2.412772 0
M  V30 38 H 2.323987 1.074183 0.433762 0
M  V30 39 H 1.722909 3.758051 -0.939599 0
M  V30 40 H 3.216070 2.807002 -1.185651 0
M  V30 41 H 2.825896 3.279823 0.480056 0
M  V30 42 H 0.436074 3.920695 0.621269 0
M  V30 43 H -1.709716 4.161097 1.668422 0
M  V30 44 H -4.120223 3.105817 1.825377 0
M  V30 45 H -3.266841 2.603621 3.289394 0
M  V30 46 H -4.038101 1.352267 2.214426 0
M  V30 47 H -2.408004 0.054642 1.360591 0
M  V30 48 H -0.299954 -0.250762 0.316144 0
M  V30 49 H -1.370118 -2.134798 -4.253341 0
M  V30 50 H -1.847803 -4.517826 -4.212061 0
M  V30 51 H -0.722124 -6.058258 -2.578571 0
M  V30 52 H -0.968239 -3.669242 3.360037 0
M  V30 END ATOM
M  V30 BEGIN BOND
M  V30 1 1 1 2
M  V30 2 1 2 3
M  V30 3 2 3 4
M  V30 4 1 4 5
M  V30 5 1 5 6
M  V30 6 1 6 7
M  V30 7 2 7 8
M  V30 8 1 8 9
M  V30 9 1 9 10
M  V30 10 1 10 11
M  V30 11 1 11 12
M  V30 12 1 11 13
M  V30 13 2 13 14
M  V30 14 1 14 15
M  V30 15 2 15 16
M  V30 16 1 16 17
M  V30 17 1 16 18
M  V30 18 2 18 19
M  V30 19 2 9 20
M  V30 20 1 20 21
M  V30 21 2 21 22
M  V30 22 1 22 23
M  V30 23 2 23 24
M  V30 24 1 24 25
M  V30 25 1 25 26
M  V30 26 2 25 27
M  V30 27 2 5 28
M  V30 28 1 28 29
M  V30 29 1 29 3
M  V30 30 1 27 7
M  V30 31 1 19 13
M  V30 32 1 27 21
M  V30 33 1 1 30
M  V30 34 1 1 31
M  V30 35 1 1 32
M  V30 36 1 2 33
M  V30 37 1 2 34
M  V30 38 1 4 35
M  V30 39 1 6 36
M  V30 40 1 10 37
M  V30 41 1 11 38 CFG=1
M  V30 42 1 12 39
M  V30 43 1 12 40
M  V30 44 1 12 41
M  V30 45 1 14 42
M  V30 46 1 15 43
M  V30 47 1 17 44
M  V30 48 1 17 45
M  V30 49 1 17 46
M  V30 50 1 18 47
M  V30 51 1 19 48
M  V30 52 1 22 49
M  V30 53 1 23 50
M  V30 54 1 24 51
M  V30 55 1 29 52
M  V30 END BOND
M  V30 END CTAB
M  END
>  <Dataset>  (760) 
ChEMBL_Kinases

>  <Ligand_Instance>  (760) 
nan

>  <PDB_ID>  (760) 
nan

>  <Standardized_SMILES>  (760) 
CCc1cc(Nc2nc(N[C@@H](C)c3ccc(C)cc3)nc3cccc(F)c23)n[nH]1

>  <Name>  (760) 
nan

>  <Pocket>  (760) 
nan

>  <ATP_Site>  (760) 
nan

>  <Peripheral>  (760) 
nan

>  <Num_H_Atoms_ProtBoundConf>  (760) 
nan

>  <Num_Resolved_Atoms>  (760) 
nan

>  <Num_Not_Resolved_Atoms>  (760) 
nan

$$$$
CHEMBL4850787
     RDKit          3D

  0  0  0  0  0  0  0  0  0  0999 V3000
M  V30 BEGIN CTAB
M  V30 COUNTS 59 63 0 0 0
M  V30 BEGIN ATOM
M  V30 1 C 5.694168 -2.577863 5.855778 0
M  V30 2 N 4.754357 -3.120566 4.921673 0
M  V30 3 C 5.307264 -4.005297 3.942693 0
M  V30 4 C 3.919478 -2.135867 4.283392 0
M  V30 5 C 4.682725 -1.239801 3.344789 0
M  V30 6 N 3.761568 -0.298770 2.761303 0
M  V30 7 C 3.142758 -0.644079 1.599608 0
M  V30 8 C 2.319640 0.405855 1.245358 0
M  V30 9 C 1.426806 0.585567 0.102153 0
M  V30 10 C 0.252899 1.319213 0.126942 0
M  V30 11 C -0.501045 1.409995 -1.025523 0
M  V30 12 C -0.045049 0.760929 -2.151557 0
M  V30 13 C -0.814420 0.872160 -3.290450 0
M  V30 14 N -2.052937 1.595475 -3.410065 0
M  V30 15 C -3.304001 1.373377 -2.713216 0
M  V30 16 C -4.328132 2.286224 -2.816464 0
M  V30 17 C -5.449183 1.914610 -2.106625 0
M  V30 18 N -5.583969 0.810057 -1.385424 0
M  V30 19 C -4.591718 -0.088832 -1.276603 0
M  V30 20 C -4.842518 -1.265004 -0.463984 0
M  V30 21 C -6.074249 -1.391208 0.142955 0
M  V30 22 C -6.422186 -2.459265 0.931728 0
M  V30 23 F -7.633128 -2.557274 1.513584 0
M  V30 24 C -5.535245 -3.484258 1.161815 0
M  V30 25 C -4.286517 -3.398100 0.571752 0
M  V30 26 C -3.996159 -2.312851 -0.202636 0
M  V30 27 F -2.771257 -2.300889 -0.738171 0
M  V30 28 C -3.442076 0.223038 -1.962731 0
M  V30 29 C -0.414757 0.250695 -4.465795 0
M  V30 30 C 0.756235 -0.487662 -4.512833 0
M  V30 31 N 1.473517 -0.570995 -3.383823 0
M  V30 32 C 1.112120 0.019210 -2.234322 0
M  V30 33 C 1.849161 -0.056147 -1.067582 0
M  V30 34 C 2.455844 1.393783 2.220603 0
M  V30 35 N 3.344105 0.906790 3.112452 0
M  V30 36 H 5.811090 -1.476675 5.816689 0
M  V30 37 H 5.257810 -2.783860 6.877126 0
M  V30 38 H 6.660428 -3.125503 5.747216 0
M  V30 39 H 6.374234 -3.722739 3.784731 0
M  V30 40 H 4.759168 -3.877975 2.993591 0
M  V30 41 H 5.181470 -5.039389 4.322602 0
M  V30 42 H 3.095870 -2.618634 3.760530 0
M  V30 43 H 3.464031 -1.469836 5.061994 0
M  V30 44 H 5.425447 -0.685367 3.981965 0
M  V30 45 H 5.276246 -1.784783 2.610134 0
M  V30 46 H 3.147539 -1.502587 0.928948 0
M  V30 47 H -0.009303 1.785860 1.062318 0
M  V30 48 H -1.412986 1.989298 -1.004694 0
M  V30 49 H -2.027021 2.382755 -4.099115 0
M  V30 50 H -4.228002 3.178283 -3.396245 0
M  V30 51 H -6.324037 2.583646 -2.128685 0
M  V30 52 H -6.855479 -0.641177 0.031587 0
M  V30 53 H -5.784997 -4.331880 1.776427 0
M  V30 54 H -3.598804 -4.189627 0.748464 0
M  V30 55 H -2.612364 -0.455054 -1.916520 0
M  V30 56 H -0.983351 0.308337 -5.388260 0
M  V30 57 H 1.145090 -1.004321 -5.380053 0
M  V30 58 H 2.776360 -0.640933 -1.103720 0
M  V30 59 H 1.966330 2.374974 2.291744 0
M  V30 END ATOM
M  V30 BEGIN BOND
M  V30 1 1 1 2
M  V30 2 1 2 3
M  V30 3 1 2 4
M  V30 4 1 4 5
M  V30 5 1 5 6
M  V30 6 1 6 7
M  V30 7 2 7 8
M  V30 8 1 8 9
M  V30 9 2 9 10
M  V30 10 1 10 11
M  V30 11 2 11 12
M  V30 12 1 12 13
M  V30 13 1 13 14
M  V30 14 1 14 15
M  V30 15 2 15 16
M  V30 16 1 16 17
M  V30 17 2 17 18
M  V30 18 1 18 19
M  V30 19 1 19 20
M  V30 20 2 20 21
M  V30 21 1 21 22
M  V30 22 1 22 23
M  V30 23 2 22 24
M  V30 24 1 24 25
M  V30 25 2 25 26
M  V30 26 1 26 27
M  V30 27 2 19 28
M  V30 28 2 13 29
M  V30 29 1 29 30
M  V30 30 2 30 31
M  V30 31 1 31 32
M  V30 32 2 32 33
M  V30 33 1 8 34
M  V30 34 2 34 35
M  V30 35 1 35 6
M  V30 36 1 33 9
M  V30 37 1 32 12
M  V30 38 1 28 15
M  V30 39 1 26 20
M  V30 40 1 1 36
M  V30 41 1 1 37
M  V30 42 1 1 38
M  V30 43 1 3 39
M  V30 44 1 3 40
M  V30 45 1 3 41
M  V30 46 1 4 42
M  V30 47 1 4 43
M  V30 48 1 5 44
M  V30 49 1 5 45
M  V30 50 1 7 46
M  V30 51 1 10 47
M  V30 52 1 11 48
M  V30 53 1 14 49
M  V30 54 1 16 50
M  V30 55 1 17 51
M  V30 56 1 21 52
M  V30 57 1 24 53
M  V30 58 1 25 54
M  V30 59 1 28 55
M  V30 60 1 29 56
M  V30 61 1 30 57
M  V30 62 1 33 58
M  V30 63 1 34 59
M  V30 END BOND
M  V30 END CTAB
M  END
>  <Dataset>  (761) 
ChEMBL_Kinases

>  <Ligand_Instance>  (761) 
nan

>  <PDB_ID>  (761) 
nan

>  <Standardized_SMILES>  (761) 
CN(C)CCn1cc(-c2ccc3c(Nc4ccnc(-c5cc(F)ccc5F)c4)ccnc3c2)cn1

>  <Name>  (761) 
nan

>  <Pocket>  (761) 
nan

>  <ATP_Site>  (761) 
nan

>  <Peripheral>  (761) 
nan

>  <Num_H_Atoms_ProtBoundConf>  (761) 
nan

>  <Num_Resolved_Atoms>  (761) 
nan

>  <Num_Not_Resolved_Atoms>  (761) 
nan

$$$$
CHEMBL4850874
     RDKit          3D

  0  0  0  0  0  0  0  0  0  0999 V3000
M  V30 BEGIN CTAB
M  V30 COUNTS 51 53 0 0 0
M  V30 BEGIN ATOM
M  V30 1 C -0.394235 -4.417848 -1.430520 0
M  V30 2 C -0.290121 -4.206162 0.038545 0
M  V30 3 C 0.450817 -5.297175 0.755264 0
M  V30 4 C 0.284949 -2.802737 0.299747 0 CFG=2
M  V30 5 N 0.720530 -2.579685 1.647896 0
M  V30 6 C 1.296505 -1.393737 2.151168 0
M  V30 7 C 1.528577 -0.263640 1.405982 0
M  V30 8 C 2.088200 0.915037 1.855031 0
M  V30 9 N 2.326659 2.066306 1.093243 0
M  V30 10 C 2.106351 2.616426 -0.190131 0
M  V30 11 C 1.000558 3.556833 -0.360567 0
M  V30 12 C 1.456204 4.889610 -0.417453 0
M  V30 13 N 0.722676 6.010865 -0.577486 0
M  V30 14 C -0.622426 5.901617 -0.703474 0
M  V30 15 C -1.141534 4.623302 -0.656599 0
M  V30 16 C -0.354061 3.511502 -0.492268 0
M  V30 17 C -0.871915 2.120732 -0.420186 0
M  V30 18 F -0.293835 1.332069 -1.373430 0
M  V30 19 F -0.854851 1.628461 0.841773 0
M  V30 20 F -2.247305 2.243413 -0.739740 0
M  V30 21 N 2.417578 0.898462 3.151593 0
M  V30 22 C 2.239357 -0.134243 3.963232 0
M  V30 23 C 1.676914 -1.287369 3.465659 0
M  V30 24 C 1.504561 -2.378221 4.376938 0
M  V30 25 N 1.372566 -3.268324 5.103509 0
M  V30 26 C -1.178731 -2.342584 0.196068 0
M  V30 27 C -1.511390 -3.714036 0.765186 0 CFG=1
M  V30 28 C -2.792521 -4.292137 0.394310 0
M  V30 29 N -3.864547 -3.738664 1.151030 0
M  V30 30 O -3.758011 -4.931187 -0.094441 0
M  V30 31 H 0.143625 -3.632005 -2.024718 0
M  V30 32 H -1.431880 -4.561954 -1.791881 0
M  V30 33 H 0.132561 -5.360359 -1.690998 0
M  V30 34 H 0.233197 -5.329535 1.836199 0
M  V30 35 H 0.063806 -6.258429 0.324766 0
M  V30 36 H 1.539532 -5.219643 0.583827 0
M  V30 37 H 0.922413 -2.432755 -0.504483 0
M  V30 38 H 0.593167 -3.378216 2.307021 0
M  V30 39 H 1.241642 -0.296940 0.346596 0
M  V30 40 H 2.845317 2.852220 1.588522 0
M  V30 41 H 1.900997 1.732277 -0.893593 0
M  V30 42 H 3.074218 3.012966 -0.621057 0
M  V30 43 H 2.504920 5.195503 -0.335932 0
M  V30 44 H -1.371250 6.658207 -0.837310 0
M  V30 45 H -2.202198 4.412254 -0.746312 0
M  V30 46 H 2.555085 -0.013400 5.004525 0
M  V30 47 H -1.476144 -1.580097 0.925725 0
M  V30 48 H -1.556747 -2.242736 -0.823648 0
M  V30 49 H -1.345184 -3.819743 1.859732 0
M  V30 50 H -4.520757 -2.960075 1.416980 0
M  V30 51 H -4.616137 -3.171132 1.600822 0
M  V30 END ATOM
M  V30 BEGIN BOND
M  V30 1 1 1 2
M  V30 2 1 2 3
M  V30 3 1 2 4
M  V30 4 1 4 5
M  V30 5 1 5 6
M  V30 6 2 6 7
M  V30 7 1 7 8
M  V30 8 1 8 9
M  V30 9 1 9 10
M  V30 10 1 10 11
M  V30 11 2 11 12
M  V30 12 1 12 13
M  V30 13 2 13 14
M  V30 14 1 14 15
M  V30 15 2 15 16
M  V30 16 1 16 17
M  V30 17 1 17 18
M  V30 18 1 17 19
M  V30 19 1 17 20
M  V30 20 2 8 21
M  V30 21 1 21 22
M  V30 22 2 22 23
M  V30 23 1 23 24
M  V30 24 3 24 25
M  V30 25 1 4 26
M  V30 26 1 26 27
M  V30 27 1 27 28
M  V30 28 1 28 29
M  V30 29 2 28 30
M  V30 30 1 27 2
M  V30 31 1 23 6
M  V30 32 1 16 11
M  V30 33 1 1 31
M  V30 34 1 1 32
M  V30 35 1 1 33
M  V30 36 1 3 34
M  V30 37 1 3 35
M  V30 38 1 3 36
M  V30 39 1 4 37 CFG=3
M  V30 40 1 5 38
M  V30 41 1 7 39
M  V30 42 1 9 40
M  V30 43 1 10 41
M  V30 44 1 10 42
M  V30 45 1 12 43
M  V30 46 1 14 44
M  V30 47 1 15 45
M  V30 48 1 22 46
M  V30 49 1 26 47
M  V30 50 1 26 48
M  V30 51 1 27 49 CFG=1
M  V30 52 1 29 50
M  V30 53 1 29 51
M  V30 END BOND
M  V30 END CTAB
M  END
>  <Dataset>  (762) 
ChEMBL_Kinases

>  <Ligand_Instance>  (762) 
nan

>  <PDB_ID>  (762) 
nan

>  <Standardized_SMILES>  (762) 
CC1(C)[C@H](Nc2cc(NCc3cnccc3C(F)(F)F)ncc2C#N)C[C@H]1C(N)=O

>  <Name>  (762) 
nan

>  <Pocket>  (762) 
nan

>  <ATP_Site>  (762) 
nan

>  <Peripheral>  (762) 
nan

>  <Num_H_Atoms_ProtBoundConf>  (762) 
nan

>  <Num_Resolved_Atoms>  (762) 
nan

>  <Num_Not_Resolved_Atoms>  (762) 
nan

$$$$
CHEMBL4850894
     RDKit          3D

  0  0  0  0  0  0  0  0  0  0999 V3000
M  V30 BEGIN CTAB
M  V30 COUNTS 40 43 0 0 0
M  V30 BEGIN ATOM
M  V30 1 C 0.463067 -5.984051 -1.498842 0
M  V30 2 O 1.072687 -5.587508 -0.292607 0
M  V30 3 C 1.423586 -4.272712 0.009504 0
M  V30 4 C 2.005819 -4.166060 1.259744 0
M  V30 5 C 2.405236 -2.893804 1.684587 0
M  V30 6 C 2.214605 -1.797978 0.867092 0
M  V30 7 C 1.640406 -1.914206 -0.361906 0
M  V30 8 C 1.377246 -0.851784 -1.327713 0
M  V30 9 N 1.616188 -0.880115 -2.650345 0
M  V30 10 N 1.245122 0.276218 -3.209576 0
M  V30 11 C 0.762684 1.062011 -2.250813 0
M  V30 12 N 0.258385 2.307307 -2.244373 0
M  V30 13 C -0.176458 2.910327 -1.134366 0
M  V30 14 C -0.138541 2.291347 0.097347 0
M  V30 15 N -0.594082 2.966773 1.258423 0
M  V30 16 C -1.052371 2.508314 2.521986 0
M  V30 17 C -1.023982 3.313427 3.642207 0
M  V30 18 C -1.485267 2.863842 4.856929 0
M  V30 19 C -1.998427 1.596455 5.028688 0
M  V30 20 C -2.042667 0.763726 3.930213 0
M  V30 21 C -1.571846 1.246768 2.726695 0
M  V30 22 C 0.379803 1.021046 0.071154 0
M  V30 23 C 0.831453 0.388229 -1.067734 0
M  V30 24 C 1.238430 -3.184364 -0.793173 0
M  V30 25 H -0.641510 -5.970519 -1.358532 0
M  V30 26 H 0.757103 -5.342635 -2.356784 0
M  V30 27 H 0.763731 -7.038684 -1.727484 0
M  V30 28 H 2.186273 -4.986479 1.955267 0
M  V30 29 H 2.877523 -2.685056 2.654612 0
M  V30 30 H 2.507525 -0.802300 1.155921 0
M  V30 31 H 1.343757 0.471921 -4.242764 0
M  V30 32 H -0.580781 3.931163 -1.181602 0
M  V30 33 H -0.596888 4.010236 1.178490 0
M  V30 34 H -0.628431 4.329579 3.569981 0
M  V30 35 H -1.433484 3.551934 5.700761 0
M  V30 36 H -2.337929 1.323102 6.011900 0
M  V30 37 H -2.442614 -0.217740 4.073631 0
M  V30 38 H -1.658887 0.529468 1.931747 0
M  V30 39 H 0.467552 0.448497 0.976644 0
M  V30 40 H 0.769464 -3.384142 -1.759083 0
M  V30 END ATOM
M  V30 BEGIN BOND
M  V30 1 1 1 2
M  V30 2 1 2 3
M  V30 3 2 3 4
M  V30 4 1 4 5
M  V30 5 2 5 6
M  V30 6 1 6 7
M  V30 7 1 7 8
M  V30 8 2 8 9
M  V30 9 1 9 10
M  V30 10 1 10 11
M  V30 11 2 11 12
M  V30 12 1 12 13
M  V30 13 2 13 14
M  V30 14 1 14 15
M  V30 15 1 15 16
M  V30 16 2 16 17
M  V30 17 1 17 18
M  V30 18 2 18 19
M  V30 19 1 19 20
M  V30 20 2 20 21
M  V30 21 1 14 22
M  V30 22 2 22 23
M  V30 23 2 7 24
M  V30 24 1 24 3
M  V30 25 1 23 8
M  V30 26 1 23 11
M  V30 27 1 21 16
M  V30 28 1 1 25
M  V30 29 1 1 26
M  V30 30 1 1 27
M  V30 31 1 4 28
M  V30 32 1 5 29
M  V30 33 1 6 30
M  V30 34 1 10 31
M  V30 35 1 13 32
M  V30 36 1 15 33
M  V30 37 1 17 34
M  V30 38 1 18 35
M  V30 39 1 19 36
M  V30 40 1 20 37
M  V30 41 1 21 38
M  V30 42 1 22 39
M  V30 43 1 24 40
M  V30 END BOND
M  V30 END CTAB
M  END
>  <Dataset>  (763) 
ChEMBL_Kinases

>  <Ligand_Instance>  (763) 
nan

>  <PDB_ID>  (763) 
nan

>  <Standardized_SMILES>  (763) 
COc1cccc(-c2n[nH]c3ncc(Nc4ccccc4)cc23)c1

>  <Name>  (763) 
nan

>  <Pocket>  (763) 
nan

>  <ATP_Site>  (763) 
nan

>  <Peripheral>  (763) 
nan

>  <Num_H_Atoms_ProtBoundConf>  (763) 
nan

>  <Num_Resolved_Atoms>  (763) 
nan

>  <Num_Not_Resolved_Atoms>  (763) 
nan

$$$$
CHEMBL4871570
     RDKit          3D

  0  0  0  0  0  0  0  0  0  0999 V3000
M  V30 BEGIN CTAB
M  V30 COUNTS 49 52 0 0 0
M  V30 BEGIN ATOM
M  V30 1 C -4.222682 -5.638898 -1.106385 0
M  V30 2 O -3.237025 -5.104289 -0.277193 0
M  V30 3 C -2.318613 -4.129001 -0.622674 0
M  V30 4 C -2.272044 -3.553089 -1.875385 0
M  V30 5 C -1.355695 -2.575967 -2.229325 0
M  V30 6 C -0.456316 -2.186624 -1.240237 0
M  V30 7 C 0.500522 -1.157155 -1.629021 0
M  V30 8 C 0.943429 -1.098304 -2.943557 0
M  V30 9 N 1.832250 -0.148948 -3.325489 0
M  V30 10 C 2.307912 0.764505 -2.429456 0
M  V30 11 N 3.176852 1.782460 -2.556653 0
M  V30 12 N 3.301721 2.371196 -1.372826 0
M  V30 13 C 2.525889 1.759978 -0.450561 0
M  V30 14 C 2.384266 2.104875 0.962564 0
M  V30 15 C 3.557888 2.357398 1.626771 0
M  V30 16 C 3.505453 2.692118 2.974083 0
M  V30 17 C 2.264622 2.752399 3.574067 0
M  V30 18 C 1.097126 2.494239 2.885361 0
M  V30 19 N -0.142941 2.579524 3.586186 0
M  V30 20 C -0.755816 1.489536 4.260248 0
M  V30 21 C -2.063185 1.802818 4.935266 0
M  V30 22 O -0.269342 0.333882 4.309705 0
M  V30 23 C 1.130819 2.156561 1.531803 0
M  V30 24 C 1.887139 0.730604 -1.120640 0
M  V30 25 C 0.979177 -0.237603 -0.726186 0
M  V30 26 C -0.485507 -2.749682 0.019110 0
M  V30 27 C -1.417562 -3.727190 0.340757 0
M  V30 28 O -1.458333 -4.301741 1.602847 0
M  V30 29 C -0.526527 -3.886896 2.599914 0
M  V30 30 H -5.218940 -5.137041 -0.942520 0
M  V30 31 H -4.013143 -5.546032 -2.189408 0
M  V30 32 H -4.377422 -6.741076 -0.940680 0
M  V30 33 H -2.969704 -3.855250 -2.642419 0
M  V30 34 H -1.345346 -2.148900 -3.209762 0
M  V30 35 H 0.607305 -1.792348 -3.709172 0
M  V30 36 H 3.694018 2.100413 -3.414807 0
M  V30 37 H 4.536529 2.312074 1.161579 0
M  V30 38 H 4.431952 2.889732 3.491217 0
M  V30 39 H 2.201851 3.011139 4.622282 0
M  V30 40 H -0.536453 3.545259 3.537175 0
M  V30 41 H -2.725350 0.930445 5.008999 0
M  V30 42 H -2.593292 2.624349 4.457011 0
M  V30 43 H -1.815154 2.103311 5.979752 0
M  V30 44 H 0.227098 1.959900 1.010365 0
M  V30 45 H 0.639009 -0.285882 0.276797 0
M  V30 46 H 0.236086 -2.409785 0.748404 0
M  V30 47 H -0.678403 -2.834520 2.910044 0
M  V30 48 H -0.650997 -4.503309 3.511518 0
M  V30 49 H 0.529782 -4.006636 2.276130 0
M  V30 END ATOM
M  V30 BEGIN BOND
M  V30 1 1 1 2
M  V30 2 1 2 3
M  V30 3 2 3 4
M  V30 4 1 4 5
M  V30 5 2 5 6
M  V30 6 1 6 7
M  V30 7 2 7 8
M  V30 8 1 8 9
M  V30 9 2 9 10
M  V30 10 1 10 11
M  V30 11 1 11 12
M  V30 12 2 12 13
M  V30 13 1 13 14
M  V30 14 2 14 15
M  V30 15 1 15 16
M  V30 16 2 16 17
M  V30 17 1 17 18
M  V30 18 1 18 19
M  V30 19 1 19 20
M  V30 20 1 20 21
M  V30 21 2 20 22
M  V30 22 2 18 23
M  V30 23 1 13 24
M  V30 24 2 24 25
M  V30 25 1 6 26
M  V30 26 2 26 27
M  V30 27 1 27 28
M  V30 28 1 28 29
M  V30 29 1 27 3
M  V30 30 1 25 7
M  V30 31 1 24 10
M  V30 32 1 23 14
M  V30 33 1 1 30
M  V30 34 1 1 31
M  V30 35 1 1 32
M  V30 36 1 4 33
M  V30 37 1 5 34
M  V30 38 1 8 35
M  V30 39 1 11 36
M  V30 40 1 15 37
M  V30 41 1 16 38
M  V30 42 1 17 39
M  V30 43 1 19 40
M  V30 44 1 21 41
M  V30 45 1 21 42
M  V30 46 1 21 43
M  V30 47 1 23 44
M  V30 48 1 25 45
M  V30 49 1 26 46
M  V30 50 1 29 47
M  V30 51 1 29 48
M  V30 52 1 29 49
M  V30 END BOND
M  V30 END CTAB
M  END
>  <Dataset>  (764) 
ChEMBL_Kinases

>  <Ligand_Instance>  (764) 
nan

>  <PDB_ID>  (764) 
nan

>  <Standardized_SMILES>  (764) 
COc1ccc(-c2cnc3[nH]nc(-c4cccc(NC(C)=O)c4)c3c2)cc1OC

>  <Name>  (764) 
nan

>  <Pocket>  (764) 
nan

>  <ATP_Site>  (764) 
nan

>  <Peripheral>  (764) 
nan

>  <Num_H_Atoms_ProtBoundConf>  (764) 
nan

>  <Num_Resolved_Atoms>  (764) 
nan

>  <Num_Not_Resolved_Atoms>  (764) 
nan

$$$$
CHEMBL4850280
     RDKit          3D

  0  0  0  0  0  0  0  0  0  0999 V3000
M  V30 BEGIN CTAB
M  V30 COUNTS 64 69 0 0 0
M  V30 BEGIN ATOM
M  V30 1 C 3.907940 -0.528082 5.168512 0
M  V30 2 C 3.937229 -1.814645 4.359294 0
M  V30 3 N 3.882211 -1.530797 2.945126 0
M  V30 4 C 4.952918 -1.332844 2.154530 0
M  V30 5 O 6.172102 -1.353275 2.470675 0
M  V30 6 C 4.439646 -1.096443 0.894355 0
M  V30 7 C 5.002198 -0.827992 -0.334501 0
M  V30 8 N 4.203728 -0.642508 -1.392850 0
M  V30 9 C 2.874418 -0.694200 -1.371546 0
M  V30 10 N 2.103758 -0.483965 -2.546967 0
M  V30 11 C 0.711935 -0.502098 -2.708036 0
M  V30 12 C 0.166350 -0.269196 -3.952591 0
M  V30 13 C -1.182714 -0.266816 -4.208170 0
M  V30 14 C -2.064622 -0.508414 -3.178915 0
M  V30 15 C -1.599172 -0.750341 -1.903878 0
M  V30 16 C -0.227297 -0.735589 -1.728653 0
M  V30 17 C -2.491616 -1.013963 -0.759000 0
M  V30 18 N -3.768064 -1.554012 -1.085256 0
M  V30 19 C -3.993936 -1.766322 -2.478047 0
M  V30 20 C -3.565728 -0.542355 -3.299659 0
M  V30 21 C -4.209244 0.681095 -2.727058 0
M  V30 22 C -4.002291 -0.743124 -4.714836 0
M  V30 23 N 2.372858 -0.957588 -0.157050 0
M  V30 24 C 3.065792 -1.158630 0.959743 0
M  V30 25 N 2.773042 -1.428842 2.245077 0
M  V30 26 C 1.395521 -1.560713 2.654612 0
M  V30 27 C 0.760970 -2.734772 2.980580 0
M  V30 28 C -0.564655 -2.704412 3.355328 0
M  V30 29 C -1.212486 -1.486767 3.390142 0
M  V30 30 C -0.568343 -0.307809 3.060831 0
M  V30 31 C -1.227472 1.026549 3.084605 0
M  V30 32 C -0.662503 2.031102 2.165352 0
M  V30 33 N -0.209330 2.817556 1.430394 0
M  V30 34 C -2.629478 1.206463 3.463684 0
M  V30 35 C -1.542799 1.590599 4.443105 0
M  V30 36 N 0.726174 -0.375161 2.699518 0
M  V30 37 H 3.121926 -0.539093 5.960589 0
M  V30 38 H 3.785559 0.362755 4.519126 0
M  V30 39 H 4.882086 -0.422342 5.674115 0
M  V30 40 H 3.029556 -2.379456 4.661512 0
M  V30 41 H 4.799380 -2.458100 4.631708 0
M  V30 42 H 6.082192 -0.766972 -0.446028 0
M  V30 43 H 2.680291 -0.286173 -3.418326 0
M  V30 44 H 0.778954 -0.070415 -4.819828 0
M  V30 45 H -1.602798 -0.087505 -5.166418 0
M  V30 46 H 0.120996 -0.926917 -0.724279 0
M  V30 47 H -2.641900 -0.082151 -0.144822 0
M  V30 48 H -1.974652 -1.733979 -0.092880 0
M  V30 49 H -4.560469 -1.168124 -0.558903 0
M  V30 50 H -3.285906 -2.582987 -2.805157 0
M  V30 51 H -5.038468 -2.045217 -2.655402 0
M  V30 52 H -4.860202 0.425877 -1.841105 0
M  V30 53 H -3.438543 1.394258 -2.314254 0
M  V30 54 H -4.866147 1.204624 -3.442991 0
M  V30 55 H -3.258390 -1.344827 -5.288374 0
M  V30 56 H -4.172564 0.257098 -5.192303 0
M  V30 57 H -4.948736 -1.310589 -4.721344 0
M  V30 58 H 1.366270 -3.625251 2.917591 0
M  V30 59 H -1.049886 -3.636151 3.608747 0
M  V30 60 H -2.250204 -1.447918 3.681643 0
M  V30 61 H -3.198574 2.046753 2.998375 0
M  V30 62 H -3.226540 0.342027 3.780894 0
M  V30 63 H -1.353303 0.932765 5.316633 0
M  V30 64 H -1.436500 2.680943 4.636742 0
M  V30 END ATOM
M  V30 BEGIN BOND
M  V30 1 1 1 2
M  V30 2 1 2 3
M  V30 3 1 3 4
M  V30 4 2 4 5
M  V30 5 1 4 6
M  V30 6 2 6 7
M  V30 7 1 7 8
M  V30 8 2 8 9
M  V30 9 1 9 10
M  V30 10 1 10 11
M  V30 11 2 11 12
M  V30 12 1 12 13
M  V30 13 2 13 14
M  V30 14 1 14 15
M  V30 15 2 15 16
M  V30 16 1 15 17
M  V30 17 1 17 18
M  V30 18 1 18 19
M  V30 19 1 19 20
M  V30 20 1 20 21
M  V30 21 1 20 22
M  V30 22 1 9 23
M  V30 23 2 23 24
M  V30 24 1 24 25
M  V30 25 1 25 26
M  V30 26 2 26 27
M  V30 27 1 27 28
M  V30 28 2 28 29
M  V30 29 1 29 30
M  V30 30 1 30 31
M  V30 31 1 31 32
M  V30 32 3 32 33
M  V30 33 1 31 34
M  V30 34 1 34 35
M  V30 35 2 30 36
M  V30 36 1 25 3
M  V30 37 1 36 26
M  V30 38 1 24 6
M  V30 39 1 35 31
M  V30 40 1 16 11
M  V30 41 1 20 14
M  V30 42 1 1 37
M  V30 43 1 1 38
M  V30 44 1 1 39
M  V30 45 1 2 40
M  V30 46 1 2 41
M  V30 47 1 7 42
M  V30 48 1 10 43
M  V30 49 1 12 44
M  V30 50 1 13 45
M  V30 51 1 16 46
M  V30 52 1 17 47
M  V30 53 1 17 48
M  V30 54 1 18 49
M  V30 55 1 19 50
M  V30 56 1 19 51
M  V30 57 1 21 52
M  V30 58 1 21 53
M  V30 59 1 21 54
M  V30 60 1 22 55
M  V30 61 1 22 56
M  V30 62 1 22 57
M  V30 63 1 27 58
M  V30 64 1 28 59
M  V30 65 1 29 60
M  V30 66 1 34 61
M  V30 67 1 34 62
M  V30 68 1 35 63
M  V30 69 1 35 64
M  V30 END BOND
M  V30 END CTAB
M  END
>  <Dataset>  (765) 
ChEMBL_Kinases

>  <Ligand_Instance>  (765) 
nan

>  <PDB_ID>  (765) 
nan

>  <Standardized_SMILES>  (765) 
CCn1c(=O)c2cnc(Nc3ccc4c(c3)CNCC4(C)C)nc2n1-c1cccc(C2(C#N)CC2)n1

>  <Name>  (765) 
nan

>  <Pocket>  (765) 
nan

>  <ATP_Site>  (765) 
nan

>  <Peripheral>  (765) 
nan

>  <Num_H_Atoms_ProtBoundConf>  (765) 
nan

>  <Num_Resolved_Atoms>  (765) 
nan

>  <Num_Not_Resolved_Atoms>  (765) 
nan

$$$$
CHEMBL4848427
     RDKit          3D

  0  0  0  0  0  0  0  0  0  0999 V3000
M  V30 BEGIN CTAB
M  V30 COUNTS 55 60 0 0 0
M  V30 BEGIN ATOM
M  V30 1 O 0.116537 -6.343781 1.322493 0
M  V30 2 C -0.076985 -5.203632 0.810496 0
M  V30 3 C 0.804700 -4.077313 0.545195 0
M  V30 4 C 0.604522 -2.992886 1.401306 0
M  V30 5 C 1.372677 -1.829289 1.234986 0
M  V30 6 C 2.335976 -1.757081 0.215105 0
M  V30 7 C 3.058329 -0.470599 0.111527 0
M  V30 8 C 4.357320 -0.271421 -0.294019 0
M  V30 9 C 4.887756 1.007652 -0.359822 0
M  V30 10 C 4.071845 2.085840 -0.005546 0
M  V30 11 N 4.366748 3.412215 -0.000704 0
M  V30 12 C 3.272495 4.072556 0.403838 0
M  V30 13 C 2.258020 3.178113 0.665886 0
M  V30 14 C 0.842011 3.210542 1.104809 0
M  V30 15 C 0.635271 3.026854 2.474341 0
M  V30 16 C -0.659615 2.986674 3.028800 0
M  V30 17 C -1.621654 3.143318 2.072495 0
M  V30 18 N -2.899639 3.087837 2.566881 0
M  V30 19 C -3.984275 3.205938 1.782179 0
M  V30 20 C -3.851686 3.392394 0.421155 0
M  V30 21 C -2.584178 3.460496 -0.156942 0
M  V30 22 C -1.548264 3.329423 0.719589 0
M  V30 23 C -0.237465 3.360190 0.248377 0
M  V30 24 N 2.797357 1.944663 0.397565 0
M  V30 25 C 2.367346 0.680975 0.432416 0
M  V30 26 C 2.512227 -2.842411 -0.612727 0
M  V30 27 C 1.741754 -3.990917 -0.435329 0
M  V30 28 N -1.421507 -4.936704 0.399919 0
M  V30 29 C -2.536135 -5.884755 0.547727 0
M  V30 30 C -3.169960 -5.981302 -0.829139 0
M  V30 31 O -3.946717 -4.830237 -0.996118 0
M  V30 32 C -3.409965 -3.737713 -0.365122 0
M  V30 33 C -1.919165 -3.746135 -0.212829 0
M  V30 34 H -0.134057 -3.007272 2.217919 0
M  V30 35 H 1.161398 -1.032479 1.945274 0
M  V30 36 H 4.902829 -1.193171 -0.549465 0
M  V30 37 H 5.910131 1.116696 -0.680994 0
M  V30 38 H 3.039963 5.120481 0.560406 0
M  V30 39 H 1.481086 2.906803 3.163477 0
M  V30 40 H -0.870423 2.849096 4.074502 0
M  V30 41 H -4.974335 3.153530 2.211828 0
M  V30 42 H -4.701972 3.490355 -0.254738 0
M  V30 43 H -2.362543 3.599327 -1.192563 0
M  V30 44 H -0.004664 3.498273 -0.792711 0
M  V30 45 H 1.332316 0.542704 0.750459 0
M  V30 46 H 3.262825 -2.752540 -1.381816 0
M  V30 47 H 1.882266 -4.838615 -1.083802 0
M  V30 48 H -3.327898 -5.438546 1.197989 0
M  V30 49 H -2.233744 -6.847989 0.959882 0
M  V30 50 H -2.389841 -6.034812 -1.605718 0
M  V30 51 H -3.841154 -6.859950 -0.906411 0
M  V30 52 H -3.693495 -2.849832 -1.005819 0
M  V30 53 H -3.902629 -3.560677 0.636722 0
M  V30 54 H -1.453249 -3.632965 -1.226184 0
M  V30 55 H -1.673407 -2.858859 0.430223 0
M  V30 END ATOM
M  V30 BEGIN BOND
M  V30 1 2 1 2
M  V30 2 1 2 3
M  V30 3 2 3 4
M  V30 4 1 4 5
M  V30 5 2 5 6
M  V30 6 1 6 7
M  V30 7 1 7 8
M  V30 8 2 8 9
M  V30 9 1 9 10
M  V30 10 2 10 11
M  V30 11 1 11 12
M  V30 12 2 12 13
M  V30 13 1 13 14
M  V30 14 2 14 15
M  V30 15 1 15 16
M  V30 16 2 16 17
M  V30 17 1 17 18
M  V30 18 2 18 19
M  V30 19 1 19 20
M  V30 20 2 20 21
M  V30 21 1 21 22
M  V30 22 2 22 23
M  V30 23 1 13 24
M  V30 24 1 24 25
M  V30 25 1 6 26
M  V30 26 2 26 27
M  V30 27 1 2 28
M  V30 28 1 28 29
M  V30 29 1 29 30
M  V30 30 1 30 31
M  V30 31 1 31 32
M  V30 32 1 32 33
M  V30 33 1 27 3
M  V30 34 1 33 28
M  V30 35 2 25 7
M  V30 36 1 24 10
M  V30 37 1 23 14
M  V30 38 1 22 17
M  V30 39 1 4 34
M  V30 40 1 5 35
M  V30 41 1 8 36
M  V30 42 1 9 37
M  V30 43 1 12 38
M  V30 44 1 15 39
M  V30 45 1 16 40
M  V30 46 1 19 41
M  V30 47 1 20 42
M  V30 48 1 21 43
M  V30 49 1 23 44
M  V30 50 1 25 45
M  V30 51 1 26 46
M  V30 52 1 27 47
M  V30 53 1 29 48
M  V30 54 1 29 49
M  V30 55 1 30 50
M  V30 56 1 30 51
M  V30 57 1 32 52
M  V30 58 1 32 53
M  V30 59 1 33 54
M  V30 60 1 33 55
M  V30 END BOND
M  V30 END CTAB
M  END
>  <Dataset>  (766) 
ChEMBL_Kinases

>  <Ligand_Instance>  (766) 
nan

>  <PDB_ID>  (766) 
nan

>  <Standardized_SMILES>  (766) 
O=C(c1ccc(-c2ccc3ncc(-c4ccc5ncccc5c4)n3c2)cc1)N1CCOCC1

>  <Name>  (766) 
nan

>  <Pocket>  (766) 
nan

>  <ATP_Site>  (766) 
nan

>  <Peripheral>  (766) 
nan

>  <Num_H_Atoms_ProtBoundConf>  (766) 
nan

>  <Num_Resolved_Atoms>  (766) 
nan

>  <Num_Not_Resolved_Atoms>  (766) 
nan

$$$$
CHEMBL4848515
     RDKit          3D

  0  0  0  0  0  0  0  0  0  0999 V3000
M  V30 BEGIN CTAB
M  V30 COUNTS 38 40 0 0 0
M  V30 BEGIN ATOM
M  V30 1 C -0.053089 -4.064793 3.954512 0
M  V30 2 S 1.145564 -2.809211 3.487577 0
M  V30 3 O 0.701399 -1.513374 4.099540 0
M  V30 4 O 2.463554 -3.240908 4.066565 0
M  V30 5 C 1.223463 -2.738443 1.764389 0
M  V30 6 C 2.116965 -3.567336 1.164827 0
M  V30 7 C 2.265115 -3.598843 -0.205478 0
M  V30 8 C 1.496272 -2.778049 -0.989887 0
M  V30 9 C 0.575162 -1.919471 -0.423002 0
M  V30 10 N -0.233332 -1.069494 -1.240007 0
M  V30 11 C -1.205654 -0.110113 -0.850307 0
M  V30 12 C -1.211670 1.130561 -0.391461 0
M  V30 13 C -0.149055 2.048514 -0.091160 0
M  V30 14 C -0.265063 2.765483 1.083211 0
M  V30 15 C 0.689599 3.677477 1.469050 0
M  V30 16 C 1.809041 3.925890 0.709956 0
M  V30 17 C 1.953898 3.226361 -0.468134 0
M  V30 18 C 0.983029 2.324772 -0.822410 0
M  V30 19 Cl 1.204831 1.477756 -2.324424 0
M  V30 20 C -2.628855 1.515652 -0.202126 0
M  V30 21 O -3.065248 2.638473 0.227405 0
M  V30 22 N -3.490082 0.445064 -0.569215 0
M  V30 23 C -2.586048 -0.593691 -0.983256 0
M  V30 24 O -3.115207 -1.681289 -1.367555 0
M  V30 25 C 0.455114 -1.915207 0.951404 0
M  V30 26 H -0.839858 -4.162292 3.195542 0
M  V30 27 H 0.485357 -5.043734 4.124643 0
M  V30 28 H -0.489051 -3.814057 4.954665 0
M  V30 29 H 2.764673 -4.250681 1.723144 0
M  V30 30 H 2.974357 -4.256071 -0.674084 0
M  V30 31 H 1.614325 -2.804325 -2.059353 0
M  V30 32 H -0.110032 -1.160480 -2.285218 0
M  V30 33 H -1.128091 2.624766 1.742664 0
M  V30 34 H 0.545674 4.216968 2.409933 0
M  V30 35 H 2.536947 4.651061 1.049401 0
M  V30 36 H 2.819031 3.397383 -1.085848 0
M  V30 37 H -4.537339 0.477058 -0.522126 0
M  V30 38 H -0.240976 -1.272508 1.458804 0
M  V30 END ATOM
M  V30 BEGIN BOND
M  V30 1 1 1 2
M  V30 2 2 2 3
M  V30 3 2 2 4
M  V30 4 1 2 5
M  V30 5 2 5 6
M  V30 6 1 6 7
M  V30 7 2 7 8
M  V30 8 1 8 9
M  V30 9 1 9 10
M  V30 10 1 10 11
M  V30 11 2 11 12
M  V30 12 1 12 13
M  V30 13 2 13 14
M  V30 14 1 14 15
M  V30 15 2 15 16
M  V30 16 1 16 17
M  V30 17 2 17 18
M  V30 18 1 18 19
M  V30 19 1 12 20
M  V30 20 2 20 21
M  V30 21 1 20 22
M  V30 22 1 22 23
M  V30 23 2 23 24
M  V30 24 2 9 25
M  V30 25 1 25 5
M  V30 26 1 23 11
M  V30 27 1 18 13
M  V30 28 1 1 26
M  V30 29 1 1 27
M  V30 30 1 1 28
M  V30 31 1 6 29
M  V30 32 1 7 30
M  V30 33 1 8 31
M  V30 34 1 10 32
M  V30 35 1 14 33
M  V30 36 1 15 34
M  V30 37 1 16 35
M  V30 38 1 17 36
M  V30 39 1 22 37
M  V30 40 1 25 38
M  V30 END BOND
M  V30 END CTAB
M  END
>  <Dataset>  (767) 
ChEMBL_Kinases

>  <Ligand_Instance>  (767) 
nan

>  <PDB_ID>  (767) 
nan

>  <Standardized_SMILES>  (767) 
CS(=O)(=O)c1cccc(NC2=C(c3ccccc3Cl)C(=O)NC2=O)c1

>  <Name>  (767) 
nan

>  <Pocket>  (767) 
nan

>  <ATP_Site>  (767) 
nan

>  <Peripheral>  (767) 
nan

>  <Num_H_Atoms_ProtBoundConf>  (767) 
nan

>  <Num_Resolved_Atoms>  (767) 
nan

>  <Num_Not_Resolved_Atoms>  (767) 
nan

$$$$
CHEMBL4848608
     RDKit          3D

  0  0  0  0  0  0  0  0  0  0999 V3000
M  V30 BEGIN CTAB
M  V30 COUNTS 59 63 0 0 0
M  V30 BEGIN ATOM
M  V30 1 C 3.428821 -3.746781 4.320203 0
M  V30 2 C 2.197844 -2.902544 4.626675 0
M  V30 3 N 2.136680 -1.723373 3.829304 0
M  V30 4 C 2.704764 -0.539239 4.199385 0
M  V30 5 O 3.334926 -0.286186 5.244525 0
M  V30 6 C 2.472023 0.388788 3.203358 0
M  V30 7 C 2.756637 1.709925 2.949430 0
M  V30 8 N 2.363018 2.327426 1.825051 0
M  V30 9 C 1.653017 1.646970 0.880683 0
M  V30 10 N 1.293175 2.401365 -0.265763 0
M  V30 11 C -0.045682 2.525817 -0.722750 0
M  V30 12 C -0.410585 3.294417 -1.823773 0
M  V30 13 C -1.719552 3.390770 -2.233736 0
M  V30 14 C -2.732700 2.732340 -1.576615 0
M  V30 15 C -2.423716 1.945942 -0.464236 0
M  V30 16 C -1.079737 1.879153 -0.085595 0
M  V30 17 C -3.372558 1.162189 0.363618 0
M  V30 18 N -4.619960 0.880546 -0.292268 0
M  V30 19 C -4.608045 1.256651 -1.693455 0
M  V30 20 C -4.193311 2.714229 -1.862181 0
M  V30 21 N 1.383171 0.360864 1.145152 0
M  V30 22 C 1.755035 -0.294366 2.250481 0
M  V30 23 N 1.561140 -1.587177 2.657239 0
M  V30 24 C 0.816519 -2.494030 1.825867 0
M  V30 25 C -0.271047 -3.270016 2.231499 0
M  V30 26 C -0.878179 -4.066602 1.281661 0
M  V30 27 C -0.412929 -4.081689 -0.018405 0
M  V30 28 F -1.003103 -4.862884 -0.959915 0
M  V30 29 C 0.679408 -3.299673 -0.413925 0
M  V30 30 C 1.205512 -3.285667 -1.791784 0
M  V30 31 C 0.201138 -2.834501 -2.829963 0
M  V30 32 C 1.726756 -4.677203 -2.147946 0
M  V30 33 F 2.282287 -2.427539 -1.830505 0
M  V30 34 N 1.225089 -2.548381 0.556106 0
M  V30 35 H 4.323417 -3.102089 4.564425 0
M  V30 36 H 3.419123 -4.010511 3.249185 0
M  V30 37 H 3.387562 -4.617632 5.004272 0
M  V30 38 H 1.347560 -3.576004 4.589046 0
M  V30 39 H 2.276876 -2.580402 5.711074 0
M  V30 40 H 3.329438 2.228654 3.732291 0
M  V30 41 H 2.033331 2.891929 -0.809744 0
M  V30 42 H 0.348655 3.831306 -2.374936 0
M  V30 43 H -2.069452 3.968011 -3.075254 0
M  V30 44 H -0.778100 1.274086 0.785279 0
M  V30 45 H -2.848832 0.217139 0.684029 0
M  V30 46 H -3.497242 1.751866 1.316798 0
M  V30 47 H -4.779171 -0.146193 -0.242642 0
M  V30 48 H -5.611113 1.071795 -2.120209 0
M  V30 49 H -3.822700 0.661545 -2.199703 0
M  V30 50 H -4.735643 3.319760 -1.102182 0
M  V30 51 H -4.453450 3.012012 -2.887445 0
M  V30 52 H -0.562836 -3.187931 3.259353 0
M  V30 53 H -1.724580 -4.672100 1.600481 0
M  V30 54 H 0.816825 -2.406870 -3.673766 0
M  V30 55 H -0.379548 -2.003272 -2.435861 0
M  V30 56 H -0.385122 -3.650306 -3.270386 0
M  V30 57 H 0.880846 -5.384708 -2.252338 0
M  V30 58 H 2.326767 -4.621856 -3.084583 0
M  V30 59 H 2.420399 -4.972704 -1.335060 0
M  V30 END ATOM
M  V30 BEGIN BOND
M  V30 1 1 1 2
M  V30 2 1 2 3
M  V30 3 1 3 4
M  V30 4 2 4 5
M  V30 5 1 4 6
M  V30 6 2 6 7
M  V30 7 1 7 8
M  V30 8 2 8 9
M  V30 9 1 9 10
M  V30 10 1 10 11
M  V30 11 2 11 12
M  V30 12 1 12 13
M  V30 13 2 13 14
M  V30 14 1 14 15
M  V30 15 2 15 16
M  V30 16 1 15 17
M  V30 17 1 17 18
M  V30 18 1 18 19
M  V30 19 1 19 20
M  V30 20 1 9 21
M  V30 21 2 21 22
M  V30 22 1 22 23
M  V30 23 1 23 24
M  V30 24 2 24 25
M  V30 25 1 25 26
M  V30 26 2 26 27
M  V30 27 1 27 28
M  V30 28 1 27 29
M  V30 29 1 29 30
M  V30 30 1 30 31
M  V30 31 1 30 32
M  V30 32 1 30 33
M  V30 33 2 29 34
M  V30 34 1 23 3
M  V30 35 1 34 24
M  V30 36 1 22 6
M  V30 37 1 16 11
M  V30 38 1 20 14
M  V30 39 1 1 35
M  V30 40 1 1 36
M  V30 41 1 1 37
M  V30 42 1 2 38
M  V30 43 1 2 39
M  V30 44 1 7 40
M  V30 45 1 10 41
M  V30 46 1 12 42
M  V30 47 1 13 43
M  V30 48 1 16 44
M  V30 49 1 17 45
M  V30 50 1 17 46
M  V30 51 1 18 47
M  V30 52 1 19 48
M  V30 53 1 19 49
M  V30 54 1 20 50
M  V30 55 1 20 51
M  V30 56 1 25 52
M  V30 57 1 26 53
M  V30 58 1 31 54
M  V30 59 1 31 55
M  V30 60 1 31 56
M  V30 61 1 32 57
M  V30 62 1 32 58
M  V30 63 1 32 59
M  V30 END BOND
M  V30 END CTAB
M  END
>  <Dataset>  (768) 
ChEMBL_Kinases

>  <Ligand_Instance>  (768) 
nan

>  <PDB_ID>  (768) 
nan

>  <Standardized_SMILES>  (768) 
CCn1c(=O)c2cnc(Nc3ccc4c(c3)CNCC4)nc2n1-c1ccc(F)c(C(C)(C)F)n1

>  <Name>  (768) 
nan

>  <Pocket>  (768) 
nan

>  <ATP_Site>  (768) 
nan

>  <Peripheral>  (768) 
nan

>  <Num_H_Atoms_ProtBoundConf>  (768) 
nan

>  <Num_Resolved_Atoms>  (768) 
nan

>  <Num_Not_Resolved_Atoms>  (768) 
nan

$$$$
CHEMBL4848740
     RDKit          3D

  0  0  0  0  0  0  0  0  0  0999 V3000
M  V30 BEGIN CTAB
M  V30 COUNTS 44 46 0 0 0
M  V30 BEGIN ATOM
M  V30 1 C 3.861572 -4.551760 1.777439 0
M  V30 2 O 2.624767 -4.940095 1.225240 0
M  V30 3 C 1.585665 -4.034888 1.133830 0
M  V30 4 C 1.607532 -2.719765 1.540411 0
M  V30 5 C 0.548734 -1.846190 1.433357 0
M  V30 6 N 0.605445 -0.474730 1.875435 0
M  V30 7 C -0.556002 0.318301 1.664948 0
M  V30 8 C -0.864500 1.373891 0.906137 0
M  V30 9 C -0.087020 2.149473 -0.036416 0
M  V30 10 C -0.646922 2.462335 -1.256051 0
M  V30 11 C 0.049640 3.210994 -2.180843 0
M  V30 12 C 1.335430 3.683778 -1.937301 0
M  V30 13 C 1.923643 3.377789 -0.703554 0
M  V30 14 C 1.205249 2.628460 0.202172 0
M  V30 15 O 1.802245 2.344694 1.403687 0
M  V30 16 C 3.078456 2.735443 1.826848 0
M  V30 17 C -2.276215 1.731316 1.160442 0
M  V30 18 O -2.943992 2.665141 0.643423 0
M  V30 19 N -2.836424 0.836507 2.125991 0
M  V30 20 C -1.751620 -0.058645 2.448013 0
M  V30 21 O -1.965775 -0.970047 3.291330 0
M  V30 22 C -0.597288 -2.377795 0.869072 0
M  V30 23 C -0.711546 -3.680509 0.434324 0
M  V30 24 O -1.824496 -4.270366 -0.132609 0
M  V30 25 C -3.027759 -3.556551 -0.326230 0
M  V30 26 C 0.401590 -4.507317 0.574903 0
M  V30 27 H 4.566080 -4.139610 1.011991 0
M  V30 28 H 4.317205 -5.448635 2.269651 0
M  V30 29 H 3.791108 -3.797397 2.580817 0
M  V30 30 H 2.516439 -2.347259 1.970913 0
M  V30 31 H 1.537336 -0.216689 2.321998 0
M  V30 32 H -1.650812 2.152483 -1.569510 0
M  V30 33 H -0.287519 3.516466 -3.169195 0
M  V30 34 H 1.918259 4.274343 -2.635960 0
M  V30 35 H 2.933718 3.722492 -0.455575 0
M  V30 36 H 3.908736 2.109248 1.516012 0
M  V30 37 H 3.317497 3.795148 1.590575 0
M  V30 38 H 3.045799 2.712339 2.955326 0
M  V30 39 H -3.808129 0.860861 2.484630 0
M  V30 40 H -1.476458 -1.794144 0.731451 0
M  V30 41 H -3.901628 -4.252255 -0.363027 0
M  V30 42 H -3.218500 -2.944227 0.605023 0
M  V30 43 H -3.003093 -2.851466 -1.174179 0
M  V30 44 H 0.351438 -5.551981 0.242649 0
M  V30 END ATOM
M  V30 BEGIN BOND
M  V30 1 1 1 2
M  V30 2 1 2 3
M  V30 3 2 3 4
M  V30 4 1 4 5
M  V30 5 1 5 6
M  V30 6 1 6 7
M  V30 7 2 7 8
M  V30 8 1 8 9
M  V30 9 2 9 10
M  V30 10 1 10 11
M  V30 11 2 11 12
M  V30 12 1 12 13
M  V30 13 2 13 14
M  V30 14 1 14 15
M  V30 15 1 15 16
M  V30 16 1 8 17
M  V30 17 2 17 18
M  V30 18 1 17 19
M  V30 19 1 19 20
M  V30 20 2 20 21
M  V30 21 2 5 22
M  V30 22 1 22 23
M  V30 23 1 23 24
M  V30 24 1 24 25
M  V30 25 2 23 26
M  V30 26 1 26 3
M  V30 27 1 20 7
M  V30 28 1 14 9
M  V30 29 1 1 27
M  V30 30 1 1 28
M  V30 31 1 1 29
M  V30 32 1 4 30
M  V30 33 1 6 31
M  V30 34 1 10 32
M  V30 35 1 11 33
M  V30 36 1 12 34
M  V30 37 1 13 35
M  V30 38 1 16 36
M  V30 39 1 16 37
M  V30 40 1 16 38
M  V30 41 1 19 39
M  V30 42 1 22 40
M  V30 43 1 25 41
M  V30 44 1 25 42
M  V30 45 1 25 43
M  V30 46 1 26 44
M  V30 END BOND
M  V30 END CTAB
M  END
>  <Dataset>  (769) 
ChEMBL_Kinases

>  <Ligand_Instance>  (769) 
nan

>  <PDB_ID>  (769) 
nan

>  <Standardized_SMILES>  (769) 
COc1cc(NC2=C(c3ccccc3OC)C(=O)NC2=O)cc(OC)c1

>  <Name>  (769) 
nan

>  <Pocket>  (769) 
nan

>  <ATP_Site>  (769) 
nan

>  <Peripheral>  (769) 
nan

>  <Num_H_Atoms_ProtBoundConf>  (769) 
nan

>  <Num_Resolved_Atoms>  (769) 
nan

>  <Num_Not_Resolved_Atoms>  (769) 
nan

$$$$
CHEMBL4848826
     RDKit          3D

  0  0  0  0  0  0  0  0  0  0999 V3000
M  V30 BEGIN CTAB
M  V30 COUNTS 49 52 0 0 0
M  V30 BEGIN ATOM
M  V30 1 C -0.919505 -1.660614 3.939031 0
M  V30 2 C -0.113480 -2.920081 4.270990 0
M  V30 3 C 0.504772 -3.374254 2.982367 0
M  V30 4 C 0.380431 -2.791701 1.727487 0
M  V30 5 C 1.081690 -3.479492 0.760773 0
M  V30 6 N 1.201304 -3.213265 -0.630868 0
M  V30 7 C 0.493058 -2.034148 -1.020408 0
M  V30 8 N 1.001632 -0.824006 -1.276524 0
M  V30 9 C 0.250445 0.243074 -1.646655 0
M  V30 10 N 1.123781 1.348018 -1.826414 0
M  V30 11 C 1.282096 2.596510 -1.101933 0 CFG=1
M  V30 12 C 0.048255 3.459885 -1.369664 0
M  V30 13 C 1.408648 2.367155 0.364641 0
M  V30 14 C 2.553082 2.624645 1.131655 0
M  V30 15 C 2.507679 2.402870 2.493720 0
M  V30 16 C 1.376271 1.938994 3.125058 0
M  V30 17 F 1.427884 1.757006 4.455579 0
M  V30 18 C 0.253696 1.690842 2.354511 0
M  V30 19 C 0.269844 1.902087 0.989147 0
M  V30 20 N -1.087075 0.132404 -1.777837 0
M  V30 21 C -1.612358 -1.080992 -1.522575 0
M  V30 22 C -2.977329 -1.210894 -1.642869 0
M  V30 23 C -3.612937 -2.428456 -1.392413 0
M  V30 24 C -2.853621 -3.535794 -1.012877 0
M  V30 25 C -1.484079 -3.426942 -0.885156 0
M  V30 26 C -0.891545 -2.210897 -1.140438 0
M  V30 27 N 1.641212 -4.507363 1.472313 0
M  V30 28 N 1.299481 -4.432985 2.745434 0
M  V30 29 H -0.180978 -0.968855 3.431502 0
M  V30 30 H -1.412277 -1.227813 4.798232 0
M  V30 31 H -1.621056 -1.933951 3.117629 0
M  V30 32 H -0.869515 -3.673943 4.624052 0
M  V30 33 H 0.605652 -2.772456 5.070761 0
M  V30 34 H -0.213522 -1.894557 1.555242 0
M  V30 35 H 1.777178 -3.888560 -1.196094 0
M  V30 36 H 1.769283 1.226881 -2.648137 0
M  V30 37 H 2.153264 3.124790 -1.471810 0
M  V30 38 H -0.006625 3.560059 -2.483838 0
M  V30 39 H -0.862269 2.969845 -0.999891 0
M  V30 40 H 0.193922 4.413966 -0.852607 0
M  V30 41 H 3.406689 2.988588 0.555994 0
M  V30 42 H 3.431835 2.632390 2.961358 0
M  V30 43 H -0.593075 1.331172 2.945169 0
M  V30 44 H -0.694968 1.653268 0.565152 0
M  V30 45 H -3.670423 -0.431344 -1.925959 0
M  V30 46 H -4.650864 -2.658656 -1.449762 0
M  V30 47 H -3.257062 -4.524887 -0.796697 0
M  V30 48 H -0.875163 -4.249050 -0.595749 0
M  V30 49 H 1.609541 -5.115945 3.474972 0
M  V30 END ATOM
M  V30 BEGIN BOND
M  V30 1 1 1 2
M  V30 2 1 2 3
M  V30 3 2 3 4
M  V30 4 1 4 5
M  V30 5 1 5 6
M  V30 6 1 6 7
M  V30 7 2 7 8
M  V30 8 1 8 9
M  V30 9 1 9 10
M  V30 10 1 10 11
M  V30 11 1 11 12
M  V30 12 1 11 13
M  V30 13 2 13 14
M  V30 14 1 14 15
M  V30 15 2 15 16
M  V30 16 1 16 17
M  V30 17 1 16 18
M  V30 18 2 18 19
M  V30 19 2 9 20
M  V30 20 1 20 21
M  V30 21 2 21 22
M  V30 22 1 22 23
M  V30 23 2 23 24
M  V30 24 1 24 25
M  V30 25 2 25 26
M  V30 26 2 5 27
M  V30 27 1 27 28
M  V30 28 1 28 3
M  V30 29 1 26 7
M  V30 30 1 19 13
M  V30 31 1 26 21
M  V30 32 1 1 29
M  V30 33 1 1 30
M  V30 34 1 1 31
M  V30 35 1 2 32
M  V30 36 1 2 33
M  V30 37 1 4 34
M  V30 38 1 6 35
M  V30 39 1 10 36
M  V30 40 1 11 37 CFG=3
M  V30 41 1 12 38
M  V30 42 1 12 39
M  V30 43 1 12 40
M  V30 44 1 14 41
M  V30 45 1 15 42
M  V30 46 1 18 43
M  V30 47 1 19 44
M  V30 48 1 22 45
M  V30 49 1 23 46
M  V30 50 1 24 47
M  V30 51 1 25 48
M  V30 52 1 28 49
M  V30 END BOND
M  V30 END CTAB
M  END
>  <Dataset>  (770) 
ChEMBL_Kinases

>  <Ligand_Instance>  (770) 
nan

>  <PDB_ID>  (770) 
nan

>  <Standardized_SMILES>  (770) 
CCc1cc(Nc2nc(N[C@@H](C)c3ccc(F)cc3)nc3ccccc23)n[nH]1

>  <Name>  (770) 
nan

>  <Pocket>  (770) 
nan

>  <ATP_Site>  (770) 
nan

>  <Peripheral>  (770) 
nan

>  <Num_H_Atoms_ProtBoundConf>  (770) 
nan

>  <Num_Resolved_Atoms>  (770) 
nan

>  <Num_Not_Resolved_Atoms>  (770) 
nan

$$$$
CHEMBL4848852
     RDKit          3D

  0  0  0  0  0  0  0  0  0  0999 V3000
M  V30 BEGIN CTAB
M  V30 COUNTS 35 37 0 0 0
M  V30 BEGIN ATOM
M  V30 1 O -0.935167 -3.277210 3.534227 0
M  V30 2 C -0.104364 -2.397077 3.168664 0
M  V30 3 N 0.714293 -1.686041 4.087860 0
M  V30 4 C 1.485644 -0.817559 3.296700 0
M  V30 5 O 2.317584 -0.051552 3.806490 0
M  V30 6 C 1.208690 -0.922576 1.879473 0
M  V30 7 C 1.639295 -0.396484 0.608860 0
M  V30 8 C 2.117245 -1.382839 -0.277174 0
M  V30 9 C 2.542359 -1.064618 -1.557530 0
M  V30 10 C 2.504546 0.234138 -1.993192 0
M  V30 11 C 2.039557 1.209957 -1.140547 0
M  V30 12 C 1.607928 0.896948 0.155922 0
M  V30 13 C 1.101296 2.002224 0.977334 0
M  V30 14 F 1.835934 2.196109 2.115087 0
M  V30 15 F -0.201985 1.785064 1.396302 0
M  V30 16 F 1.163108 3.199300 0.279224 0
M  V30 17 C 0.253573 -1.877128 1.843975 0
M  V30 18 N -0.485240 -2.479694 0.753514 0
M  V30 19 C -1.373120 -1.469745 0.238898 0
M  V30 20 C -1.333911 -0.959552 -1.037612 0
M  V30 21 C -2.221960 0.014292 -1.416958 0
M  V30 22 C -3.176398 0.507428 -0.530286 0
M  V30 23 C -3.244934 0.019956 0.756063 0
M  V30 24 Cl -4.433586 0.627730 1.890192 0
M  V30 25 C -2.343473 -0.953885 1.105540 0
M  V30 26 H 0.722938 -1.803657 5.123282 0
M  V30 27 H 2.179467 -2.424894 -0.014144 0
M  V30 28 H 2.910188 -1.844987 -2.223824 0
M  V30 29 H 2.850096 0.421113 -3.000512 0
M  V30 30 H 2.006505 2.238018 -1.473162 0
M  V30 31 H -0.330668 -3.456564 0.474876 0
M  V30 32 H -0.584691 -1.362573 -1.701542 0
M  V30 33 H -2.208187 0.428711 -2.418380 0
M  V30 34 H -3.897891 1.283650 -0.802420 0
M  V30 35 H -2.430508 -1.307459 2.124089 0
M  V30 END ATOM
M  V30 BEGIN BOND
M  V30 1 2 1 2
M  V30 2 1 2 3
M  V30 3 1 3 4
M  V30 4 2 4 5
M  V30 5 1 4 6
M  V30 6 1 6 7
M  V30 7 2 7 8
M  V30 8 1 8 9
M  V30 9 2 9 10
M  V30 10 1 10 11
M  V30 11 2 11 12
M  V30 12 1 12 13
M  V30 13 1 13 14
M  V30 14 1 13 15
M  V30 15 1 13 16
M  V30 16 2 6 17
M  V30 17 1 17 18
M  V30 18 1 18 19
M  V30 19 2 19 20
M  V30 20 1 20 21
M  V30 21 2 21 22
M  V30 22 1 22 23
M  V30 23 1 23 24
M  V30 24 2 23 25
M  V30 25 1 17 2
M  V30 26 1 25 19
M  V30 27 1 12 7
M  V30 28 1 3 26
M  V30 29 1 8 27
M  V30 30 1 9 28
M  V30 31 1 10 29
M  V30 32 1 11 30
M  V30 33 1 18 31
M  V30 34 1 20 32
M  V30 35 1 21 33
M  V30 36 1 22 34
M  V30 37 1 25 35
M  V30 END BOND
M  V30 END CTAB
M  END
>  <Dataset>  (771) 
ChEMBL_Kinases

>  <Ligand_Instance>  (771) 
nan

>  <PDB_ID>  (771) 
nan

>  <Standardized_SMILES>  (771) 
O=C1NC(=O)C(c2ccccc2C(F)(F)F)=C1Nc1cccc(Cl)c1

>  <Name>  (771) 
nan

>  <Pocket>  (771) 
nan

>  <ATP_Site>  (771) 
nan

>  <Peripheral>  (771) 
nan

>  <Num_H_Atoms_ProtBoundConf>  (771) 
nan

>  <Num_Resolved_Atoms>  (771) 
nan

>  <Num_Not_Resolved_Atoms>  (771) 
nan

$$$$
CHEMBL4873812
     RDKit          3D

  0  0  0  0  0  0  0  0  0  0999 V3000
M  V30 BEGIN CTAB
M  V30 COUNTS 47 49 0 0 0
M  V30 BEGIN ATOM
M  V30 1 C -2.647852 -4.073871 -0.841819 0
M  V30 2 C -3.047604 -3.287492 0.375962 0
M  V30 3 C -3.820269 -2.034434 0.142310 0
M  V30 4 C -1.902108 -3.127273 1.392377 0 CFG=1
M  V30 5 N -1.096336 -1.989684 1.214949 0
M  V30 6 C 0.026809 -1.417661 1.831508 0
M  V30 7 N 0.621555 -0.253208 1.442463 0
M  V30 8 C 1.675494 0.271943 2.027868 0
M  V30 9 N 2.182827 1.494016 1.507398 0
M  V30 10 C 1.602225 2.175177 0.381872 0
M  V30 11 C 2.395384 3.403771 0.056129 0
M  V30 12 C 1.958198 4.649923 0.463796 0
M  V30 13 N 2.665056 5.756666 0.193682 0
M  V30 14 C 3.823692 5.693413 -0.483105 0
M  V30 15 C 4.252326 4.438251 -0.887421 0
M  V30 16 C 3.580809 3.235346 -0.650044 0
M  V30 17 C 4.120732 1.948685 -1.139289 0
M  V30 18 F 5.322110 2.213619 -1.804088 0
M  V30 19 F 4.378646 1.048616 -0.140650 0
M  V30 20 F 3.290212 1.393103 -2.114199 0
M  V30 21 N 2.239115 -0.337491 3.078431 0
M  V30 22 C 1.766872 -1.485926 3.572446 0
M  V30 23 C 0.647095 -2.002793 2.916501 0
M  V30 24 C 0.175328 -3.242795 3.475987 0
M  V30 25 N -0.202916 -4.250365 3.927665 0
M  V30 26 C -2.985206 -3.127937 2.413573 0
M  V30 27 C -3.726071 -4.090278 1.466657 0 CFG=2
M  V30 28 O -3.178573 -5.365074 1.541214 0
M  V30 29 H -1.531702 -4.002356 -0.926971 0
M  V30 30 H -2.948755 -5.139411 -0.803941 0
M  V30 31 H -3.058897 -3.560429 -1.732815 0
M  V30 32 H -3.401548 -1.199051 0.711929 0
M  V30 33 H -4.887200 -2.114249 0.496131 0
M  V30 34 H -3.885151 -1.742774 -0.926223 0
M  V30 35 H -1.331934 -4.081945 1.415790 0
M  V30 36 H -1.410723 -1.393621 0.392789 0
M  V30 37 H 3.015438 1.905791 1.982294 0
M  V30 38 H 1.539280 1.527289 -0.518328 0
M  V30 39 H 0.569063 2.472084 0.650683 0
M  V30 40 H 1.020404 4.724558 1.014429 0
M  V30 41 H 4.454658 6.554099 -0.739148 0
M  V30 42 H 5.200747 4.383620 -1.441522 0
M  V30 43 H 2.236339 -1.945730 4.407792 0
M  V30 44 H -2.839522 -3.653492 3.355318 0
M  V30 45 H -3.597624 -2.199405 2.462623 0
M  V30 46 H -4.824946 -4.024073 1.510232 0
M  V30 47 H -3.845392 -6.091425 1.448361 0
M  V30 END ATOM
M  V30 BEGIN BOND
M  V30 1 1 1 2
M  V30 2 1 2 3
M  V30 3 1 2 4
M  V30 4 1 4 5
M  V30 5 1 5 6
M  V30 6 2 6 7
M  V30 7 1 7 8
M  V30 8 1 8 9
M  V30 9 1 9 10
M  V30 10 1 10 11
M  V30 11 2 11 12
M  V30 12 1 12 13
M  V30 13 2 13 14
M  V30 14 1 14 15
M  V30 15 2 15 16
M  V30 16 1 16 17
M  V30 17 1 17 18
M  V30 18 1 17 19
M  V30 19 1 17 20
M  V30 20 2 8 21
M  V30 21 1 21 22
M  V30 22 2 22 23
M  V30 23 1 23 24
M  V30 24 3 24 25
M  V30 25 1 4 26
M  V30 26 1 26 27
M  V30 27 1 27 28
M  V30 28 1 27 2
M  V30 29 1 23 6
M  V30 30 1 16 11
M  V30 31 1 1 29
M  V30 32 1 1 30
M  V30 33 1 1 31
M  V30 34 1 3 32
M  V30 35 1 3 33
M  V30 36 1 3 34
M  V30 37 1 4 35 CFG=1
M  V30 38 1 5 36
M  V30 39 1 9 37
M  V30 40 1 10 38
M  V30 41 1 10 39
M  V30 42 1 12 40
M  V30 43 1 14 41
M  V30 44 1 15 42
M  V30 45 1 22 43
M  V30 46 1 26 44
M  V30 47 1 26 45
M  V30 48 1 27 46 CFG=3
M  V30 49 1 28 47
M  V30 END BOND
M  V30 END CTAB
M  END
>  <Dataset>  (772) 
ChEMBL_Kinases

>  <Ligand_Instance>  (772) 
nan

>  <PDB_ID>  (772) 
nan

>  <Standardized_SMILES>  (772) 
CC1(C)[C@@H](Nc2nc(NCc3cnccc3C(F)(F)F)ncc2C#N)C[C@@H]1O

>  <Name>  (772) 
nan

>  <Pocket>  (772) 
nan

>  <ATP_Site>  (772) 
nan

>  <Peripheral>  (772) 
nan

>  <Num_H_Atoms_ProtBoundConf>  (772) 
nan

>  <Num_Resolved_Atoms>  (772) 
nan

>  <Num_Not_Resolved_Atoms>  (772) 
nan

$$$$
CHEMBL4848944
     RDKit          3D

  0  0  0  0  0  0  0  0  0  0999 V3000
M  V30 BEGIN CTAB
M  V30 COUNTS 61 66 0 0 0
M  V30 BEGIN ATOM
M  V30 1 C 3.441357 -2.953359 3.358658 0
M  V30 2 C 4.140150 -2.409126 2.132386 0
M  V30 3 C 4.077783 -3.430452 1.047583 0
M  V30 4 N 3.595478 -1.115697 1.744137 0
M  V30 5 C 4.166721 0.107490 1.937996 0
M  V30 6 O 5.272392 0.347190 2.489160 0
M  V30 7 C 3.307789 1.053102 1.416242 0
M  V30 8 C 3.301843 2.426157 1.299642 0
M  V30 9 N 2.271653 3.052927 0.715816 0
M  V30 10 C 1.217400 2.408784 0.224645 0
M  V30 11 N 0.161937 3.130725 -0.380094 0
M  V30 12 C -1.038430 2.650329 -0.960141 0
M  V30 13 C -1.971637 3.511334 -1.513388 0
M  V30 14 C -3.141408 3.092805 -2.082750 0
M  V30 15 C -3.458898 1.772582 -2.137283 0
M  V30 16 C -2.578482 0.868754 -1.607749 0
M  V30 17 C -1.413000 1.326774 -1.043874 0
M  V30 18 C -2.917938 -0.576919 -1.663249 0
M  V30 19 N -3.799453 -0.902073 -2.749122 0
M  V30 20 C -4.985688 -0.096215 -2.784976 0
M  V30 21 C -4.737904 1.377578 -2.764982 0
M  V30 22 N 1.250536 1.075915 0.351964 0
M  V30 23 C 2.228548 0.358185 0.916365 0
M  V30 24 N 2.427499 -0.957129 1.127864 0
M  V30 25 C 1.464152 -1.919818 0.709963 0
M  V30 26 C 1.382721 -2.593322 -0.504769 0
M  V30 27 C 0.351124 -3.492646 -0.690282 0
M  V30 28 C -0.576152 -3.715991 0.308235 0
M  V30 29 C -0.471778 -3.034998 1.502176 0
M  V30 30 C -1.478478 -3.282685 2.575789 0
M  V30 31 C -2.866415 -3.471977 2.149481 0
M  V30 32 N -3.975401 -3.607295 1.822678 0
M  V30 33 C -1.291036 -2.473248 3.896309 0
M  V30 34 C -0.972109 -3.898863 3.812200 0
M  V30 35 N 0.530291 -2.180631 1.644106 0
M  V30 36 H 3.085461 -2.173438 4.039219 0
M  V30 37 H 2.588084 -3.592228 3.059703 0
M  V30 38 H 4.186502 -3.572087 3.926611 0
M  V30 39 H 5.220295 -2.239481 2.384723 0
M  V30 40 H 3.191556 -4.119123 1.171429 0
M  V30 41 H 4.198772 -3.044940 0.031408 0
M  V30 42 H 4.950780 -4.133064 1.191119 0
M  V30 43 H 4.146472 2.979347 1.690084 0
M  V30 44 H 0.267019 4.177738 -0.412476 0
M  V30 45 H -1.774345 4.582605 -1.500294 0
M  V30 46 H -3.822402 3.823477 -2.494950 0
M  V30 47 H -0.778875 0.562281 -0.653059 0
M  V30 48 H -2.006545 -1.222243 -1.799580 0
M  V30 49 H -3.358279 -0.891256 -0.698955 0
M  V30 50 H -3.317208 -0.816009 -3.669138 0
M  V30 51 H -5.668063 -0.446064 -1.978182 0
M  V30 52 H -5.520854 -0.377931 -3.738857 0
M  V30 53 H -5.607493 1.898282 -2.295238 0
M  V30 54 H -4.748250 1.738418 -3.833541 0
M  V30 55 H 2.171534 -2.323134 -1.194475 0
M  V30 56 H 0.348937 -3.976785 -1.651176 0
M  V30 57 H -1.361645 -4.411988 0.144616 0
M  V30 58 H -0.544161 -1.664264 3.796109 0
M  V30 59 H -2.243972 -2.102120 4.360811 0
M  V30 60 H 0.102823 -4.172775 3.869251 0
M  V30 61 H -1.649125 -4.592019 4.389534 0
M  V30 END ATOM
M  V30 BEGIN BOND
M  V30 1 1 1 2
M  V30 2 1 2 3
M  V30 3 1 2 4
M  V30 4 1 4 5
M  V30 5 2 5 6
M  V30 6 1 5 7
M  V30 7 2 7 8
M  V30 8 1 8 9
M  V30 9 2 9 10
M  V30 10 1 10 11
M  V30 11 1 11 12
M  V30 12 2 12 13
M  V30 13 1 13 14
M  V30 14 2 14 15
M  V30 15 1 15 16
M  V30 16 2 16 17
M  V30 17 1 16 18
M  V30 18 1 18 19
M  V30 19 1 19 20
M  V30 20 1 20 21
M  V30 21 1 10 22
M  V30 22 2 22 23
M  V30 23 1 23 24
M  V30 24 1 24 25
M  V30 25 2 25 26
M  V30 26 1 26 27
M  V30 27 2 27 28
M  V30 28 1 28 29
M  V30 29 1 29 30
M  V30 30 1 30 31
M  V30 31 3 31 32
M  V30 32 1 30 33
M  V30 33 1 33 34
M  V30 34 2 29 35
M  V30 35 1 24 4
M  V30 36 1 35 25
M  V30 37 1 23 7
M  V30 38 1 34 30
M  V30 39 1 17 12
M  V30 40 1 21 15
M  V30 41 1 1 36
M  V30 42 1 1 37
M  V30 43 1 1 38
M  V30 44 1 2 39
M  V30 45 1 3 40
M  V30 46 1 3 41
M  V30 47 1 3 42
M  V30 48 1 8 43
M  V30 49 1 11 44
M  V30 50 1 13 45
M  V30 51 1 14 46
M  V30 52 1 17 47
M  V30 53 1 18 48
M  V30 54 1 18 49
M  V30 55 1 19 50
M  V30 56 1 20 51
M  V30 57 1 20 52
M  V30 58 1 21 53
M  V30 59 1 21 54
M  V30 60 1 26 55
M  V30 61 1 27 56
M  V30 62 1 28 57
M  V30 63 1 33 58
M  V30 64 1 33 59
M  V30 65 1 34 60
M  V30 66 1 34 61
M  V30 END BOND
M  V30 END CTAB
M  END
>  <Dataset>  (773) 
ChEMBL_Kinases

>  <Ligand_Instance>  (773) 
nan

>  <PDB_ID>  (773) 
nan

>  <Standardized_SMILES>  (773) 
CC(C)n1c(=O)c2cnc(Nc3ccc4c(c3)CNCC4)nc2n1-c1cccc(C2(C#N)CC2)n1

>  <Name>  (773) 
nan

>  <Pocket>  (773) 
nan

>  <ATP_Site>  (773) 
nan

>  <Peripheral>  (773) 
nan

>  <Num_H_Atoms_ProtBoundConf>  (773) 
nan

>  <Num_Resolved_Atoms>  (773) 
nan

>  <Num_Not_Resolved_Atoms>  (773) 
nan

$$$$
CHEMBL4873755
     RDKit          3D

  0  0  0  0  0  0  0  0  0  0999 V3000
M  V30 BEGIN CTAB
M  V30 COUNTS 51 53 0 0 0
M  V30 BEGIN ATOM
M  V30 1 C -2.682225 -3.900013 3.363556 0
M  V30 2 O -1.652693 -3.012805 3.227978 0
M  V30 3 C -1.805369 -1.792197 3.841857 0 CFG=1
M  V30 4 C -0.578403 -1.659628 4.763692 0
M  V30 5 C 0.560922 -2.138785 3.931111 0
M  V30 6 C 0.755811 -1.485332 2.617674 0 CFG=1
M  V30 7 N 0.998679 -2.515722 1.592308 0
M  V30 8 C 1.362461 -2.306187 0.233874 0
M  V30 9 C 1.585109 -1.095599 -0.349422 0
M  V30 10 C 1.927836 -0.862209 -1.657101 0
M  V30 11 N 2.155936 0.374377 -2.263090 0
M  V30 12 C 2.074135 1.704185 -1.789923 0
M  V30 13 C 0.778990 2.221936 -1.372062 0
M  V30 14 C 0.423708 2.410484 -0.026644 0
M  V30 15 N -0.716842 2.886392 0.479734 0
M  V30 16 C -1.686036 3.247262 -0.380563 0
M  V30 17 C -1.419657 3.094598 -1.720934 0
M  V30 18 C -0.220802 2.594421 -2.250778 0
M  V30 19 C -0.032851 2.466446 -3.682676 0
M  V30 20 F 1.009021 3.153051 -4.230324 0
M  V30 21 F -1.181495 2.966671 -4.319201 0
M  V30 22 F 0.014626 1.137989 -4.045123 0
M  V30 23 N 2.038504 -2.001602 -2.383614 0
M  V30 24 C 1.842489 -3.235543 -1.910786 0
M  V30 25 C 1.500489 -3.395567 -0.588486 0
M  V30 26 C 1.291441 -4.730248 -0.088819 0
M  V30 27 N 1.124886 -5.802014 0.327400 0
M  V30 28 C -0.372391 -0.651999 2.102560 0
M  V30 29 C -1.623396 -0.627857 2.882794 0
M  V30 30 H -2.385917 -4.832170 2.801786 0
M  V30 31 H -3.679376 -3.552094 3.108597 0
M  V30 32 H -2.725751 -4.189899 4.452623 0
M  V30 33 H -2.739157 -1.637177 4.384906 0
M  V30 34 H -0.681504 -2.300079 5.638759 0
M  V30 35 H -0.431941 -0.597918 5.025128 0
M  V30 36 H 1.494598 -2.004469 4.548111 0
M  V30 37 H 0.446958 -3.258959 3.855592 0
M  V30 38 H 1.713662 -0.898559 2.623269 0
M  V30 39 H 0.887154 -3.524169 1.909679 0
M  V30 40 H 1.495790 -0.218743 0.276107 0
M  V30 41 H 2.455997 0.336417 -3.288753 0
M  V30 42 H 2.608501 2.437230 -2.462371 0
M  V30 43 H 2.761162 1.725305 -0.878613 0
M  V30 44 H 1.201800 2.122574 0.700178 0
M  V30 45 H -2.647965 3.643789 -0.101288 0
M  V30 46 H -2.198152 3.382747 -2.444735 0
M  V30 47 H 1.949116 -4.099631 -2.554486 0
M  V30 48 H -0.000058 0.411126 2.021491 0
M  V30 49 H -0.637004 -0.910415 1.034933 0
M  V30 50 H -1.623621 0.287451 3.544254 0
M  V30 51 H -2.489467 -0.493571 2.224502 0
M  V30 END ATOM
M  V30 BEGIN BOND
M  V30 1 1 1 2
M  V30 2 1 2 3
M  V30 3 1 3 4
M  V30 4 1 4 5
M  V30 5 1 5 6
M  V30 6 1 6 7
M  V30 7 1 7 8
M  V30 8 2 8 9
M  V30 9 1 9 10
M  V30 10 1 10 11
M  V30 11 1 11 12
M  V30 12 1 12 13
M  V30 13 2 13 14
M  V30 14 1 14 15
M  V30 15 2 15 16
M  V30 16 1 16 17
M  V30 17 2 17 18
M  V30 18 1 18 19
M  V30 19 1 19 20
M  V30 20 1 19 21
M  V30 21 1 19 22
M  V30 22 2 10 23
M  V30 23 1 23 24
M  V30 24 2 24 25
M  V30 25 1 25 26
M  V30 26 3 26 27
M  V30 27 1 6 28
M  V30 28 1 28 29
M  V30 29 1 29 3
M  V30 30 1 25 8
M  V30 31 1 18 13
M  V30 32 1 1 30
M  V30 33 1 1 31
M  V30 34 1 1 32
M  V30 35 1 3 33 CFG=1
M  V30 36 1 4 34
M  V30 37 1 4 35
M  V30 38 1 5 36
M  V30 39 1 5 37
M  V30 40 1 6 38 CFG=1
M  V30 41 1 7 39
M  V30 42 1 9 40
M  V30 43 1 11 41
M  V30 44 1 12 42
M  V30 45 1 12 43
M  V30 46 1 14 44
M  V30 47 1 16 45
M  V30 48 1 17 46
M  V30 49 1 24 47
M  V30 50 1 28 48
M  V30 51 1 28 49
M  V30 52 1 29 50
M  V30 53 1 29 51
M  V30 END BOND
M  V30 END CTAB
M  END
>  <Dataset>  (774) 
ChEMBL_Kinases

>  <Ligand_Instance>  (774) 
nan

>  <PDB_ID>  (774) 
nan

>  <Standardized_SMILES>  (774) 
CO[C@H]1CC[C@@H](Nc2cc(NCc3cnccc3C(F)(F)F)ncc2C#N)CC1

>  <Name>  (774) 
nan

>  <Pocket>  (774) 
nan

>  <ATP_Site>  (774) 
nan

>  <Peripheral>  (774) 
nan

>  <Num_H_Atoms_ProtBoundConf>  (774) 
nan

>  <Num_Resolved_Atoms>  (774) 
nan

>  <Num_Not_Resolved_Atoms>  (774) 
nan

$$$$
CHEMBL4849864
     RDKit          3D

  0  0  0  0  0  0  0  0  0  0999 V3000
M  V30 BEGIN CTAB
M  V30 COUNTS 51 53 0 0 0
M  V30 BEGIN ATOM
M  V30 1 C -0.266981 -3.058877 -0.259105 0
M  V30 2 C 0.971236 -3.440499 0.512657 0
M  V30 3 C 2.239450 -2.765650 0.055411 0
M  V30 4 C 0.721350 -3.532609 1.981271 0 CFG=1
M  V30 5 N -0.342635 -2.766257 2.548796 0
M  V30 6 C -0.566747 -1.374365 2.605107 0
M  V30 7 C 0.247803 -0.382502 2.109409 0
M  V30 8 C -0.018974 0.948043 2.182705 0
M  V30 9 N 0.849242 1.902403 1.638818 0
M  V30 10 C 1.356397 2.741559 0.613747 0
M  V30 11 C 0.344154 3.681352 0.119123 0
M  V30 12 C 0.357291 4.977685 0.650664 0
M  V30 13 N -0.500812 5.973530 0.337008 0
M  V30 14 C -1.490879 5.766690 -0.569626 0
M  V30 15 C -1.513363 4.495791 -1.099261 0
M  V30 16 C -0.648780 3.440962 -0.804223 0
M  V30 17 C -0.737302 2.121375 -1.432923 0
M  V30 18 F 0.425067 1.769800 -2.103776 0
M  V30 19 F -1.263070 1.122947 -0.663496 0
M  V30 20 F -1.673312 2.281685 -2.482557 0
M  V30 21 N -1.165552 1.348752 2.784458 0
M  V30 22 C -2.029686 0.456698 3.301911 0
M  V30 23 C -1.703537 -0.869536 3.195732 0
M  V30 24 C -2.658809 -1.782037 3.762099 0
M  V30 25 N -3.437328 -2.522542 4.216778 0
M  V30 26 C 0.370208 -5.003003 1.764141 0
M  V30 27 C 1.192081 -4.938231 0.506861 0 CFG=1
M  V30 28 C 0.551575 -5.526833 -0.696668 0
M  V30 29 N 1.125027 -4.958962 -1.891214 0
M  V30 30 O -0.326739 -6.356564 -1.087956 0
M  V30 31 H -1.056138 -2.718076 0.451794 0
M  V30 32 H -0.714138 -3.867580 -0.840794 0
M  V30 33 H -0.042503 -2.139889 -0.867047 0
M  V30 34 H 2.780782 -2.265694 0.878242 0
M  V30 35 H 2.966148 -3.463403 -0.422372 0
M  V30 36 H 1.972248 -2.014577 -0.715835 0
M  V30 37 H 1.687081 -3.484221 2.538938 0
M  V30 38 H -1.083139 -3.367270 3.006564 0
M  V30 39 H 1.153527 -0.660270 1.636594 0
M  V30 40 H 1.396581 2.000739 2.553240 0
M  V30 41 H 2.244089 3.342299 0.950904 0
M  V30 42 H 1.780106 2.108386 -0.205983 0
M  V30 43 H 1.122919 5.246503 1.395937 0
M  V30 44 H -2.236204 6.469911 -0.907459 0
M  V30 45 H -2.293472 4.261953 -1.841284 0
M  V30 46 H -2.937840 0.795344 3.777450 0
M  V30 47 H 0.754452 -5.672336 2.560396 0
M  V30 48 H -0.736116 -5.076958 1.585733 0
M  V30 49 H 2.230194 -5.268460 0.690514 0
M  V30 50 H 1.862732 -4.879230 -2.653678 0
M  V30 51 H 0.990022 -4.224686 -2.643082 0
M  V30 END ATOM
M  V30 BEGIN BOND
M  V30 1 1 1 2
M  V30 2 1 2 3
M  V30 3 1 2 4
M  V30 4 1 4 5
M  V30 5 1 5 6
M  V30 6 2 6 7
M  V30 7 1 7 8
M  V30 8 1 8 9
M  V30 9 1 9 10
M  V30 10 1 10 11
M  V30 11 2 11 12
M  V30 12 1 12 13
M  V30 13 2 13 14
M  V30 14 1 14 15
M  V30 15 2 15 16
M  V30 16 1 16 17
M  V30 17 1 17 18
M  V30 18 1 17 19
M  V30 19 1 17 20
M  V30 20 2 8 21
M  V30 21 1 21 22
M  V30 22 2 22 23
M  V30 23 1 23 24
M  V30 24 3 24 25
M  V30 25 1 4 26
M  V30 26 1 26 27
M  V30 27 1 27 28
M  V30 28 1 28 29
M  V30 29 2 28 30
M  V30 30 1 27 2
M  V30 31 1 23 6
M  V30 32 1 16 11
M  V30 33 1 1 31
M  V30 34 1 1 32
M  V30 35 1 1 33
M  V30 36 1 3 34
M  V30 37 1 3 35
M  V30 38 1 3 36
M  V30 39 1 4 37 CFG=1
M  V30 40 1 5 38
M  V30 41 1 7 39
M  V30 42 1 9 40
M  V30 43 1 10 41
M  V30 44 1 10 42
M  V30 45 1 12 43
M  V30 46 1 14 44
M  V30 47 1 15 45
M  V30 48 1 22 46
M  V30 49 1 26 47
M  V30 50 1 26 48
M  V30 51 1 27 49 CFG=1
M  V30 52 1 29 50
M  V30 53 1 29 51
M  V30 END BOND
M  V30 END CTAB
M  END
>  <Dataset>  (775) 
ChEMBL_Kinases

>  <Ligand_Instance>  (775) 
nan

>  <PDB_ID>  (775) 
nan

>  <Standardized_SMILES>  (775) 
CC1(C)[C@@H](Nc2cc(NCc3cnccc3C(F)(F)F)ncc2C#N)C[C@H]1C(N)=O

>  <Name>  (775) 
nan

>  <Pocket>  (775) 
nan

>  <ATP_Site>  (775) 
nan

>  <Peripheral>  (775) 
nan

>  <Num_H_Atoms_ProtBoundConf>  (775) 
nan

>  <Num_Resolved_Atoms>  (775) 
nan

>  <Num_Not_Resolved_Atoms>  (775) 
nan

$$$$
CHEMBL4849143
     RDKit          3D

  0  0  0  0  0  0  0  0  0  0999 V3000
M  V30 BEGIN CTAB
M  V30 COUNTS 52 56 0 0 0
M  V30 BEGIN ATOM
M  V30 1 O 0.452092 -5.617746 1.941555 0
M  V30 2 C -0.038857 -5.039001 0.925938 0
M  V30 3 O -0.900547 -6.048719 0.533189 0
M  V30 4 C 0.298276 -3.699933 0.432048 0
M  V30 5 C 1.242474 -3.068806 1.200927 0
M  V30 6 C 1.633443 -1.800437 0.833063 0
M  V30 7 C 1.109086 -1.159212 -0.268373 0
M  V30 8 C 1.409319 0.179526 -0.755535 0
M  V30 9 N 1.716973 0.205335 -2.066057 0
M  V30 10 C 2.017770 1.366230 -2.672547 0
M  V30 11 N 2.027574 2.543387 -2.016308 0
M  V30 12 C 1.726431 2.566295 -0.709093 0
M  V30 13 C 1.693834 3.714250 0.066055 0
M  V30 14 C 1.358553 3.653049 1.422582 0
M  V30 15 C 1.051026 2.430909 2.015307 0
M  V30 16 C 0.702309 2.375168 3.428991 0
M  V30 17 C 0.054679 3.339915 4.164021 0
M  V30 18 C -0.205297 3.143118 5.493996 0
M  V30 19 C 0.160550 1.984785 6.165639 0
M  V30 20 C 0.811094 1.014141 5.430104 0
M  V30 21 C 1.082409 1.198390 4.079441 0
M  V30 22 C 1.088159 1.307762 1.236533 0
M  V30 23 C 1.418869 1.382521 -0.088363 0
M  V30 24 C 0.153886 -1.864941 -1.001306 0
M  V30 25 C -0.275375 -3.133027 -0.683020 0
M  V30 26 C -1.280563 -3.887615 -1.456869 0
M  V30 27 C -2.688786 -3.745505 -0.970024 0
M  V30 28 C -3.014111 -2.333499 -1.340796 0
M  V30 29 C -2.521437 -2.332853 -2.794564 0
M  V30 30 C -1.436217 -3.347349 -2.864278 0
M  V30 31 H -1.759359 -6.221802 1.039643 0
M  V30 32 H 1.715735 -3.484065 2.084927 0
M  V30 33 H 2.382078 -1.276393 1.397255 0
M  V30 34 H 2.279162 1.476458 -3.732428 0
M  V30 35 H 1.932668 4.649598 -0.402821 0
M  V30 36 H 1.348833 4.580402 1.980309 0
M  V30 37 H -0.207838 4.217808 3.599186 0
M  V30 38 H -0.716765 3.926964 6.035538 0
M  V30 39 H -0.046323 1.830101 7.220309 0
M  V30 40 H 1.091366 0.113676 5.968160 0
M  V30 41 H 1.593341 0.363650 3.630048 0
M  V30 42 H 0.829790 0.393169 1.739012 0
M  V30 43 H -0.299362 -1.423863 -1.879050 0
M  V30 44 H -1.029434 -4.978113 -1.516507 0
M  V30 45 H -2.837694 -3.984579 0.088233 0
M  V30 46 H -3.309849 -4.421890 -1.583364 0
M  V30 47 H -4.090344 -2.095611 -1.283551 0
M  V30 48 H -2.389532 -1.654833 -0.727604 0
M  V30 49 H -2.305436 -1.340080 -3.178790 0
M  V30 50 H -3.415267 -2.693899 -3.385278 0
M  V30 51 H -0.488278 -2.981364 -3.288090 0
M  V30 52 H -1.760767 -4.218019 -3.503701 0
M  V30 END ATOM
M  V30 BEGIN BOND
M  V30 1 2 1 2
M  V30 2 1 2 3
M  V30 3 1 2 4
M  V30 4 2 4 5
M  V30 5 1 5 6
M  V30 6 2 6 7
M  V30 7 1 7 8
M  V30 8 2 8 9
M  V30 9 1 9 10
M  V30 10 2 10 11
M  V30 11 1 11 12
M  V30 12 2 12 13
M  V30 13 1 13 14
M  V30 14 2 14 15
M  V30 15 1 15 16
M  V30 16 2 16 17
M  V30 17 1 17 18
M  V30 18 2 18 19
M  V30 19 1 19 20
M  V30 20 2 20 21
M  V30 21 1 15 22
M  V30 22 2 22 23
M  V30 23 1 7 24
M  V30 24 2 24 25
M  V30 25 1 25 26
M  V30 26 1 26 27
M  V30 27 1 27 28
M  V30 28 1 28 29
M  V30 29 1 29 30
M  V30 30 1 25 4
M  V30 31 1 30 26
M  V30 32 1 23 8
M  V30 33 1 23 12
M  V30 34 1 21 16
M  V30 35 1 3 31
M  V30 36 1 5 32
M  V30 37 1 6 33
M  V30 38 1 10 34
M  V30 39 1 13 35
M  V30 40 1 14 36
M  V30 41 1 17 37
M  V30 42 1 18 38
M  V30 43 1 19 39
M  V30 44 1 20 40
M  V30 45 1 21 41
M  V30 46 1 22 42
M  V30 47 1 24 43
M  V30 48 1 26 44
M  V30 49 1 27 45
M  V30 50 1 27 46
M  V30 51 1 28 47
M  V30 52 1 28 48
M  V30 53 1 29 49
M  V30 54 1 29 50
M  V30 55 1 30 51
M  V30 56 1 30 52
M  V30 END BOND
M  V30 END CTAB
M  END
>  <Dataset>  (776) 
ChEMBL_Kinases

>  <Ligand_Instance>  (776) 
nan

>  <PDB_ID>  (776) 
nan

>  <Standardized_SMILES>  (776) 
O=C(O)c1ccc(-c2ncnc3ccc(-c4ccccc4)cc23)cc1C1CCCC1

>  <Name>  (776) 
nan

>  <Pocket>  (776) 
nan

>  <ATP_Site>  (776) 
nan

>  <Peripheral>  (776) 
nan

>  <Num_H_Atoms_ProtBoundConf>  (776) 
nan

>  <Num_Resolved_Atoms>  (776) 
nan

>  <Num_Not_Resolved_Atoms>  (776) 
nan

$$$$
CHEMBL4873633
     RDKit          3D

  0  0  0  0  0  0  0  0  0  0999 V3000
M  V30 BEGIN CTAB
M  V30 COUNTS 62 66 0 0 0
M  V30 BEGIN ATOM
M  V30 1 C 2.842968 -2.434780 3.954991 0
M  V30 2 C 3.864851 -2.031318 2.942478 0
M  V30 3 C 4.225778 -3.179984 2.043354 0
M  V30 4 N 3.458090 -0.857302 2.178876 0
M  V30 5 C 4.172231 0.296263 2.033353 0
M  V30 6 O 5.303290 0.567244 2.522232 0
M  V30 7 C 3.400589 1.115795 1.235493 0
M  V30 8 C 3.562837 2.388746 0.735121 0
M  V30 9 N 2.610966 2.932025 -0.032882 0
M  V30 10 C 1.470177 2.303206 -0.361621 0
M  V30 11 N 0.503879 2.944344 -1.182596 0
M  V30 12 C -0.730146 2.475735 -1.636612 0
M  V30 13 C -1.544642 3.248343 -2.435135 0
M  V30 14 C -2.760156 2.845526 -2.909484 0
M  V30 15 C -3.247756 1.613383 -2.606177 0
M  V30 16 C -2.485704 0.784480 -1.810180 0
M  V30 17 C -1.265892 1.238790 -1.357243 0
M  V30 18 C -3.056058 -0.553129 -1.503236 0
M  V30 19 C -3.527715 -1.112169 -2.823820 0
M  V30 20 N -4.346223 -0.238727 -3.593025 0
M  V30 21 C -4.560429 1.070919 -3.068914 0
M  V30 22 N 1.353065 1.068546 0.145564 0
M  V30 23 C 2.242771 0.441856 0.918378 0
M  V30 24 N 2.313877 -0.763843 1.514374 0
M  V30 25 C 1.252846 -1.704270 1.373003 0
M  V30 26 C 1.290324 -2.556254 0.276613 0
M  V30 27 C 0.334034 -3.514627 0.011405 0
M  V30 28 C -0.727766 -3.640344 0.884499 0
M  V30 29 F -1.646759 -4.573569 0.614393 0
M  V30 30 C -0.740998 -2.782167 1.965084 0
M  V30 31 C -1.885128 -2.918798 2.904470 0
M  V30 32 C -1.775661 -1.922802 4.037542 0
M  V30 33 C -3.158391 -2.640181 2.160030 0
M  V30 34 F -1.882822 -4.187685 3.447265 0
M  V30 35 N 0.192346 -1.853108 2.216060 0
M  V30 36 H 2.264890 -1.559399 4.314997 0
M  V30 37 H 2.180427 -3.255783 3.601316 0
M  V30 38 H 3.359407 -2.845885 4.846802 0
M  V30 39 H 4.806652 -1.773397 3.492636 0
M  V30 40 H 3.546864 -4.023628 2.271718 0
M  V30 41 H 5.258903 -3.542682 2.154382 0
M  V30 42 H 4.079397 -2.954189 0.966999 0
M  V30 43 H 4.467700 2.961599 0.961617 0
M  V30 44 H 0.761576 3.925082 -1.495362 0
M  V30 45 H -1.213204 4.254282 -2.718965 0
M  V30 46 H -3.357835 3.495168 -3.533575 0
M  V30 47 H -0.725948 0.537550 -0.740737 0
M  V30 48 H -3.964481 -0.436598 -0.863350 0
M  V30 49 H -2.321213 -1.237166 -1.073581 0
M  V30 50 H -3.971933 -2.131610 -2.707153 0
M  V30 51 H -2.591450 -1.291866 -3.416351 0
M  V30 52 H -4.098726 -0.276239 -4.610608 0
M  V30 53 H -5.302481 1.023754 -2.261226 0
M  V30 54 H -4.933086 1.710623 -3.896912 0
M  V30 55 H 2.122369 -2.478367 -0.433225 0
M  V30 56 H 0.403886 -4.153427 -0.851118 0
M  V30 57 H -0.971640 -2.195987 4.753100 0
M  V30 58 H -2.762764 -1.828123 4.530787 0
M  V30 59 H -1.512504 -0.923527 3.631276 0
M  V30 60 H -3.959338 -2.357870 2.902387 0
M  V30 61 H -2.965852 -1.789089 1.472488 0
M  V30 62 H -3.453467 -3.545608 1.591713 0
M  V30 END ATOM
M  V30 BEGIN BOND
M  V30 1 1 1 2
M  V30 2 1 2 3
M  V30 3 1 2 4
M  V30 4 1 4 5
M  V30 5 2 5 6
M  V30 6 1 5 7
M  V30 7 2 7 8
M  V30 8 1 8 9
M  V30 9 2 9 10
M  V30 10 1 10 11
M  V30 11 1 11 12
M  V30 12 2 12 13
M  V30 13 1 13 14
M  V30 14 2 14 15
M  V30 15 1 15 16
M  V30 16 2 16 17
M  V30 17 1 16 18
M  V30 18 1 18 19
M  V30 19 1 19 20
M  V30 20 1 20 21
M  V30 21 1 10 22
M  V30 22 2 22 23
M  V30 23 1 23 24
M  V30 24 1 24 25
M  V30 25 2 25 26
M  V30 26 1 26 27
M  V30 27 2 27 28
M  V30 28 1 28 29
M  V30 29 1 28 30
M  V30 30 1 30 31
M  V30 31 1 31 32
M  V30 32 1 31 33
M  V30 33 1 31 34
M  V30 34 2 30 35
M  V30 35 1 24 4
M  V30 36 1 35 25
M  V30 37 1 23 7
M  V30 38 1 17 12
M  V30 39 1 21 15
M  V30 40 1 1 36
M  V30 41 1 1 37
M  V30 42 1 1 38
M  V30 43 1 2 39
M  V30 44 1 3 40
M  V30 45 1 3 41
M  V30 46 1 3 42
M  V30 47 1 8 43
M  V30 48 1 11 44
M  V30 49 1 13 45
M  V30 50 1 14 46
M  V30 51 1 17 47
M  V30 52 1 18 48
M  V30 53 1 18 49
M  V30 54 1 19 50
M  V30 55 1 19 51
M  V30 56 1 20 52
M  V30 57 1 21 53
M  V30 58 1 21 54
M  V30 59 1 26 55
M  V30 60 1 27 56
M  V30 61 1 32 57
M  V30 62 1 32 58
M  V30 63 1 32 59
M  V30 64 1 33 60
M  V30 65 1 33 61
M  V30 66 1 33 62
M  V30 END BOND
M  V30 END CTAB
M  END
>  <Dataset>  (777) 
ChEMBL_Kinases

>  <Ligand_Instance>  (777) 
nan

>  <PDB_ID>  (777) 
nan

>  <Standardized_SMILES>  (777) 
CC(C)n1c(=O)c2cnc(Nc3ccc4c(c3)CCNC4)nc2n1-c1ccc(F)c(C(C)(C)F)n1

>  <Name>  (777) 
nan

>  <Pocket>  (777) 
nan

>  <ATP_Site>  (777) 
nan

>  <Peripheral>  (777) 
nan

>  <Num_H_Atoms_ProtBoundConf>  (777) 
nan

>  <Num_Resolved_Atoms>  (777) 
nan

>  <Num_Not_Resolved_Atoms>  (777) 
nan

$$$$
CHEMBL4873631
     RDKit          3D

  0  0  0  0  0  0  0  0  0  0999 V3000
M  V30 BEGIN CTAB
M  V30 COUNTS 48 51 0 0 0
M  V30 BEGIN ATOM
M  V30 1 C 1.748341 -4.705282 2.601210 0
M  V30 2 O 1.904437 -3.876704 1.466529 0
M  V30 3 C 2.910520 -2.917742 1.370390 0
M  V30 4 C 3.802882 -2.747928 2.408893 0
M  V30 5 C 4.815816 -1.814139 2.366315 0
M  V30 6 C 4.944794 -1.016059 1.240857 0
M  V30 7 C 4.031320 -1.218938 0.225384 0
M  V30 8 C 2.999938 -2.144637 0.227506 0
M  V30 9 C 2.100240 -2.279729 -0.910394 0
M  V30 10 C 1.476966 -1.429901 -1.743351 0
M  V30 11 N 1.712631 -0.025843 -1.507019 0
M  V30 12 C 0.716513 0.621333 -0.700339 0
M  V30 13 C 0.781432 1.950367 -0.341953 0
M  V30 14 C -0.149432 2.617199 0.422156 0
M  V30 15 C -1.247128 1.910318 0.875623 0
M  V30 16 N -2.254225 2.505065 1.681769 0
M  V30 17 C -3.634805 2.218418 1.849406 0
M  V30 18 C -4.365658 2.566116 2.961351 0
M  V30 19 C -5.709639 2.271673 3.042712 0
M  V30 20 C -6.293803 1.611378 1.959498 0
M  V30 21 C -5.586844 1.252548 0.836153 0
M  V30 22 C -4.229732 1.558642 0.771531 0
M  V30 23 C -1.371551 0.560276 0.547765 0
M  V30 24 C -0.403982 -0.029105 -0.215321 0
M  V30 25 C 0.686376 -2.158539 -2.716488 0
M  V30 26 O 0.037908 -1.501606 -3.572258 0
M  V30 27 N 0.853305 -3.552427 -2.439528 0
M  V30 28 C 1.730840 -3.638788 -1.318487 0
M  V30 29 O 1.962180 -4.839449 -0.969333 0
M  V30 30 H 1.909218 -4.131184 3.554681 0
M  V30 31 H 0.712403 -5.082327 2.599373 0
M  V30 32 H 2.476087 -5.518546 2.543954 0
M  V30 33 H 3.769837 -3.330468 3.321324 0
M  V30 34 H 5.512759 -1.684060 3.183289 0
M  V30 35 H 5.730546 -0.278927 1.188740 0
M  V30 36 H 4.198488 -0.555375 -0.624319 0
M  V30 37 H 2.492948 0.597230 -1.830964 0
M  V30 38 H 1.647064 2.521455 -0.694685 0
M  V30 39 H -0.022240 3.661256 0.658625 0
M  V30 40 H -1.906907 3.313800 2.266811 0
M  V30 41 H -3.863964 3.075896 3.774888 0
M  V30 42 H -6.253050 2.561913 3.936726 0
M  V30 43 H -7.368156 1.373821 2.018892 0
M  V30 44 H -6.140505 0.735746 0.036810 0
M  V30 45 H -3.802913 1.229753 -0.166526 0
M  V30 46 H -2.172492 -0.088597 0.852824 0
M  V30 47 H -0.484738 -1.095984 -0.485393 0
M  V30 48 H 0.339998 -4.219133 -3.060901 0
M  V30 END ATOM
M  V30 BEGIN BOND
M  V30 1 1 1 2
M  V30 2 1 2 3
M  V30 3 2 3 4
M  V30 4 1 4 5
M  V30 5 2 5 6
M  V30 6 1 6 7
M  V30 7 2 7 8
M  V30 8 1 8 9
M  V30 9 2 9 10
M  V30 10 1 10 11
M  V30 11 1 11 12
M  V30 12 2 12 13
M  V30 13 1 13 14
M  V30 14 2 14 15
M  V30 15 1 15 16
M  V30 16 1 16 17
M  V30 17 2 17 18
M  V30 18 1 18 19
M  V30 19 2 19 20
M  V30 20 1 20 21
M  V30 21 2 21 22
M  V30 22 1 15 23
M  V30 23 2 23 24
M  V30 24 1 10 25
M  V30 25 2 25 26
M  V30 26 1 25 27
M  V30 27 1 27 28
M  V30 28 2 28 29
M  V30 29 1 8 3
M  V30 30 1 28 9
M  V30 31 1 24 12
M  V30 32 1 22 17
M  V30 33 1 1 30
M  V30 34 1 1 31
M  V30 35 1 1 32
M  V30 36 1 4 33
M  V30 37 1 5 34
M  V30 38 1 6 35
M  V30 39 1 7 36
M  V30 40 1 11 37
M  V30 41 1 13 38
M  V30 42 1 14 39
M  V30 43 1 16 40
M  V30 44 1 18 41
M  V30 45 1 19 42
M  V30 46 1 20 43
M  V30 47 1 21 44
M  V30 48 1 22 45
M  V30 49 1 23 46
M  V30 50 1 24 47
M  V30 51 1 27 48
M  V30 END BOND
M  V30 END CTAB
M  END
>  <Dataset>  (778) 
ChEMBL_Kinases

>  <Ligand_Instance>  (778) 
nan

>  <PDB_ID>  (778) 
nan

>  <Standardized_SMILES>  (778) 
COc1ccccc1C1=C(Nc2ccc(Nc3ccccc3)cc2)C(=O)NC1=O

>  <Name>  (778) 
nan

>  <Pocket>  (778) 
nan

>  <ATP_Site>  (778) 
nan

>  <Peripheral>  (778) 
nan

>  <Num_H_Atoms_ProtBoundConf>  (778) 
nan

>  <Num_Resolved_Atoms>  (778) 
nan

>  <Num_Not_Resolved_Atoms>  (778) 
nan

$$$$
CHEMBL4849245
     RDKit          3D

  0  0  0  0  0  0  0  0  0  0999 V3000
M  V30 BEGIN CTAB
M  V30 COUNTS 49 52 0 0 0
M  V30 BEGIN ATOM
M  V30 1 C 2.695908 -5.210397 -2.952593 0
M  V30 2 C 3.344690 -4.633079 -1.723935 0
M  V30 3 C 2.433388 -4.653723 -0.547069 0
M  V30 4 C 1.610147 -3.566146 -0.291711 0
M  V30 5 C 0.934653 -3.944957 0.854511 0
M  V30 6 N -0.035898 -3.165678 1.544820 0
M  V30 7 C -0.304861 -1.852710 0.994239 0
M  V30 8 N 0.495027 -0.799008 1.340504 0
M  V30 9 C 0.303169 0.454136 0.870715 0
M  V30 10 N 1.305133 1.304774 1.405648 0
M  V30 11 C 0.962152 1.737073 2.720506 0 CFG=1
M  V30 12 C 2.127238 2.582587 3.246010 0
M  V30 13 C -0.244717 2.593806 2.665892 0
M  V30 14 C -0.311492 3.800726 3.408169 0
M  V30 15 C -1.378045 4.663175 3.433261 0
M  V30 16 C -2.483794 4.348007 2.683388 0
M  V30 17 C -3.650069 5.205091 2.657380 0
M  V30 18 N -4.586391 5.869750 2.629579 0
M  V30 19 C -2.451035 3.187933 1.954152 0
M  V30 20 N -1.379275 2.412981 1.987314 0
M  V30 21 N -0.743455 0.652008 0.013869 0
M  V30 22 C -1.535611 -0.378835 -0.332274 0
M  V30 23 C -2.570008 -0.121392 -1.201358 0
M  V30 24 C -3.420511 -1.163173 -1.595673 0
M  V30 25 C -3.168528 -2.427868 -1.074901 0
M  V30 26 C -2.148482 -2.741137 -0.202202 0
M  V30 27 F -1.959430 -3.992799 0.266216 0
M  V30 28 C -1.363068 -1.660565 0.129444 0
M  V30 29 N 1.366110 -5.183999 1.213506 0
M  V30 30 N 2.291545 -5.617983 0.345984 0
M  V30 31 H 3.009414 -6.278776 -3.110926 0
M  V30 32 H 2.967086 -4.581464 -3.814604 0
M  V30 33 H 1.593934 -5.202290 -2.820504 0
M  V30 34 H 3.677185 -3.602875 -1.943373 0
M  V30 35 H 4.268538 -5.206953 -1.456637 0
M  V30 36 H 1.525536 -2.653019 -0.854614 0
M  V30 37 H -0.524900 -3.512733 2.391896 0
M  V30 38 H 1.940321 1.282330 0.578509 0
M  V30 39 H 0.760773 0.885131 3.370353 0
M  V30 40 H 2.042399 2.781611 4.324491 0
M  V30 41 H 2.205504 3.494646 2.620203 0
M  V30 42 H 3.068427 1.999979 3.092782 0
M  V30 43 H 0.539221 4.097607 4.017992 0
M  V30 44 H -1.339157 5.559619 4.030670 0
M  V30 45 H -3.302035 2.883385 1.337214 0
M  V30 46 H -2.718224 0.862592 -1.565869 0
M  V30 47 H -4.218255 -0.934694 -2.277312 0
M  V30 48 H -3.863959 -3.177426 -1.429003 0
M  V30 49 H 2.826601 -6.502717 0.310945 0
M  V30 END ATOM
M  V30 BEGIN BOND
M  V30 1 1 1 2
M  V30 2 1 2 3
M  V30 3 2 3 4
M  V30 4 1 4 5
M  V30 5 1 5 6
M  V30 6 1 6 7
M  V30 7 2 7 8
M  V30 8 1 8 9
M  V30 9 1 9 10
M  V30 10 1 10 11
M  V30 11 1 11 12
M  V30 12 1 11 13
M  V30 13 2 13 14
M  V30 14 1 14 15
M  V30 15 2 15 16
M  V30 16 1 16 17
M  V30 17 3 17 18
M  V30 18 1 16 19
M  V30 19 2 19 20
M  V30 20 2 9 21
M  V30 21 1 21 22
M  V30 22 2 22 23
M  V30 23 1 23 24
M  V30 24 2 24 25
M  V30 25 1 25 26
M  V30 26 1 26 27
M  V30 27 2 26 28
M  V30 28 2 5 29
M  V30 29 1 29 30
M  V30 30 1 30 3
M  V30 31 1 28 7
M  V30 32 1 20 13
M  V30 33 1 28 22
M  V30 34 1 1 31
M  V30 35 1 1 32
M  V30 36 1 1 33
M  V30 37 1 2 34
M  V30 38 1 2 35
M  V30 39 1 4 36
M  V30 40 1 6 37
M  V30 41 1 10 38
M  V30 42 1 11 39 CFG=1
M  V30 43 1 12 40
M  V30 44 1 12 41
M  V30 45 1 12 42
M  V30 46 1 14 43
M  V30 47 1 15 44
M  V30 48 1 19 45
M  V30 49 1 23 46
M  V30 50 1 24 47
M  V30 51 1 25 48
M  V30 52 1 30 49
M  V30 END BOND
M  V30 END CTAB
M  END
>  <Dataset>  (779) 
ChEMBL_Kinases

>  <Ligand_Instance>  (779) 
nan

>  <PDB_ID>  (779) 
nan

>  <Standardized_SMILES>  (779) 
CCc1cc(Nc2nc(N[C@@H](C)c3ccc(C#N)cn3)nc3cccc(F)c23)n[nH]1

>  <Name>  (779) 
nan

>  <Pocket>  (779) 
nan

>  <ATP_Site>  (779) 
nan

>  <Peripheral>  (779) 
nan

>  <Num_H_Atoms_ProtBoundConf>  (779) 
nan

>  <Num_Resolved_Atoms>  (779) 
nan

>  <Num_Not_Resolved_Atoms>  (779) 
nan

$$$$
CHEMBL4873381
     RDKit          3D

  0  0  0  0  0  0  0  0  0  0999 V3000
M  V30 BEGIN CTAB
M  V30 COUNTS 51 54 0 0 0
M  V30 BEGIN ATOM
M  V30 1 C 0.774263 -5.418449 4.307939 0
M  V30 2 O -0.445355 -5.326967 3.595737 0
M  V30 3 C -0.410114 -4.742045 2.338053 0
M  V30 4 C 0.657455 -4.218822 1.649079 0
M  V30 5 C 0.490083 -3.673603 0.392733 0
M  V30 6 C 1.672181 -3.126830 -0.296313 0
M  V30 7 N 1.889174 -1.728621 -0.012376 0
M  V30 8 C 2.730135 -1.495690 1.147623 0
M  V30 9 C 3.307426 -0.090271 1.161969 0
M  V30 10 O 2.302167 0.876810 1.417385 0
M  V30 11 C 1.374342 1.342325 0.463875 0
M  V30 12 C 0.928046 2.640810 0.603303 0
M  V30 13 C 0.018977 3.119391 -0.318350 0
M  V30 14 C -0.415772 4.497097 -0.119269 0
M  V30 15 C 0.359201 5.502308 0.419029 0
M  V30 16 C -0.194348 6.760624 0.544177 0
M  V30 17 N -1.452249 7.020535 0.158175 0
M  V30 18 C -2.248176 6.071092 -0.373310 0
M  V30 19 C -1.721717 4.788092 -0.514583 0
M  V30 20 C -0.446745 2.350801 -1.354693 0
M  V30 21 C -0.022087 1.042221 -1.528002 0
M  V30 22 C 0.888027 0.572047 -0.600326 0
M  V30 23 C 1.232809 -0.827851 -0.928587 0
M  V30 24 O 0.945957 -1.278870 -2.066798 0
M  V30 25 C -0.747431 -3.626890 -0.229627 0
M  V30 26 C -1.825505 -4.147072 0.448320 0
M  V30 27 O -3.069373 -4.102527 -0.171977 0
M  V30 28 C -4.171291 -4.632196 0.516951 0
M  V30 29 C -1.664162 -4.701801 1.722816 0
M  V30 30 H 1.371716 -6.301423 3.992297 0
M  V30 31 H 0.529676 -5.459263 5.401580 0
M  V30 32 H 1.409670 -4.518130 4.199768 0
M  V30 33 H 1.593988 -4.283925 2.184419 0
M  V30 34 H 2.561697 -3.688891 0.043564 0
M  V30 35 H 1.555156 -3.331101 -1.378088 0
M  V30 36 H 2.056231 -1.556259 2.047255 0
M  V30 37 H 3.551711 -2.234619 1.222904 0
M  V30 38 H 3.964737 -0.062829 2.073751 0
M  V30 39 H 3.885285 0.112686 0.258901 0
M  V30 40 H 1.335346 3.185036 1.438378 0
M  V30 41 H 1.360969 5.217018 0.706225 0
M  V30 42 H 0.411882 7.537607 0.962760 0
M  V30 43 H -3.266383 6.241159 -0.696057 0
M  V30 44 H -2.370049 4.023610 -0.945325 0
M  V30 45 H -1.156770 2.787664 -2.039534 0
M  V30 46 H -0.371991 0.413110 -2.335805 0
M  V30 47 H -0.824232 -3.195148 -1.200843 0
M  V30 48 H -4.089220 -5.731153 0.712755 0
M  V30 49 H -4.289586 -4.182858 1.533943 0
M  V30 50 H -5.125882 -4.453049 -0.015254 0
M  V30 51 H -2.582167 -5.091597 2.184115 0
M  V30 END ATOM
M  V30 BEGIN BOND
M  V30 1 1 1 2
M  V30 2 1 2 3
M  V30 3 2 3 4
M  V30 4 1 4 5
M  V30 5 1 5 6
M  V30 6 1 6 7
M  V30 7 1 7 8
M  V30 8 1 8 9
M  V30 9 1 9 10
M  V30 10 1 10 11
M  V30 11 2 11 12
M  V30 12 1 12 13
M  V30 13 1 13 14
M  V30 14 2 14 15
M  V30 15 1 15 16
M  V30 16 2 16 17
M  V30 17 1 17 18
M  V30 18 2 18 19
M  V30 19 2 13 20
M  V30 20 1 20 21
M  V30 21 2 21 22
M  V30 22 1 22 23
M  V30 23 2 23 24
M  V30 24 2 5 25
M  V30 25 1 25 26
M  V30 26 1 26 27
M  V30 27 1 27 28
M  V30 28 2 26 29
M  V30 29 1 29 3
M  V30 30 1 23 7
M  V30 31 1 22 11
M  V30 32 1 19 14
M  V30 33 1 1 30
M  V30 34 1 1 31
M  V30 35 1 1 32
M  V30 36 1 4 33
M  V30 37 1 6 34
M  V30 38 1 6 35
M  V30 39 1 8 36
M  V30 40 1 8 37
M  V30 41 1 9 38
M  V30 42 1 9 39
M  V30 43 1 12 40
M  V30 44 1 15 41
M  V30 45 1 16 42
M  V30 46 1 18 43
M  V30 47 1 19 44
M  V30 48 1 20 45
M  V30 49 1 21 46
M  V30 50 1 25 47
M  V30 51 1 28 48
M  V30 52 1 28 49
M  V30 53 1 28 50
M  V30 54 1 29 51
M  V30 END BOND
M  V30 END CTAB
M  END
>  <Dataset>  (780) 
ChEMBL_Kinases

>  <Ligand_Instance>  (780) 
nan

>  <PDB_ID>  (780) 
nan

>  <Standardized_SMILES>  (780) 
COc1cc(CN2CCOc3cc(-c4ccncc4)ccc3C2=O)cc(OC)c1

>  <Name>  (780) 
nan

>  <Pocket>  (780) 
nan

>  <ATP_Site>  (780) 
nan

>  <Peripheral>  (780) 
nan

>  <Num_H_Atoms_ProtBoundConf>  (780) 
nan

>  <Num_Resolved_Atoms>  (780) 
nan

>  <Num_Not_Resolved_Atoms>  (780) 
nan

$$$$
CHEMBL4849429
     RDKit          3D

  0  0  0  0  0  0  0  0  0  0999 V3000
M  V30 BEGIN CTAB
M  V30 COUNTS 54 56 0 0 0
M  V30 BEGIN ATOM
M  V30 1 C 1.638665 -4.063713 4.008142 0
M  V30 2 C 1.060778 -3.907515 2.589640 0
M  V30 3 C 0.799517 -5.328307 2.117816 0
M  V30 4 C 2.075922 -3.297277 1.690776 0
M  V30 5 C 1.595580 -2.090505 0.907967 0 CFG=1
M  V30 6 N 0.806836 -2.390118 -0.226343 0
M  V30 7 C 0.237299 -1.633117 -1.248585 0
M  V30 8 C 0.394977 -0.272688 -1.320176 0
M  V30 9 C -0.177469 0.452694 -2.343582 0
M  V30 10 N -0.073096 1.859210 -2.460752 0
M  V30 11 C -0.545801 3.202926 -2.237543 0
M  V30 12 C -0.749518 3.587929 -0.844593 0
M  V30 13 C 0.259915 4.256872 -0.181358 0
M  V30 14 N 0.276977 4.676373 1.118610 0
M  V30 15 C -0.821946 4.416644 1.874320 0
M  V30 16 C -1.850487 3.755356 1.259894 0
M  V30 17 C -1.857703 3.329803 -0.074630 0
M  V30 18 C -3.028617 2.653372 -0.638755 0
M  V30 19 F -4.006138 2.555376 0.369394 0
M  V30 20 F -3.626400 3.418099 -1.647069 0
M  V30 21 F -2.842425 1.380480 -1.074237 0
M  V30 22 N -0.907011 -0.184915 -3.295036 0
M  V30 23 C -1.108019 -1.520551 -3.293811 0
M  V30 24 C -0.516082 -2.185613 -2.254299 0
M  V30 25 C -0.716414 -3.609917 -2.229153 0
M  V30 26 N -0.878764 -4.757602 -2.188632 0
M  V30 27 C 0.999216 -1.177982 1.934150 0
M  V30 28 C -0.259148 -1.743663 2.512413 0
M  V30 29 C -0.257246 -3.217756 2.692807 0 CFG=1
M  V30 30 O -1.166817 -3.848415 1.820496 0
M  V30 31 H 2.574445 -4.675404 3.943891 0
M  V30 32 H 1.800851 -3.086917 4.461105 0
M  V30 33 H 0.896602 -4.616179 4.610654 0
M  V30 34 H 1.413371 -6.035056 2.671407 0
M  V30 35 H 1.066402 -5.378600 1.023242 0
M  V30 36 H -0.291418 -5.576294 2.163974 0
M  V30 37 H 2.542199 -4.054075 0.998007 0
M  V30 38 H 2.931120 -2.938205 2.302455 0
M  V30 39 H 2.538838 -1.587017 0.542956 0
M  V30 40 H 0.617043 -3.435535 -0.293961 0
M  V30 41 H 0.941322 0.318200 -0.640397 0
M  V30 42 H 0.832647 1.778531 -2.989411 0
M  V30 43 H -1.448011 3.398314 -2.874324 0
M  V30 44 H 0.222580 3.902161 -2.677695 0
M  V30 45 H 1.196535 4.518276 -0.700246 0
M  V30 46 H -0.899067 4.707738 2.905032 0
M  V30 47 H -2.737683 3.547657 1.876542 0
M  V30 48 H -1.684189 -2.034379 -4.041465 0
M  V30 49 H 1.742721 -1.184478 2.789721 0
M  V30 50 H 0.888394 -0.136541 1.668356 0
M  V30 51 H -0.490121 -1.174048 3.450161 0
M  V30 52 H -1.102305 -1.472917 1.825653 0
M  V30 53 H -0.672930 -3.430180 3.711221 0
M  V30 54 H -1.744971 -3.193989 1.343952 0
M  V30 END ATOM
M  V30 BEGIN BOND
M  V30 1 1 1 2
M  V30 2 1 2 3
M  V30 3 1 2 4
M  V30 4 1 4 5
M  V30 5 1 5 6
M  V30 6 1 6 7
M  V30 7 2 7 8
M  V30 8 1 8 9
M  V30 9 1 9 10
M  V30 10 1 10 11
M  V30 11 1 11 12
M  V30 12 2 12 13
M  V30 13 1 13 14
M  V30 14 2 14 15
M  V30 15 1 15 16
M  V30 16 2 16 17
M  V30 17 1 17 18
M  V30 18 1 18 19
M  V30 19 1 18 20
M  V30 20 1 18 21
M  V30 21 2 9 22
M  V30 22 1 22 23
M  V30 23 2 23 24
M  V30 24 1 24 25
M  V30 25 3 25 26
M  V30 26 1 5 27
M  V30 27 1 27 28
M  V30 28 1 28 29
M  V30 29 1 29 30
M  V30 30 1 29 2
M  V30 31 1 24 7
M  V30 32 1 17 12
M  V30 33 1 1 31
M  V30 34 1 1 32
M  V30 35 1 1 33
M  V30 36 1 3 34
M  V30 37 1 3 35
M  V30 38 1 3 36
M  V30 39 1 4 37
M  V30 40 1 4 38
M  V30 41 1 5 39 CFG=3
M  V30 42 1 6 40
M  V30 43 1 8 41
M  V30 44 1 10 42
M  V30 45 1 11 43
M  V30 46 1 11 44
M  V30 47 1 13 45
M  V30 48 1 15 46
M  V30 49 1 16 47
M  V30 50 1 23 48
M  V30 51 1 27 49
M  V30 52 1 27 50
M  V30 53 1 28 51
M  V30 54 1 28 52
M  V30 55 1 29 53 CFG=1
M  V30 56 1 30 54
M  V30 END BOND
M  V30 END CTAB
M  END
>  <Dataset>  (781) 
ChEMBL_Kinases

>  <Ligand_Instance>  (781) 
nan

>  <PDB_ID>  (781) 
nan

>  <Standardized_SMILES>  (781) 
CC1(C)C[C@@H](Nc2cc(NCc3cnccc3C(F)(F)F)ncc2C#N)CC[C@H]1O

>  <Name>  (781) 
nan

>  <Pocket>  (781) 
nan

>  <ATP_Site>  (781) 
nan

>  <Peripheral>  (781) 
nan

>  <Num_H_Atoms_ProtBoundConf>  (781) 
nan

>  <Num_Resolved_Atoms>  (781) 
nan

>  <Num_Not_Resolved_Atoms>  (781) 
nan

$$$$
CHEMBL4849510
     RDKit          3D

  0  0  0  0  0  0  0  0  0  0999 V3000
M  V30 BEGIN CTAB
M  V30 COUNTS 50 52 0 0 0
M  V30 BEGIN ATOM
M  V30 1 C 1.093121 -1.487360 2.317000 0
M  V30 2 C 2.181602 -0.489363 1.982578 0
M  V30 3 C 1.809103 0.952942 2.083869 0
M  V30 4 C 3.390719 -0.751366 2.897754 0 CFG=1
M  V30 5 O 3.098322 -1.222989 4.149892 0
M  V30 6 C 3.853910 -1.754186 1.865843 0
M  V30 7 C 3.081485 -0.901228 0.847818 0 CFG=1
M  V30 8 N 2.535437 -1.699472 -0.197180 0
M  V30 9 C 1.471804 -1.362296 -1.075437 0
M  V30 10 N 0.834442 -0.190345 -0.978750 0
M  V30 11 C -0.161192 0.232955 -1.771480 0
M  V30 12 N -0.667566 1.517294 -1.435514 0
M  V30 13 C -1.821900 2.088525 -0.802511 0
M  V30 14 C -2.151835 1.532240 0.513117 0
M  V30 15 C -1.816264 2.243628 1.656359 0
M  V30 16 N -2.079910 1.828030 2.912932 0
M  V30 17 C -2.711621 0.643258 3.029165 0
M  V30 18 N -3.038108 -0.048208 1.936819 0
M  V30 19 C -2.801333 0.313471 0.677232 0
M  V30 20 O -3.090127 -0.312954 -0.500141 0
M  V30 21 C -3.740025 -1.538835 -0.616687 0
M  V30 22 C -3.024456 -2.674327 0.044746 0
M  V30 23 F -1.764438 -2.836894 -0.501843 0
M  V30 24 F -2.946160 -2.565612 1.407035 0
M  V30 25 N -0.581127 -0.582454 -2.771710 0
M  V30 26 C 0.018182 -1.783172 -2.927568 0
M  V30 27 C 1.041281 -2.183878 -2.090372 0
M  V30 28 C 1.661376 -3.478611 -2.282824 0
M  V30 29 N 2.155835 -4.521259 -2.420303 0
M  V30 30 H 0.112370 -0.978632 2.391594 0
M  V30 31 H 1.079300 -2.348892 1.622294 0
M  V30 32 H 1.268843 -1.946791 3.333392 0
M  V30 33 H 0.974416 0.992600 2.844784 0
M  V30 34 H 2.621131 1.564718 2.559836 0
M  V30 35 H 1.403031 1.420767 1.192567 0
M  V30 36 H 4.057092 0.132047 2.845486 0
M  V30 37 H 3.693477 -0.817216 4.853773 0
M  V30 38 H 3.349665 -2.738256 1.946215 0
M  V30 39 H 4.949610 -1.763203 1.687060 0
M  V30 40 H 3.746596 -0.069121 0.536018 0
M  V30 41 H 2.958387 -2.663282 -0.359283 0
M  V30 42 H 0.096498 2.167919 -1.803402 0
M  V30 43 H -2.723945 2.056188 -1.483274 0
M  V30 44 H -1.634147 3.191597 -0.697534 0
M  V30 45 H -1.300855 3.211968 1.626983 0
M  V30 46 H -2.973967 0.219331 3.988314 0
M  V30 47 H -3.892952 -1.733240 -1.715989 0
M  V30 48 H -4.793286 -1.465471 -0.227527 0
M  V30 49 H -3.566548 -3.645298 -0.179364 0
M  V30 50 H -0.353750 -2.396704 -3.742516 0
M  V30 END ATOM
M  V30 BEGIN BOND
M  V30 1 1 1 2
M  V30 2 1 2 3
M  V30 3 1 2 4
M  V30 4 1 4 5
M  V30 5 1 4 6
M  V30 6 1 6 7
M  V30 7 1 7 8
M  V30 8 1 8 9
M  V30 9 2 9 10
M  V30 10 1 10 11
M  V30 11 1 11 12
M  V30 12 1 12 13
M  V30 13 1 13 14
M  V30 14 2 14 15
M  V30 15 1 15 16
M  V30 16 2 16 17
M  V30 17 1 17 18
M  V30 18 2 18 19
M  V30 19 1 19 20
M  V30 20 1 20 21
M  V30 21 1 21 22
M  V30 22 1 22 23
M  V30 23 1 22 24
M  V30 24 2 11 25
M  V30 25 1 25 26
M  V30 26 2 26 27
M  V30 27 1 27 28
M  V30 28 3 28 29
M  V30 29 1 7 2
M  V30 30 1 27 9
M  V30 31 1 19 14
M  V30 32 1 1 30
M  V30 33 1 1 31
M  V30 34 1 1 32
M  V30 35 1 3 33
M  V30 36 1 3 34
M  V30 37 1 3 35
M  V30 38 1 4 36 CFG=1
M  V30 39 1 5 37
M  V30 40 1 6 38
M  V30 41 1 6 39
M  V30 42 1 7 40 CFG=3
M  V30 43 1 8 41
M  V30 44 1 12 42
M  V30 45 1 13 43
M  V30 46 1 13 44
M  V30 47 1 15 45
M  V30 48 1 17 46
M  V30 49 1 21 47
M  V30 50 1 21 48
M  V30 51 1 22 49
M  V30 52 1 26 50
M  V30 END BOND
M  V30 END CTAB
M  END
>  <Dataset>  (782) 
ChEMBL_Kinases

>  <Ligand_Instance>  (782) 
nan

>  <PDB_ID>  (782) 
nan

>  <Standardized_SMILES>  (782) 
CC1(C)[C@@H](O)C[C@H]1Nc1nc(NCc2cncnc2OCC(F)F)ncc1C#N

>  <Name>  (782) 
nan

>  <Pocket>  (782) 
nan

>  <ATP_Site>  (782) 
nan

>  <Peripheral>  (782) 
nan

>  <Num_H_Atoms_ProtBoundConf>  (782) 
nan

>  <Num_Resolved_Atoms>  (782) 
nan

>  <Num_Not_Resolved_Atoms>  (782) 
nan

$$$$
CHEMBL4873244
     RDKit          3D

  0  0  0  0  0  0  0  0  0  0999 V3000
M  V30 BEGIN CTAB
M  V30 COUNTS 62 66 0 0 0
M  V30 BEGIN ATOM
M  V30 1 C 4.992207 -2.716195 5.433158 0
M  V30 2 N 4.345030 -1.892720 4.405293 0
M  V30 3 C 5.133683 -2.043846 3.179900 0
M  V30 4 C 4.623117 -1.049650 2.187000 0
M  V30 5 N 3.163162 -1.153988 2.112139 0
M  V30 6 C 2.395423 -0.133151 1.484730 0
M  V30 7 C 1.019003 -0.110031 1.379491 0
M  V30 8 C 0.340576 0.912338 0.751379 0
M  V30 9 C 1.029669 1.969048 0.194639 0
M  V30 10 N 0.352888 3.032612 -0.467504 0
M  V30 11 C -1.070923 3.066708 -0.529503 0
M  V30 12 N -1.749007 4.089371 0.022297 0
M  V30 13 C -3.074506 4.190705 0.008905 0
M  V30 14 C -3.840814 3.218051 -0.592339 0
M  V30 15 C -5.189226 3.015456 -0.778644 0
M  V30 16 F -6.136959 3.882429 -0.329492 0
M  V30 17 C -5.295265 1.816639 -1.471206 0
M  V30 18 N -4.069899 1.321469 -1.691419 0
M  V30 19 C -3.893570 0.090640 -2.381017 0
M  V30 20 C -4.683950 -0.297221 -3.460767 0
M  V30 21 C -4.424191 -1.522803 -4.055499 0
M  V30 22 C -3.411157 -2.305731 -3.569961 0
M  V30 23 C -2.652280 -1.865738 -2.486069 0
M  V30 24 N -1.606687 -2.729238 -2.025263 0
M  V30 25 S -1.896931 -3.332102 -0.585622 0
M  V30 26 C -3.369040 -4.304582 -0.728459 0
M  V30 27 C -0.544872 -4.304563 -0.010599 0
M  V30 28 O -2.198315 -2.154195 0.259402 0
M  V30 29 N -2.890413 -0.684973 -1.900806 0
M  V30 30 C -3.159920 2.160811 -1.163589 0
M  V30 31 N -1.810957 2.094182 -1.128828 0
M  V30 32 C 2.406187 1.977103 0.282507 0
M  V30 33 C 3.078820 0.940828 0.918585 0
M  V30 34 C 2.639114 -2.342410 2.708114 0
M  V30 35 C 2.990037 -2.372978 4.191749 0
M  V30 36 H 6.090673 -2.678291 5.223711 0
M  V30 37 H 4.583407 -3.755794 5.261573 0
M  V30 38 H 4.747878 -2.357520 6.440267 0
M  V30 39 H 6.160019 -1.732123 3.467379 0
M  V30 40 H 5.133936 -3.063689 2.787103 0
M  V30 41 H 4.841190 -0.017939 2.535587 0
M  V30 42 H 5.043390 -1.180378 1.170770 0
M  V30 43 H 0.476886 -0.941159 1.815875 0
M  V30 44 H -0.759294 0.861836 0.708373 0
M  V30 45 H 0.901481 3.795434 -0.912541 0
M  V30 46 H -3.592099 5.039818 0.467946 0
M  V30 47 H -6.294027 1.468670 -1.722699 0
M  V30 48 H -5.469521 0.374489 -3.794439 0
M  V30 49 H -5.032260 -1.824729 -4.887587 0
M  V30 50 H -3.183146 -3.269760 -4.013318 0
M  V30 51 H -3.551050 -4.826304 0.249160 0
M  V30 52 H -3.335080 -5.022866 -1.569793 0
M  V30 53 H -4.220120 -3.597366 -0.849063 0
M  V30 54 H -0.865956 -4.835746 0.890052 0
M  V30 55 H 0.335284 -3.681056 0.123958 0
M  V30 56 H -0.336430 -5.073594 -0.785109 0
M  V30 57 H 2.920283 2.821988 -0.164403 0
M  V30 58 H 4.156523 1.051299 0.928767 0
M  V30 59 H 1.558279 -2.471208 2.612236 0
M  V30 60 H 3.171607 -3.232598 2.261049 0
M  V30 61 H 2.891832 -3.422787 4.547410 0
M  V30 62 H 2.285099 -1.713143 4.728738 0
M  V30 END ATOM
M  V30 BEGIN BOND
M  V30 1 1 1 2
M  V30 2 1 2 3
M  V30 3 1 3 4
M  V30 4 1 4 5
M  V30 5 1 5 6
M  V30 6 2 6 7
M  V30 7 1 7 8
M  V30 8 2 8 9
M  V30 9 1 9 10
M  V30 10 1 10 11
M  V30 11 2 11 12
M  V30 12 1 12 13
M  V30 13 2 13 14
M  V30 14 1 14 15
M  V30 15 1 15 16
M  V30 16 2 15 17
M  V30 17 1 17 18
M  V30 18 1 18 19
M  V30 19 2 19 20
M  V30 20 1 20 21
M  V30 21 2 21 22
M  V30 22 1 22 23
M  V30 23 1 23 24
M  V30 24 2 24 25
M  V30 25 1 25 26
M  V30 26 1 25 27
M  V30 27 2 25 28
M  V30 28 2 23 29
M  V30 29 1 18 30
M  V30 30 2 30 31
M  V30 31 1 9 32
M  V30 32 2 32 33
M  V30 33 1 5 34
M  V30 34 1 34 35
M  V30 35 1 35 2
M  V30 36 1 33 6
M  V30 37 1 31 11
M  V30 38 1 30 14
M  V30 39 1 29 19
M  V30 40 1 1 36
M  V30 41 1 1 37
M  V30 42 1 1 38
M  V30 43 1 3 39
M  V30 44 1 3 40
M  V30 45 1 4 41
M  V30 46 1 4 42
M  V30 47 1 7 43
M  V30 48 1 8 44
M  V30 49 1 10 45
M  V30 50 1 13 46
M  V30 51 1 17 47
M  V30 52 1 20 48
M  V30 53 1 21 49
M  V30 54 1 22 50
M  V30 55 1 26 51
M  V30 56 1 26 52
M  V30 57 1 26 53
M  V30 58 1 27 54
M  V30 59 1 27 55
M  V30 60 1 27 56
M  V30 61 1 32 57
M  V30 62 1 33 58
M  V30 63 1 34 59
M  V30 64 1 34 60
M  V30 65 1 35 61
M  V30 66 1 35 62
M  V30 END BOND
M  V30 END CTAB
M  END
>  <Dataset>  (783) 
ChEMBL_Kinases

>  <Ligand_Instance>  (783) 
nan

>  <PDB_ID>  (783) 
nan

>  <Standardized_SMILES>  (783) 
CN1CCN(c2ccc(Nc3ncc4c(F)cn(-c5cccc(N=S(C)(C)=O)n5)c4n3)cc2)CC1

>  <Name>  (783) 
nan

>  <Pocket>  (783) 
nan

>  <ATP_Site>  (783) 
nan

>  <Peripheral>  (783) 
nan

>  <Num_H_Atoms_ProtBoundConf>  (783) 
nan

>  <Num_Resolved_Atoms>  (783) 
nan

>  <Num_Not_Resolved_Atoms>  (783) 
nan

$$$$
CHEMBL484966
     RDKit          3D

  0  0  0  0  0  0  0  0  0  0999 V3000
M  V30 BEGIN CTAB
M  V30 COUNTS 39 41 0 0 0
M  V30 BEGIN ATOM
M  V30 1 C 0.341220 -6.151621 1.404701 0
M  V30 2 C -0.183975 -4.886364 1.986431 0
M  V30 3 C 0.038793 -3.599011 1.523318 0
M  V30 4 C -0.610084 -2.716237 2.322692 0
M  V30 5 C -0.682211 -1.341271 2.259830 0
M  V30 6 C -0.029360 -0.510442 1.252596 0
M  V30 7 C 1.265417 -0.591347 0.776960 0
M  V30 8 C 1.692918 0.299158 -0.188395 0
M  V30 9 C 0.862742 1.276677 -0.699155 0
M  V30 10 N 1.399645 2.142279 -1.688595 0
M  V30 11 C 1.317558 1.832852 -3.114169 0
M  V30 12 S 2.086181 3.486187 -0.843660 0
M  V30 13 C 0.753369 4.285657 0.040825 0
M  V30 14 O 2.634861 4.479127 -1.801242 0
M  V30 15 O 3.082848 3.040834 0.185681 0
M  V30 16 C -0.438332 1.383427 -0.243628 0
M  V30 17 C -0.855190 0.489067 0.720621 0
M  V30 18 C -1.439661 -0.683742 3.236841 0
M  V30 19 C -2.081458 -1.441071 4.220861 0
M  V30 20 N -1.975765 -2.778850 4.232597 0
M  V30 21 C -1.249779 -3.449013 3.300915 0
M  V30 22 N -0.983680 -4.769525 3.086818 0
M  V30 23 H 1.094577 -5.888708 0.645935 0
M  V30 24 H 0.792845 -6.783945 2.222645 0
M  V30 25 H -0.446133 -6.734098 0.901189 0
M  V30 26 H 0.643266 -3.377270 0.654513 0
M  V30 27 H 1.845727 -1.383287 1.230042 0
M  V30 28 H 2.721246 0.142256 -0.484485 0
M  V30 29 H 1.804562 0.896119 -3.386437 0
M  V30 30 H 1.921937 2.639634 -3.615225 0
M  V30 31 H 0.295616 1.972675 -3.494906 0
M  V30 32 H 0.432611 3.661381 0.917107 0
M  V30 33 H 1.168955 5.223659 0.488425 0
M  V30 34 H -0.080171 4.539917 -0.638073 0
M  V30 35 H -1.092418 2.145168 -0.638686 0
M  V30 36 H -1.894371 0.626159 1.038787 0
M  V30 37 H -1.554611 0.378451 3.270795 0
M  V30 38 H -2.671703 -0.920395 4.981251 0
M  V30 39 H -1.341029 -5.575290 3.680397 0
M  V30 END ATOM
M  V30 BEGIN BOND
M  V30 1 1 1 2
M  V30 2 2 2 3
M  V30 3 1 3 4
M  V30 4 2 4 5
M  V30 5 1 5 6
M  V30 6 2 6 7
M  V30 7 1 7 8
M  V30 8 2 8 9
M  V30 9 1 9 10
M  V30 10 1 10 11
M  V30 11 1 10 12
M  V30 12 1 12 13
M  V30 13 2 12 14
M  V30 14 2 12 15
M  V30 15 1 9 16
M  V30 16 2 16 17
M  V30 17 1 5 18
M  V30 18 2 18 19
M  V30 19 1 19 20
M  V30 20 2 20 21
M  V30 21 1 21 22
M  V30 22 1 22 2
M  V30 23 1 21 4
M  V30 24 1 17 6
M  V30 25 1 1 23
M  V30 26 1 1 24
M  V30 27 1 1 25
M  V30 28 1 3 26
M  V30 29 1 7 27
M  V30 30 1 8 28
M  V30 31 1 11 29
M  V30 32 1 11 30
M  V30 33 1 11 31
M  V30 34 1 13 32
M  V30 35 1 13 33
M  V30 36 1 13 34
M  V30 37 1 16 35
M  V30 38 1 17 36
M  V30 39 1 18 37
M  V30 40 1 19 38
M  V30 41 1 22 39
M  V30 END BOND
M  V30 END CTAB
M  END
>  <Dataset>  (784) 
ChEMBL_Kinases

>  <Ligand_Instance>  (784) 
nan

>  <PDB_ID>  (784) 
nan

>  <Standardized_SMILES>  (784) 
Cc1cc2c(-c3ccc(N(C)S(C)(=O)=O)cc3)ccnc2[nH]1

>  <Name>  (784) 
nan

>  <Pocket>  (784) 
nan

>  <ATP_Site>  (784) 
nan

>  <Peripheral>  (784) 
nan

>  <Num_H_Atoms_ProtBoundConf>  (784) 
nan

>  <Num_Resolved_Atoms>  (784) 
nan

>  <Num_Not_Resolved_Atoms>  (784) 
nan

$$$$
CHEMBL4849684
     RDKit          3D

  0  0  0  0  0  0  0  0  0  0999 V3000
M  V30 BEGIN CTAB
M  V30 COUNTS 50 55 0 0 0
M  V30 BEGIN ATOM
M  V30 1 F 3.085474 -1.600152 6.370077 0
M  V30 2 C 3.456148 -1.332091 5.093121 0
M  V30 3 C 4.625575 -1.866955 4.573981 0
M  V30 4 C 4.987816 -1.585639 3.276890 0
M  V30 5 C 4.186011 -0.773059 2.499443 0
M  V30 6 N 4.300631 -0.346014 1.229708 0
M  V30 7 C 3.249581 0.454442 0.883515 0
M  V30 8 C 3.135117 1.058283 -0.467584 0
M  V30 9 N 2.419084 0.220983 -1.395657 0
M  V30 10 C 1.079337 -0.179793 -1.183813 0
M  V30 11 N 0.405675 0.222719 -0.068066 0
M  V30 12 C -0.867322 -0.166262 0.119467 0
M  V30 13 N -1.511476 0.284018 1.295548 0
M  V30 14 C -0.903617 1.117127 2.287758 0
M  V30 15 C -1.941130 2.106510 2.790298 0
M  V30 16 O -2.831156 2.348824 1.747720 0
M  V30 17 C -3.698823 1.237674 1.656214 0
M  V30 18 C -2.879676 -0.043274 1.648586 0
M  V30 19 N -1.559823 -0.947366 -0.730092 0
M  V30 20 C -0.944277 -1.369044 -1.839632 0
M  V30 21 C 0.367541 -0.988677 -2.067099 0
M  V30 22 N 0.744496 -1.539493 -3.235439 0
M  V30 23 C -0.301614 -2.240846 -3.719105 0
M  V30 24 N -1.326967 -2.130820 -2.860708 0
M  V30 25 C -2.650715 -2.737890 -3.004176 0
M  V30 26 C -3.680882 -2.767352 -3.844049 0
M  V30 27 N -4.691167 -3.516395 -3.483842 0
M  V30 28 C -4.805188 -4.167294 -2.512135 0
M  V30 29 S -3.120662 -3.803037 -1.658393 0
M  V30 30 N 2.477755 0.509728 1.982994 0
M  V30 31 C 3.015762 -0.217156 2.966424 0
M  V30 32 C 2.699969 -0.532599 4.275648 0
M  V30 33 F 1.554523 -0.007834 4.781911 0
M  V30 34 H 5.237853 -2.495979 5.189299 0
M  V30 35 H 5.887257 -1.982739 2.841308 0
M  V30 36 H 5.105559 -0.608489 0.603722 0
M  V30 37 H 2.562631 2.019976 -0.387404 0
M  V30 38 H 4.147014 1.237953 -0.885600 0
M  V30 39 H 2.866759 -0.137994 -2.290158 0
M  V30 40 H -0.045506 1.718860 1.870680 0
M  V30 41 H -0.541690 0.532937 3.168450 0
M  V30 42 H -1.421018 3.044517 3.097668 0
M  V30 43 H -2.472552 1.703668 3.690044 0
M  V30 44 H -4.170970 1.319056 0.660319 0
M  V30 45 H -4.415513 1.240729 2.499982 0
M  V30 46 H -2.885958 -0.483567 2.680799 0
M  V30 47 H -3.313823 -0.823588 0.988114 0
M  V30 48 H -0.351419 -2.817846 -4.650437 0
M  V30 49 H -3.440024 -2.118441 -4.703132 0
M  V30 50 H -5.923078 -4.691755 -2.613904 0
M  V30 END ATOM
M  V30 BEGIN BOND
M  V30 1 1 1 2
M  V30 2 2 2 3
M  V30 3 1 3 4
M  V30 4 2 4 5
M  V30 5 1 5 6
M  V30 6 1 6 7
M  V30 7 1 7 8
M  V30 8 1 8 9
M  V30 9 1 9 10
M  V30 10 2 10 11
M  V30 11 1 11 12
M  V30 12 1 12 13
M  V30 13 1 13 14
M  V30 14 1 14 15
M  V30 15 1 15 16
M  V30 16 1 16 17
M  V30 17 1 17 18
M  V30 18 2 12 19
M  V30 19 1 19 20
M  V30 20 2 20 21
M  V30 21 1 21 22
M  V30 22 2 22 23
M  V30 23 1 23 24
M  V30 24 1 24 25
M  V30 25 2 25 26
M  V30 26 1 26 27
M  V30 27 2 27 28
M  V30 28 1 28 29
M  V30 29 2 7 30
M  V30 30 1 30 31
M  V30 31 2 31 32
M  V30 32 1 32 33
M  V30 33 1 32 2
M  V30 34 1 31 5
M  V30 35 1 21 10
M  V30 36 1 29 25
M  V30 37 1 18 13
M  V30 38 1 24 20
M  V30 39 1 3 34
M  V30 40 1 4 35
M  V30 41 1 6 36
M  V30 42 1 8 37
M  V30 43 1 8 38
M  V30 44 1 9 39
M  V30 45 1 14 40
M  V30 46 1 14 41
M  V30 47 1 15 42
M  V30 48 1 15 43
M  V30 49 1 17 44
M  V30 50 1 17 45
M  V30 51 1 18 46
M  V30 52 1 18 47
M  V30 53 1 23 48
M  V30 54 1 26 49
M  V30 55 1 28 50
M  V30 END BOND
M  V30 END CTAB
M  END
>  <Dataset>  (785) 
ChEMBL_Kinases

>  <Ligand_Instance>  (785) 
nan

>  <PDB_ID>  (785) 
nan

>  <Standardized_SMILES>  (785) 
Fc1ccc2[nH]c(CNc3nc(N4CCOCC4)nc4c3ncn4-c3cncs3)nc2c1F

>  <Name>  (785) 
nan

>  <Pocket>  (785) 
nan

>  <ATP_Site>  (785) 
nan

>  <Peripheral>  (785) 
nan

>  <Num_H_Atoms_ProtBoundConf>  (785) 
nan

>  <Num_Resolved_Atoms>  (785) 
nan

>  <Num_Not_Resolved_Atoms>  (785) 
nan

$$$$
CHEMBL4873692
     RDKit          3D

  0  0  0  0  0  0  0  0  0  0999 V3000
M  V30 BEGIN CTAB
M  V30 COUNTS 44 47 0 0 0
M  V30 BEGIN ATOM
M  V30 1 C -4.275393 2.834229 4.181277 0
M  V30 2 N -3.502385 1.913013 3.387295 0
M  V30 3 C -3.626131 0.563527 3.449161 0
M  V30 4 C -2.727388 0.013227 2.548752 0
M  V30 5 C -2.075369 1.054787 1.958081 0
M  V30 6 C -1.088157 1.022909 0.996710 0
M  V30 7 C -0.515196 -0.142827 0.375806 0
M  V30 8 C -1.389801 -1.096232 -0.082384 0
M  V30 9 C -0.901882 -2.220638 -0.673704 0
M  V30 10 C 0.450273 -2.375669 -0.798542 0
M  V30 11 C 0.913943 -3.594158 -1.438266 0
M  V30 12 O 1.918740 -4.240657 -1.793099 0
M  V30 13 O 0.578195 -4.773834 -2.042229 0
M  V30 14 C 1.429887 -1.507679 -0.387388 0
M  V30 15 C 2.839892 -1.434043 -0.374729 0
M  V30 16 C 3.530611 -1.732301 0.969821 0
M  V30 17 C 5.017031 -1.741102 0.604103 0
M  V30 18 C 5.036850 -1.416289 -0.897241 0
M  V30 19 C 3.723776 -2.200852 -1.266939 0
M  V30 20 C 0.816026 -0.383193 0.208118 0
M  V30 21 C -0.577529 2.224159 0.554680 0
M  V30 22 C -1.082624 3.409401 1.099188 0
M  V30 23 N -2.052796 3.404656 2.041998 0
M  V30 24 C -2.562687 2.233147 2.484879 0
M  V30 25 H -3.748741 3.113022 5.113396 0
M  V30 26 H -4.467251 3.756556 3.614633 0
M  V30 27 H -5.277243 2.417986 4.453308 0
M  V30 28 H -4.319495 0.046787 4.102793 0
M  V30 29 H -2.591107 -1.042095 2.372769 0
M  V30 30 H -2.460250 -1.005385 -0.004066 0
M  V30 31 H -1.573903 -2.980196 -1.039363 0
M  V30 32 H 0.082951 -4.864346 -2.930892 0
M  V30 33 H 3.140107 -0.336726 -0.542316 0
M  V30 34 H 3.180294 -2.686409 1.364907 0
M  V30 35 H 3.387021 -0.886325 1.673492 0
M  V30 36 H 5.366631 -2.780554 0.769527 0
M  V30 37 H 5.586043 -0.994252 1.176244 0
M  V30 38 H 4.846613 -0.347669 -0.989073 0
M  V30 39 H 5.893404 -1.828002 -1.420005 0
M  V30 40 H 3.575668 -2.154711 -2.332688 0
M  V30 41 H 4.051553 -3.212520 -0.864630 0
M  V30 42 H 1.406101 0.454741 0.616465 0
M  V30 43 H 0.194877 2.430449 -0.186762 0
M  V30 44 H -0.753275 4.415245 0.824500 0
M  V30 END ATOM
M  V30 BEGIN BOND
M  V30 1 1 1 2
M  V30 2 1 2 3
M  V30 3 2 3 4
M  V30 4 1 4 5
M  V30 5 2 5 6
M  V30 6 1 6 7
M  V30 7 2 7 8
M  V30 8 1 8 9
M  V30 9 2 9 10
M  V30 10 1 10 11
M  V30 11 2 11 12
M  V30 12 1 11 13
M  V30 13 1 10 14
M  V30 14 1 14 15
M  V30 15 1 15 16
M  V30 16 1 16 17
M  V30 17 1 17 18
M  V30 18 1 18 19
M  V30 19 2 14 20
M  V30 20 1 6 21
M  V30 21 2 21 22
M  V30 22 1 22 23
M  V30 23 2 23 24
M  V30 24 1 24 2
M  V30 25 1 24 5
M  V30 26 1 20 7
M  V30 27 1 19 15
M  V30 28 1 1 25
M  V30 29 1 1 26
M  V30 30 1 1 27
M  V30 31 1 3 28
M  V30 32 1 4 29
M  V30 33 1 8 30
M  V30 34 1 9 31
M  V30 35 1 13 32
M  V30 36 1 15 33
M  V30 37 1 16 34
M  V30 38 1 16 35
M  V30 39 1 17 36
M  V30 40 1 17 37
M  V30 41 1 18 38
M  V30 42 1 18 39
M  V30 43 1 19 40
M  V30 44 1 19 41
M  V30 45 1 20 42
M  V30 46 1 21 43
M  V30 47 1 22 44
M  V30 END BOND
M  V30 END CTAB
M  END
>  <Dataset>  (786) 
ChEMBL_Kinases

>  <Ligand_Instance>  (786) 
nan

>  <PDB_ID>  (786) 
nan

>  <Standardized_SMILES>  (786) 
Cn1ccc2c(-c3ccc(C(=O)O)c(C4CCCC4)c3)ccnc21

>  <Name>  (786) 
nan

>  <Pocket>  (786) 
nan

>  <ATP_Site>  (786) 
nan

>  <Peripheral>  (786) 
nan

>  <Num_H_Atoms_ProtBoundConf>  (786) 
nan

>  <Num_Resolved_Atoms>  (786) 
nan

>  <Num_Not_Resolved_Atoms>  (786) 
nan

$$$$
CHEMBL4797669
     RDKit          3D

  0  0  0  0  0  0  0  0  0  0999 V3000
M  V30 BEGIN CTAB
M  V30 COUNTS 60 64 0 0 0
M  V30 BEGIN ATOM
M  V30 1 C -1.898123 -3.845423 3.891630 0
M  V30 2 C -1.073104 -3.520861 2.677275 0
M  V30 3 C 0.268450 -3.157953 2.773090 0
M  V30 4 C 0.961111 -2.875717 1.586528 0
M  V30 5 N 2.305587 -2.511585 1.914976 0
M  V30 6 C 2.599387 -1.214070 1.418357 0
M  V30 7 C 2.178090 0.024697 1.808967 0
M  V30 8 C 2.620507 1.162205 1.180732 0
M  V30 9 N 2.118800 2.426184 1.637693 0
M  V30 10 C 2.728511 3.662617 1.218539 0
M  V30 11 C 1.717471 4.488311 0.469753 0
M  V30 12 C 0.299055 4.246250 0.880703 0
M  V30 13 N -0.374620 3.317052 -0.036751 0
M  V30 14 C 0.141640 3.699206 2.266908 0
M  V30 15 C 0.975409 2.472247 2.528979 0
M  V30 16 N 3.486638 1.045205 0.161857 0
M  V30 17 C 3.919595 -0.172666 -0.244487 0
M  V30 18 N 3.480494 -1.295034 0.377291 0
M  V30 19 C 0.313207 -2.961793 0.377243 0
M  V30 20 O 1.106932 -2.672381 -0.551028 0
M  V30 21 N -0.978487 -3.311580 0.304294 0
M  V30 22 C -1.660593 -3.587211 1.434679 0
M  V30 23 C -3.027391 -3.944160 1.077976 0
M  V30 24 O -3.968925 -4.266068 1.849061 0
M  V30 25 N -3.063132 -3.847626 -0.341396 0
M  V30 26 C -1.765121 -3.418359 -0.877981 0
M  V30 27 C -2.050743 -2.007774 -1.425460 0
M  V30 28 C -2.939322 -2.145249 -2.655889 0
M  V30 29 C -2.058948 -2.665992 -3.765962 0
M  V30 30 C -0.926501 -3.465999 -3.211280 0
M  V30 31 C -1.254017 -4.258507 -1.976539 0
M  V30 32 H -2.441570 -4.805657 3.717107 0
M  V30 33 H -2.686205 -3.065011 3.930180 0
M  V30 34 H -1.291559 -3.850108 4.792016 0
M  V30 35 H 0.633205 -3.133752 3.786542 0
M  V30 36 H 2.948927 -3.131280 2.443729 0
M  V30 37 H 1.486445 -0.030380 2.638200 0
M  V30 38 H 3.067831 4.253895 2.112783 0
M  V30 39 H 3.585442 3.477881 0.541983 0
M  V30 40 H 1.816249 4.225326 -0.625809 0
M  V30 41 H 2.025250 5.552913 0.598275 0
M  V30 42 H -0.219172 5.239385 0.862730 0
M  V30 43 H -1.038301 2.678999 0.455489 0
M  V30 44 H 0.368547 2.729294 -0.469641 0
M  V30 45 H 0.368314 4.518046 2.979841 0
M  V30 46 H -0.941192 3.431987 2.395297 0
M  V30 47 H 1.236598 2.454645 3.595606 0
M  V30 48 H 0.339535 1.589150 2.271308 0
M  V30 49 H 4.624366 -0.221292 -1.075749 0
M  V30 50 H -3.946255 -4.069617 -0.861641 0
M  V30 51 H -1.116251 -1.493193 -1.725456 0
M  V30 52 H -2.580315 -1.406639 -0.653638 0
M  V30 53 H -3.300240 -1.127021 -2.919875 0
M  V30 54 H -3.797471 -2.825840 -2.458382 0
M  V30 55 H -1.676769 -1.756579 -4.320160 0
M  V30 56 H -2.659862 -3.200759 -4.545614 0
M  V30 57 H -0.503454 -4.158522 -4.001195 0
M  V30 58 H -0.106817 -2.744664 -2.996204 0
M  V30 59 H -0.362275 -4.866172 -1.722438 0
M  V30 60 H -2.058183 -5.007962 -2.230174 0
M  V30 END ATOM
M  V30 BEGIN BOND
M  V30 1 1 1 2
M  V30 2 1 2 3
M  V30 3 2 3 4
M  V30 4 1 4 5
M  V30 5 1 5 6
M  V30 6 2 6 7
M  V30 7 1 7 8
M  V30 8 1 8 9
M  V30 9 1 9 10
M  V30 10 1 10 11
M  V30 11 1 11 12
M  V30 12 1 12 13
M  V30 13 1 12 14
M  V30 14 1 14 15
M  V30 15 2 8 16
M  V30 16 1 16 17
M  V30 17 2 17 18
M  V30 18 1 4 19
M  V30 19 2 19 20
M  V30 20 1 19 21
M  V30 21 1 21 22
M  V30 22 1 22 23
M  V30 23 2 23 24
M  V30 24 1 23 25
M  V30 25 1 25 26
M  V30 26 1 26 27
M  V30 27 1 27 28
M  V30 28 1 28 29
M  V30 29 1 29 30
M  V30 30 1 30 31
M  V30 31 2 22 2
M  V30 32 1 31 26
M  V30 33 1 18 6
M  V30 34 1 26 21
M  V30 35 1 15 9
M  V30 36 1 1 32
M  V30 37 1 1 33
M  V30 38 1 1 34
M  V30 39 1 3 35
M  V30 40 1 5 36
M  V30 41 1 7 37
M  V30 42 1 10 38
M  V30 43 1 10 39
M  V30 44 1 11 40
M  V30 45 1 11 41
M  V30 46 1 12 42
M  V30 47 1 13 43
M  V30 48 1 13 44
M  V30 49 1 14 45
M  V30 50 1 14 46
M  V30 51 1 15 47
M  V30 52 1 15 48
M  V30 53 1 17 49
M  V30 54 1 25 50
M  V30 55 1 27 51
M  V30 56 1 27 52
M  V30 57 1 28 53
M  V30 58 1 28 54
M  V30 59 1 29 55
M  V30 60 1 29 56
M  V30 61 1 30 57
M  V30 62 1 30 58
M  V30 63 1 31 59
M  V30 64 1 31 60
M  V30 END BOND
M  V30 END CTAB
M  END
>  <Dataset>  (787) 
ChEMBL_Kinases

>  <Ligand_Instance>  (787) 
nan

>  <PDB_ID>  (787) 
nan

>  <Standardized_SMILES>  (787) 
Cc1cc(Nc2cc(N3CCC(N)CC3)ncn2)c(=O)n2c1C(=O)NC21CCCCC1

>  <Name>  (787) 
nan

>  <Pocket>  (787) 
nan

>  <ATP_Site>  (787) 
nan

>  <Peripheral>  (787) 
nan

>  <Num_H_Atoms_ProtBoundConf>  (787) 
nan

>  <Num_Resolved_Atoms>  (787) 
nan

>  <Num_Not_Resolved_Atoms>  (787) 
nan

$$$$
CHEMBL4797888
     RDKit          3D

  0  0  0  0  0  0  0  0  0  0999 V3000
M  V30 BEGIN CTAB
M  V30 COUNTS 51 53 0 0 0
M  V30 BEGIN ATOM
M  V30 1 C 0.422954 -5.379387 3.109920 0
M  V30 2 O 0.427489 -4.027625 2.678327 0
M  V30 3 C 1.501566 -3.524748 1.976617 0
M  V30 4 O 2.076529 -4.630396 2.037364 0
M  V30 5 C 1.930510 -2.296672 1.370346 0
M  V30 6 C 3.169473 -2.406914 0.779700 0
M  V30 7 N 3.720655 -1.345904 0.164567 0
M  V30 8 C 3.066600 -0.171290 0.122100 0
M  V30 9 N 3.658820 0.960055 -0.536023 0
M  V30 10 C 3.021885 2.232874 -0.618419 0
M  V30 11 C 2.214266 2.432082 -1.720838 0
M  V30 12 N 1.591538 3.621881 -1.839887 0
M  V30 13 C 1.756690 4.583595 -0.907269 0
M  V30 14 C 1.056489 5.827636 -1.107290 0
M  V30 15 N 0.501455 6.837169 -1.252186 0
M  V30 16 C 2.567273 4.381144 0.197419 0
M  V30 17 N 3.198394 3.195505 0.332320 0
M  V30 18 C 1.841245 -0.098571 0.717905 0
M  V30 19 C 1.199442 -1.126905 1.368192 0
M  V30 20 N -0.052604 -1.046615 1.984298 0
M  V30 21 C -0.933730 0.056667 2.071720 0
M  V30 22 C -1.567022 0.562898 0.841684 0
M  V30 23 C -2.447496 -0.413424 0.092248 0
M  V30 24 C -3.586491 -0.904762 0.933554 0
M  V30 25 C -3.477827 -2.350441 1.323969 0
M  V30 26 N -3.241977 -3.128100 0.123828 0
M  V30 27 C -1.866677 -2.837247 -0.256785 0
M  V30 28 C -1.743773 -1.420771 -0.720129 0
M  V30 29 H -0.481235 -5.617198 3.687366 0
M  V30 30 H 1.290636 -5.559433 3.809087 0
M  V30 31 H 0.519877 -6.097343 2.282049 0
M  V30 32 H 3.786213 -3.291685 0.749116 0
M  V30 33 H 4.598867 0.851413 -0.976200 0
M  V30 34 H 2.067951 1.676360 -2.479166 0
M  V30 35 H 2.684910 5.178967 0.941297 0
M  V30 36 H 1.369361 0.867773 0.655732 0
M  V30 37 H -0.420107 -1.903651 2.455110 0
M  V30 38 H -1.755132 -0.084893 2.827704 0
M  V30 39 H -0.363485 0.934917 2.514800 0
M  V30 40 H -2.263747 1.400318 1.159836 0
M  V30 41 H -0.916392 1.022954 0.083371 0
M  V30 42 H -2.957188 0.270936 -0.663843 0
M  V30 43 H -3.612911 -0.308664 1.869472 0
M  V30 44 H -4.585178 -0.786220 0.464379 0
M  V30 45 H -2.728788 -2.550421 2.113876 0
M  V30 46 H -4.474473 -2.663074 1.710564 0
M  V30 47 H -3.895074 -2.757962 -0.600924 0
M  V30 48 H -1.643750 -3.538710 -1.099000 0
M  V30 49 H -1.220914 -3.141852 0.562676 0
M  V30 50 H -0.670740 -1.165132 -0.808541 0
M  V30 51 H -2.086672 -1.445841 -1.801352 0
M  V30 END ATOM
M  V30 BEGIN BOND
M  V30 1 1 1 2
M  V30 2 1 2 3
M  V30 3 2 3 4
M  V30 4 1 3 5
M  V30 5 2 5 6
M  V30 6 1 6 7
M  V30 7 2 7 8
M  V30 8 1 8 9
M  V30 9 1 9 10
M  V30 10 2 10 11
M  V30 11 1 11 12
M  V30 12 2 12 13
M  V30 13 1 13 14
M  V30 14 3 14 15
M  V30 15 1 13 16
M  V30 16 2 16 17
M  V30 17 1 8 18
M  V30 18 2 18 19
M  V30 19 1 19 20
M  V30 20 1 20 21
M  V30 21 1 21 22
M  V30 22 1 22 23
M  V30 23 1 23 24
M  V30 24 1 24 25
M  V30 25 1 25 26
M  V30 26 1 26 27
M  V30 27 1 27 28
M  V30 28 1 19 5
M  V30 29 1 28 23
M  V30 30 1 17 10
M  V30 31 1 1 29
M  V30 32 1 1 30
M  V30 33 1 1 31
M  V30 34 1 6 32
M  V30 35 1 9 33
M  V30 36 1 11 34
M  V30 37 1 16 35
M  V30 38 1 18 36
M  V30 39 1 20 37
M  V30 40 1 21 38
M  V30 41 1 21 39
M  V30 42 1 22 40
M  V30 43 1 22 41
M  V30 44 1 23 42
M  V30 45 1 24 43
M  V30 46 1 24 44
M  V30 47 1 25 45
M  V30 48 1 25 46
M  V30 49 1 26 47
M  V30 50 1 27 48
M  V30 51 1 27 49
M  V30 52 1 28 50
M  V30 53 1 28 51
M  V30 END BOND
M  V30 END CTAB
M  END
>  <Dataset>  (788) 
ChEMBL_Kinases

>  <Ligand_Instance>  (788) 
nan

>  <PDB_ID>  (788) 
nan

>  <Standardized_SMILES>  (788) 
COC(=O)c1cnc(Nc2cnc(C#N)cn2)cc1NCCC1CCNCC1

>  <Name>  (788) 
nan

>  <Pocket>  (788) 
nan

>  <ATP_Site>  (788) 
nan

>  <Peripheral>  (788) 
nan

>  <Num_H_Atoms_ProtBoundConf>  (788) 
nan

>  <Num_Resolved_Atoms>  (788) 
nan

>  <Num_Not_Resolved_Atoms>  (788) 
nan

$$$$
CHEMBL4798047
     RDKit          3D

  0  0  0  0  0  0  0  0  0  0999 V3000
M  V30 BEGIN CTAB
M  V30 COUNTS 54 57 0 0 0
M  V30 BEGIN ATOM
M  V30 1 C 7.009722 0.680295 -1.127204 0
M  V30 2 N 6.169660 0.123059 -0.056172 0
M  V30 3 C 6.284332 -1.323217 -0.104267 0
M  V30 4 C 5.096502 -1.793045 -0.934401 0
M  V30 5 C 4.027671 -0.829037 -0.493706 0
M  V30 6 C 4.773745 0.448807 -0.288151 0 CFG=1
M  V30 7 C 4.167725 1.181031 0.884671 0
M  V30 8 N 2.778235 1.480494 0.600569 0
M  V30 9 C 2.350409 2.273590 -0.478148 0
M  V30 10 O 3.149068 2.796397 -1.295533 0
M  V30 11 C 0.929383 2.521425 -0.688644 0
M  V30 12 C -0.161440 2.136022 -0.037776 0
M  V30 13 C -1.420991 2.489706 -0.414316 0
M  V30 14 N -2.627626 2.110951 0.238026 0
M  V30 15 C -3.034273 0.867268 0.531718 0
M  V30 16 C -4.255520 0.853297 1.167251 0
M  V30 17 N -5.046718 -0.219767 1.649861 0
M  V30 18 C -4.694035 -1.579172 1.557991 0
M  V30 19 O -3.608991 -1.843148 1.012387 0
M  V30 20 N -5.488301 -2.625031 2.040536 0
M  V30 21 C -5.248481 -4.017610 2.009695 0
M  V30 22 C -4.157158 -4.668808 1.486980 0
M  V30 23 C -3.975474 -6.033416 1.484845 0
M  V30 24 C -4.934828 -6.842411 2.037633 0
M  V30 25 C -6.042705 -6.235555 2.571864 0
M  V30 26 C -6.183463 -4.870034 2.552725 0
M  V30 27 Cl -7.652234 -4.214734 3.271315 0
M  V30 28 C -4.572785 2.187557 1.243743 0
M  V30 29 N -3.580459 2.897198 0.681101 0
M  V30 30 C -1.428428 3.328161 -1.597876 0
M  V30 31 S 0.373182 3.491766 -2.004832 0
M  V30 32 H 7.333628 1.714181 -0.889678 0
M  V30 33 H 7.853543 0.005025 -1.332184 0
M  V30 34 H 6.394887 0.689253 -2.070067 0
M  V30 35 H 6.143620 -1.742626 0.913644 0
M  V30 36 H 7.241750 -1.643196 -0.549528 0
M  V30 37 H 4.775096 -2.801508 -0.583958 0
M  V30 38 H 5.291847 -1.750911 -2.014031 0
M  V30 39 H 3.276537 -0.776695 -1.330570 0
M  V30 40 H 3.539156 -1.182817 0.448222 0
M  V30 41 H 4.679071 1.052932 -1.210891 0
M  V30 42 H 4.303531 0.657428 1.831959 0
M  V30 43 H 4.739019 2.148691 0.961914 0
M  V30 44 H 2.053966 1.069902 1.254019 0
M  V30 45 H -0.000169 1.502504 0.841387 0
M  V30 46 H -2.435771 0.003974 0.278024 0
M  V30 47 H -5.962243 0.004794 2.110108 0
M  V30 48 H -6.376266 -2.294316 2.479255 0
M  V30 49 H -3.370565 -4.091143 1.039509 0
M  V30 50 H -3.089957 -6.474318 1.054915 0
M  V30 51 H -4.772911 -7.906347 2.025529 0
M  V30 52 H -6.797161 -6.857615 3.005753 0
M  V30 53 H -5.446426 2.676437 1.665172 0
M  V30 54 H -2.478946 3.700880 -2.021689 0
M  V30 END ATOM
M  V30 BEGIN BOND
M  V30 1 1 1 2
M  V30 2 1 2 3
M  V30 3 1 3 4
M  V30 4 1 4 5
M  V30 5 1 5 6
M  V30 6 1 6 7
M  V30 7 1 7 8
M  V30 8 1 8 9
M  V30 9 2 9 10
M  V30 10 1 9 11
M  V30 11 2 11 12
M  V30 12 1 12 13
M  V30 13 1 13 14
M  V30 14 1 14 15
M  V30 15 2 15 16
M  V30 16 1 16 17
M  V30 17 1 17 18
M  V30 18 2 18 19
M  V30 19 1 18 20
M  V30 20 1 20 21
M  V30 21 2 21 22
M  V30 22 1 22 23
M  V30 23 2 23 24
M  V30 24 1 24 25
M  V30 25 2 25 26
M  V30 26 1 26 27
M  V30 27 1 16 28
M  V30 28 2 28 29
M  V30 29 2 13 30
M  V30 30 1 30 31
M  V30 31 1 6 2
M  V30 32 1 31 11
M  V30 33 1 29 14
M  V30 34 1 26 21
M  V30 35 1 1 32
M  V30 36 1 1 33
M  V30 37 1 1 34
M  V30 38 1 3 35
M  V30 39 1 3 36
M  V30 40 1 4 37
M  V30 41 1 4 38
M  V30 42 1 5 39
M  V30 43 1 5 40
M  V30 44 1 6 41 CFG=3
M  V30 45 1 7 42
M  V30 46 1 7 43
M  V30 47 1 8 44
M  V30 48 1 12 45
M  V30 49 1 15 46
M  V30 50 1 17 47
M  V30 51 1 20 48
M  V30 52 1 22 49
M  V30 53 1 23 50
M  V30 54 1 24 51
M  V30 55 1 25 52
M  V30 56 1 28 53
M  V30 57 1 30 54
M  V30 END BOND
M  V30 END CTAB
M  END
>  <Dataset>  (789) 
ChEMBL_Kinases

>  <Ligand_Instance>  (789) 
nan

>  <PDB_ID>  (789) 
nan

>  <Standardized_SMILES>  (789) 
CN1CCC[C@H]1CNC(=O)c1cc(-n2cc(NC(=O)Nc3ccccc3Cl)cn2)cs1

>  <Name>  (789) 
nan

>  <Pocket>  (789) 
nan

>  <ATP_Site>  (789) 
nan

>  <Peripheral>  (789) 
nan

>  <Num_H_Atoms_ProtBoundConf>  (789) 
nan

>  <Num_Resolved_Atoms>  (789) 
nan

>  <Num_Not_Resolved_Atoms>  (789) 
nan

$$$$
CHEMBL479835
     RDKit          3D

  0  0  0  0  0  0  0  0  0  0999 V3000
M  V30 BEGIN CTAB
M  V30 COUNTS 59 63 0 0 0
M  V30 BEGIN ATOM
M  V30 1 C 3.244238 -2.934980 2.841528 0
M  V30 2 O 4.232077 -1.968425 2.522280 0
M  V30 3 C 3.896074 -0.762733 1.929749 0
M  V30 4 C 4.919786 0.117484 1.653985 0
M  V30 5 C 4.527367 1.300562 1.065025 0
M  V30 6 C 3.221900 1.684322 0.728550 0
M  V30 7 C 2.998268 2.998286 0.109531 0
M  V30 8 N 2.719409 2.939375 -1.310310 0
M  V30 9 C 2.558132 4.313429 -1.775826 0
M  V30 10 C 3.798204 2.330826 -2.030670 0
M  V30 11 C 2.262391 0.756779 1.033695 0
M  V30 12 C 0.855360 1.001200 0.734062 0
M  V30 13 C -0.207001 0.234946 0.981659 0
M  V30 14 C -1.452524 0.634611 0.628255 0
M  V30 15 C -2.685355 0.019006 0.783849 0
M  V30 16 N -2.859142 -1.249664 1.376595 0
M  V30 17 C -3.028261 -2.608510 1.085101 0
M  V30 18 C -4.236259 -3.079035 1.617221 0
M  V30 19 C -4.669090 -4.381347 1.480918 0
M  V30 20 C -3.819988 -5.226010 0.768204 0
M  V30 21 N -3.890893 -6.515073 0.436800 0
M  V30 22 C -2.828956 -6.918422 -0.265953 0
M  V30 23 C -1.989291 -5.850067 -0.422672 0
M  V30 24 C -2.628742 -4.803291 0.231549 0
M  V30 25 C -2.234679 -3.494920 0.390826 0
M  V30 26 C -0.986188 -2.929133 -0.142359 0
M  V30 27 C -3.821376 0.651534 0.332936 0
M  V30 28 C -5.118585 0.008986 0.493958 0
M  V30 29 N -6.155540 -0.511966 0.615465 0
M  V30 30 C -3.884093 1.881308 -0.284156 0
M  V30 31 N -2.665922 2.467048 -0.427076 0
M  V30 32 C -1.550544 1.858938 0.009382 0
M  V30 33 S 0.182092 2.438853 -0.062508 0
M  V30 34 C 2.601266 -0.438949 1.621916 0
M  V30 35 H 2.736349 -3.347315 1.932516 0
M  V30 36 H 2.449333 -2.406545 3.421690 0
M  V30 37 H 3.648886 -3.731214 3.497855 0
M  V30 38 H 5.953036 -0.064737 1.864777 0
M  V30 39 H 5.335937 2.014373 0.838597 0
M  V30 40 H 3.958167 3.595627 0.190974 0
M  V30 41 H 2.240441 3.629832 0.600204 0
M  V30 42 H 2.439787 4.392524 -2.864806 0
M  V30 43 H 3.426377 4.885972 -1.382112 0
M  V30 44 H 1.656427 4.742307 -1.291439 0
M  V30 45 H 4.671562 3.027852 -2.149484 0
M  V30 46 H 4.115805 1.365730 -1.628944 0
M  V30 47 H 3.433016 2.131676 -3.071536 0
M  V30 48 H -0.054642 -0.737292 1.486949 0
M  V30 49 H -2.843002 -0.980005 2.405837 0
M  V30 50 H -4.964605 -2.485331 2.192022 0
M  V30 51 H -5.592037 -4.772457 1.877906 0
M  V30 52 H -4.698699 -7.153143 0.700038 0
M  V30 53 H -2.610884 -7.893905 -0.666985 0
M  V30 54 H -1.041591 -5.832516 -0.941354 0
M  V30 55 H -1.194549 -1.967605 -0.610795 0
M  V30 56 H -0.651377 -3.625877 -0.970377 0
M  V30 57 H -0.157079 -2.947981 0.585053 0
M  V30 58 H -4.761129 2.386666 -0.640763 0
M  V30 59 H 1.869204 -1.206540 1.882214 0
M  V30 END ATOM
M  V30 BEGIN BOND
M  V30 1 1 1 2
M  V30 2 1 2 3
M  V30 3 2 3 4
M  V30 4 1 4 5
M  V30 5 2 5 6
M  V30 6 1 6 7
M  V30 7 1 7 8
M  V30 8 1 8 9
M  V30 9 1 8 10
M  V30 10 1 6 11
M  V30 11 1 11 12
M  V30 12 2 12 13
M  V30 13 1 13 14
M  V30 14 2 14 15
M  V30 15 1 15 16
M  V30 16 1 16 17
M  V30 17 2 17 18
M  V30 18 1 18 19
M  V30 19 2 19 20
M  V30 20 1 20 21
M  V30 21 1 21 22
M  V30 22 2 22 23
M  V30 23 1 23 24
M  V30 24 2 24 25
M  V30 25 1 25 26
M  V30 26 1 15 27
M  V30 27 1 27 28
M  V30 28 3 28 29
M  V30 29 2 27 30
M  V30 30 1 30 31
M  V30 31 2 31 32
M  V30 32 1 32 33
M  V30 33 2 11 34
M  V30 34 1 34 3
M  V30 35 1 33 12
M  V30 36 1 32 14
M  V30 37 1 25 17
M  V30 38 1 24 20
M  V30 39 1 1 35
M  V30 40 1 1 36
M  V30 41 1 1 37
M  V30 42 1 4 38
M  V30 43 1 5 39
M  V30 44 1 7 40
M  V30 45 1 7 41
M  V30 46 1 9 42
M  V30 47 1 9 43
M  V30 48 1 9 44
M  V30 49 1 10 45
M  V30 50 1 10 46
M  V30 51 1 10 47
M  V30 52 1 13 48
M  V30 53 1 16 49
M  V30 54 1 18 50
M  V30 55 1 19 51
M  V30 56 1 21 52
M  V30 57 1 22 53
M  V30 58 1 23 54
M  V30 59 1 26 55
M  V30 60 1 26 56
M  V30 61 1 26 57
M  V30 62 1 30 58
M  V30 63 1 34 59
M  V30 END BOND
M  V30 END CTAB
M  END
>  <Dataset>  (790) 
ChEMBL_Kinases

>  <Ligand_Instance>  (790) 
nan

>  <PDB_ID>  (790) 
nan

>  <Standardized_SMILES>  (790) 
COc1ccc(CN(C)C)c(-c2cc3c(Nc4ccc5[nH]ccc5c4C)c(C#N)cnc3s2)c1

>  <Name>  (790) 
nan

>  <Pocket>  (790) 
nan

>  <ATP_Site>  (790) 
nan

>  <Peripheral>  (790) 
nan

>  <Num_H_Atoms_ProtBoundConf>  (790) 
nan

>  <Num_Resolved_Atoms>  (790) 
nan

>  <Num_Not_Resolved_Atoms>  (790) 
nan

$$$$
CHEMBL4798624
     RDKit          3D

  0  0  0  0  0  0  0  0  0  0999 V3000
M  V30 BEGIN CTAB
M  V30 COUNTS 35 39 0 0 0
M  V30 BEGIN ATOM
M  V30 1 O -1.663099 -0.554254 -0.476435 0
M  V30 2 C -1.631698 -1.502316 0.350109 0
M  V30 3 C -0.528151 -1.763135 1.136527 0
M  V30 4 C -0.422469 -2.780376 2.060140 0
M  V30 5 C 0.772875 -2.864691 2.742520 0
M  V30 6 C 1.856676 -2.029818 2.582123 0
M  V30 7 C 1.780275 -1.002074 1.664482 0
M  V30 8 N 2.688956 -0.105750 1.362135 0
M  V30 9 C 2.654688 0.762497 0.602358 0
M  V30 10 C 3.433207 1.895902 0.030861 0
M  V30 11 C 2.944914 2.737557 -0.937954 0
M  V30 12 C 3.835350 3.720714 -1.323885 0
M  V30 13 C 5.091806 3.814072 -0.762266 0
M  V30 14 N 5.522186 2.946463 0.199174 0
M  V30 15 C 4.665081 1.961800 0.603409 0
M  V30 16 S 0.900902 0.519544 -0.085354 0
M  V30 17 C 0.590169 -0.903420 0.972517 0
M  V30 18 N -1.483557 -3.578902 2.201050 0
M  V30 19 C -2.604090 -3.368635 1.449176 0
M  V30 20 N -2.658575 -2.349522 0.550104 0
M  V30 21 C -3.874774 -2.174567 -0.220436 0
M  V30 22 C -5.165842 -2.164138 0.508332 0
M  V30 23 C -4.627022 -0.889090 -0.167427 0
M  V30 24 H 0.800754 -3.695455 3.466988 0
M  V30 25 H 2.706912 -2.261130 3.213978 0
M  V30 26 H 1.962508 2.588683 -1.312205 0
M  V30 27 H 3.501117 4.426161 -2.097606 0
M  V30 28 H 5.766900 4.596620 -1.086631 0
M  V30 29 H 5.060687 1.309270 1.363224 0
M  V30 30 H -3.438984 -4.041268 1.597946 0
M  V30 31 H -3.876173 -2.665221 -1.233280 0
M  V30 32 H -6.060056 -2.628602 0.061048 0
M  V30 33 H -5.198096 -2.156016 1.607591 0
M  V30 34 H -4.208726 -0.104860 0.463893 0
M  V30 35 H -5.200485 -0.567497 -1.056915 0
M  V30 END ATOM
M  V30 BEGIN BOND
M  V30 1 2 1 2
M  V30 2 1 2 3
M  V30 3 2 3 4
M  V30 4 1 4 5
M  V30 5 2 5 6
M  V30 6 1 6 7
M  V30 7 1 7 8
M  V30 8 2 8 9
M  V30 9 1 9 10
M  V30 10 2 10 11
M  V30 11 1 11 12
M  V30 12 2 12 13
M  V30 13 1 13 14
M  V30 14 2 14 15
M  V30 15 1 9 16
M  V30 16 1 16 17
M  V30 17 1 4 18
M  V30 18 2 18 19
M  V30 19 1 19 20
M  V30 20 1 20 21
M  V30 21 1 21 22
M  V30 22 1 22 23
M  V30 23 1 20 2
M  V30 24 1 23 21
M  V30 25 1 17 3
M  V30 26 2 17 7
M  V30 27 1 15 10
M  V30 28 1 5 24
M  V30 29 1 6 25
M  V30 30 1 11 26
M  V30 31 1 12 27
M  V30 32 1 13 28
M  V30 33 1 15 29
M  V30 34 1 19 30
M  V30 35 1 21 31
M  V30 36 1 22 32
M  V30 37 1 22 33
M  V30 38 1 23 34
M  V30 39 1 23 35
M  V30 END BOND
M  V30 END CTAB
M  END
>  <Dataset>  (791) 
ChEMBL_Kinases

>  <Ligand_Instance>  (791) 
nan

>  <PDB_ID>  (791) 
nan

>  <Standardized_SMILES>  (791) 
O=c1c2c(ccc3nc(-c4cccnc4)sc32)ncn1C1CC1

>  <Name>  (791) 
nan

>  <Pocket>  (791) 
nan

>  <ATP_Site>  (791) 
nan

>  <Peripheral>  (791) 
nan

>  <Num_H_Atoms_ProtBoundConf>  (791) 
nan

>  <Num_Resolved_Atoms>  (791) 
nan

>  <Num_Not_Resolved_Atoms>  (791) 
nan

$$$$
CHEMBL4798668
     RDKit          3D

  0  0  0  0  0  0  0  0  0  0999 V3000
M  V30 BEGIN CTAB
M  V30 COUNTS 124 132 0 0 0
M  V30 BEGIN ATOM
M  V30 1 C 1.136983 2.544568 1.172919 0
M  V30 2 C 1.612146 1.872258 -0.085156 0
M  V30 3 C 0.561949 1.214658 -0.913089 0
M  V30 4 C 2.664639 2.594724 -0.823189 0
M  V30 5 C 4.032245 2.268209 -0.922006 0
M  V30 6 C 4.727170 3.153466 -1.716880 0
M  V30 7 N 3.808038 4.027189 -2.112918 0
M  V30 8 N 3.994405 5.078396 -2.894722 0
M  V30 9 C 2.971846 5.891113 -3.213728 0
M  V30 10 N 1.752470 5.616067 -2.722659 0
M  V30 11 C 1.556001 4.564558 -1.938300 0
M  V30 12 N 0.233414 4.360423 -1.451912 0
M  V30 13 C -0.786945 5.298371 -1.882183 0 CFG=1
M  V30 14 C -1.063641 5.121030 -3.345907 0
M  V30 15 C -2.045485 4.076905 -3.721683 0
M  V30 16 C -3.164484 3.789309 -2.789724 0 CFG=1
M  V30 17 N -3.472223 2.359270 -2.941435 0
M  V30 18 C -4.502022 1.979801 -1.972534 0
M  V30 19 C -4.719835 0.476419 -2.118738 0
M  V30 20 N -3.916094 -0.022401 -3.239856 0
M  V30 21 C -2.909395 -0.985597 -3.044346 0
M  V30 22 O -2.855158 -1.264451 -1.795948 0
M  V30 23 C -1.943966 -1.729513 -3.852546 0
M  V30 24 C -0.807426 -2.280234 -3.063728 0
M  V30 25 C 0.113551 -3.021264 -3.953569 0
M  V30 26 O -0.154422 -3.418177 -5.116617 0
M  V30 27 N 1.440453 -3.320693 -3.444913 0
M  V30 28 C 1.766383 -2.830308 -2.105055 0
M  V30 29 C 3.016320 -3.461126 -1.604271 0
M  V30 30 C 3.072013 -4.945096 -1.890790 0
M  V30 31 C 1.810178 -5.672848 -1.521735 0
M  V30 32 N 1.432334 -5.553651 -0.143869 0
M  V30 33 C 2.380300 -6.214602 0.697984 0
M  V30 34 C 2.077857 -5.940190 2.171591 0
M  V30 35 N 0.642868 -5.746672 2.327388 0
M  V30 36 C -0.130626 -4.860744 3.127485 0
M  V30 37 C -1.458076 -5.035780 3.439495 0
M  V30 38 C -2.062655 -4.050499 4.186383 0
M  V30 39 C -1.401454 -2.922763 4.621379 0
M  V30 40 C -0.063597 -2.747447 4.308009 0
M  V30 41 C 0.583009 -3.727605 3.551504 0
M  V30 42 C 0.295345 -1.468872 4.907900 0
M  V30 43 O 1.451371 -0.977446 4.827667 0
M  V30 44 N -0.801924 -0.859703 5.582436 0
M  V30 45 C -0.792982 0.411550 6.281069 0
M  V30 46 C -1.636032 1.440038 5.561080 0
M  V30 47 C -3.008951 1.622246 6.101475 0
M  V30 48 C -3.050968 1.608123 7.585948 0
M  V30 49 O -4.047982 2.133714 8.183696 0
M  V30 50 N -2.043301 1.041598 8.410816 0
M  V30 51 C -1.078012 0.276740 7.702879 0
M  V30 52 O -0.361463 -0.617618 8.273055 0
M  V30 53 C -1.867886 -1.764896 5.407258 0
M  V30 54 O -3.031969 -1.672957 5.815125 0
M  V30 55 C -0.026709 -6.658589 1.400202 0
M  V30 56 C 0.085801 -6.085972 -0.003532 0
M  V30 57 C 3.203366 -5.068344 -3.401736 0
M  V30 58 C 2.427742 -4.055168 -4.166110 0
M  V30 59 C -4.376036 0.694232 -4.434219 0
M  V30 60 C -4.123500 2.189426 -4.251933 0
M  V30 61 C -2.833195 4.005083 -1.349011 0
M  V30 62 C -2.061862 5.280863 -1.115011 0
M  V30 63 C 2.588759 3.720313 -1.600832 0
M  V30 64 H 1.339867 3.648352 1.158317 0
M  V30 65 H 0.036477 2.366305 1.332817 0
M  V30 66 H 1.633024 2.194973 2.101076 0
M  V30 67 H 2.192768 0.966152 0.337583 0
M  V30 68 H 0.664346 0.116196 -1.027647 0
M  V30 69 H -0.405316 1.329916 -0.341595 0
M  V30 70 H 0.486281 1.616380 -1.942482 0
M  V30 71 H 4.511805 1.422910 -0.439274 0
M  V30 72 H 5.770094 3.111966 -1.940530 0
M  V30 73 H 3.093621 6.762240 -3.853039 0
M  V30 74 H -0.337849 3.754681 -0.855954 0
M  V30 75 H -0.369381 6.353597 -1.788126 0
M  V30 76 H -1.278502 6.112544 -3.845051 0
M  V30 77 H -0.086169 4.819993 -3.830093 0
M  V30 78 H -2.526678 4.435238 -4.686886 0
M  V30 79 H -1.520844 3.137614 -4.057911 0
M  V30 80 H -4.102545 4.311003 -3.098853 0
M  V30 81 H -5.418088 2.498399 -2.249311 0
M  V30 82 H -4.154596 2.133038 -0.931428 0
M  V30 83 H -4.407582 -0.092056 -1.224331 0
M  V30 84 H -5.805849 0.279534 -2.265448 0
M  V30 85 H -1.610862 -1.103351 -4.704887 0
M  V30 86 H -2.475741 -2.617439 -4.299652 0
M  V30 87 H -0.290533 -1.535752 -2.437729 0
M  V30 88 H -1.191997 -3.045532 -2.334926 0
M  V30 89 H 1.894665 -1.710081 -2.148643 0
M  V30 90 H 0.954359 -2.987210 -1.383095 0
M  V30 91 H 3.896160 -2.999785 -2.087251 0
M  V30 92 H 3.103355 -3.257424 -0.505557 0
M  V30 93 H 3.939830 -5.375526 -1.411138 0
M  V30 94 H 2.004545 -6.753204 -1.748912 0
M  V30 95 H 0.969586 -5.396090 -2.191198 0
M  V30 96 H 2.416652 -7.294599 0.464215 0
M  V30 97 H 3.380915 -5.781635 0.502245 0
M  V30 98 H 2.579837 -5.028529 2.524468 0
M  V30 99 H 2.428195 -6.815338 2.738899 0
M  V30 100 H -1.985803 -5.894814 3.118283 0
M  V30 101 H -3.109541 -4.208969 4.422755 0
M  V30 102 H 1.598144 -3.476066 3.382404 0
M  V30 103 H 0.269587 0.787472 6.178836 0
M  V30 104 H -1.115821 2.434898 5.602302 0
M  V30 105 H -1.724058 1.203731 4.482928 0
M  V30 106 H -3.345086 2.653909 5.773561 0
M  V30 107 H -3.779574 0.946003 5.665927 0
M  V30 108 H -1.957358 1.135040 9.440656 0
M  V30 109 H -1.056880 -6.892068 1.662315 0
M  V30 110 H 0.526596 -7.613302 1.406392 0
M  V30 111 H -0.188041 -6.793305 -0.781438 0
M  V30 112 H -0.572032 -5.165930 0.024482 0
M  V30 113 H 2.874071 -6.103312 -3.659441 0
M  V30 114 H 4.303028 -5.053902 -3.660576 0
M  V30 115 H 3.137222 -3.344725 -4.651719 0
M  V30 116 H 1.882995 -4.553835 -5.020785 0
M  V30 117 H -3.815629 0.294896 -5.313055 0
M  V30 118 H -5.458446 0.504237 -4.532379 0
M  V30 119 H -5.078498 2.746429 -4.185556 0
M  V30 120 H -3.428965 2.583508 -5.010305 0
M  V30 121 H -2.247444 3.146917 -1.013999 0
M  V30 122 H -3.781877 4.127740 -0.762023 0
M  V30 123 H -1.920173 5.412984 -0.023040 0
M  V30 124 H -2.691424 6.095129 -1.501314 0
M  V30 END ATOM
M  V30 BEGIN BOND
M  V30 1 1 1 2
M  V30 2 1 2 3
M  V30 3 1 2 4
M  V30 4 1 4 5
M  V30 5 2 5 6
M  V30 6 1 6 7
M  V30 7 1 7 8
M  V30 8 2 8 9
M  V30 9 1 9 10
M  V30 10 2 10 11
M  V30 11 1 11 12
M  V30 12 1 12 13
M  V30 13 1 13 14
M  V30 14 1 14 15
M  V30 15 1 15 16
M  V30 16 1 16 17
M  V30 17 1 17 18
M  V30 18 1 18 19
M  V30 19 1 19 20
M  V30 20 1 20 21
M  V30 21 2 21 22
M  V30 22 1 21 23
M  V30 23 1 23 24
M  V30 24 1 24 25
M  V30 25 2 25 26
M  V30 26 1 25 27
M  V30 27 1 27 28
M  V30 28 1 28 29
M  V30 29 1 29 30
M  V30 30 1 30 31
M  V30 31 1 31 32
M  V30 32 1 32 33
M  V30 33 1 33 34
M  V30 34 1 34 35
M  V30 35 1 35 36
M  V30 36 2 36 37
M  V30 37 1 37 38
M  V30 38 2 38 39
M  V30 39 1 39 40
M  V30 40 2 40 41
M  V30 41 1 40 42
M  V30 42 2 42 43
M  V30 43 1 42 44
M  V30 44 1 44 45
M  V30 45 1 45 46
M  V30 46 1 46 47
M  V30 47 1 47 48
M  V30 48 2 48 49
M  V30 49 1 48 50
M  V30 50 1 50 51
M  V30 51 2 51 52
M  V30 52 1 44 53
M  V30 53 2 53 54
M  V30 54 1 35 55
M  V30 55 1 55 56
M  V30 56 1 30 57
M  V30 57 1 57 58
M  V30 58 1 20 59
M  V30 59 1 59 60
M  V30 60 1 16 61
M  V30 61 1 61 62
M  V30 62 1 11 63
M  V30 63 2 63 4
M  V30 64 1 63 7
M  V30 65 1 62 13
M  V30 66 1 60 17
M  V30 67 1 58 27
M  V30 68 1 56 32
M  V30 69 1 41 36
M  V30 70 1 51 45
M  V30 71 1 53 39
M  V30 72 1 1 64
M  V30 73 1 1 65
M  V30 74 1 1 66
M  V30 75 1 2 67
M  V30 76 1 3 68
M  V30 77 1 3 69
M  V30 78 1 3 70
M  V30 79 1 5 71
M  V30 80 1 6 72
M  V30 81 1 9 73
M  V30 82 1 12 74
M  V30 83 1 13 75 CFG=3
M  V30 84 1 14 76
M  V30 85 1 14 77
M  V30 86 1 15 78
M  V30 87 1 15 79
M  V30 88 1 16 80 CFG=3
M  V30 89 1 18 81
M  V30 90 1 18 82
M  V30 91 1 19 83
M  V30 92 1 19 84
M  V30 93 1 23 85
M  V30 94 1 23 86
M  V30 95 1 24 87
M  V30 96 1 24 88
M  V30 97 1 28 89
M  V30 98 1 28 90
M  V30 99 1 29 91
M  V30 100 1 29 92
M  V30 101 1 30 93
M  V30 102 1 31 94
M  V30 103 1 31 95
M  V30 104 1 33 96
M  V30 105 1 33 97
M  V30 106 1 34 98
M  V30 107 1 34 99
M  V30 108 1 37 100
M  V30 109 1 38 101
M  V30 110 1 41 102
M  V30 111 1 45 103
M  V30 112 1 46 104
M  V30 113 1 46 105
M  V30 114 1 47 106
M  V30 115 1 47 107
M  V30 116 1 50 108
M  V30 117 1 55 109
M  V30 118 1 55 110
M  V30 119 1 56 111
M  V30 120 1 56 112
M  V30 121 1 57 113
M  V30 122 1 57 114
M  V30 123 1 58 115
M  V30 124 1 58 116
M  V30 125 1 59 117
M  V30 126 1 59 118
M  V30 127 1 60 119
M  V30 128 1 60 120
M  V30 129 1 61 121
M  V30 130 1 61 122
M  V30 131 1 62 123
M  V30 132 1 62 124
M  V30 END BOND
M  V30 END CTAB
M  END
>  <Dataset>  (792) 
ChEMBL_Kinases

>  <Ligand_Instance>  (792) 
nan

>  <PDB_ID>  (792) 
nan

>  <Standardized_SMILES>  (792) 
CC(C)c1ccn2ncnc(N[C@H]3CC[C@@H](N4CCN(C(=O)CCC(=O)N5CCC(CN6CCN(c7ccc8c(c7)C(=O)N(C7CCC(=O)NC7=O)C8=O)CC6)CC5)CC4)CC3)c12

>  <Name>  (792) 
nan

>  <Pocket>  (792) 
nan

>  <ATP_Site>  (792) 
nan

>  <Peripheral>  (792) 
nan

>  <Num_H_Atoms_ProtBoundConf>  (792) 
nan

>  <Num_Resolved_Atoms>  (792) 
nan

>  <Num_Not_Resolved_Atoms>  (792) 
nan

$$$$
CHEMBL4798879
     RDKit          3D

  0  0  0  0  0  0  0  0  0  0999 V3000
M  V30 BEGIN CTAB
M  V30 COUNTS 52 56 0 0 0
M  V30 BEGIN ATOM
M  V30 1 C -0.352312 -3.158110 6.956169 0
M  V30 2 C 0.424802 -3.035032 5.696564 0
M  V30 3 C 1.666309 -2.450004 5.800690 0
M  V30 4 C 2.450289 -2.295338 4.691140 0
M  V30 5 C 2.042584 -2.709416 3.441226 0
M  V30 6 N 2.884648 -2.539178 2.315986 0
M  V30 7 C 2.736257 -2.841071 0.928693 0
M  V30 8 C 1.652172 -2.033409 0.308111 0
M  V30 9 N 2.059785 -0.824189 -0.126812 0
M  V30 10 C 1.053447 -0.139514 -0.684054 0
M  V30 11 C 0.863683 1.160326 -1.309428 0
M  V30 12 C 0.501405 1.381314 -2.615564 0
M  V30 13 C 0.348860 2.665696 -3.096597 0
M  V30 14 C 0.553437 3.780781 -2.287443 0
M  V30 15 N 0.483642 5.125115 -2.461897 0
M  V30 16 N 0.794770 5.698948 -1.294880 0
M  V30 17 C 1.060668 4.750290 -0.383431 0
M  V30 18 C 0.911987 3.530950 -0.997045 0
M  V30 19 C 1.077578 2.252282 -0.467842 0
M  V30 20 C -0.029564 -0.961823 -0.590543 0
M  V30 21 C -1.428605 -0.803736 -1.013471 0
M  V30 22 C -2.305166 0.167353 -0.531229 0
M  V30 23 C -3.579335 0.148864 -1.055028 0
M  V30 24 C -3.961989 -0.776200 -2.000085 0
M  V30 25 C -3.070990 -1.727095 -2.459339 0
M  V30 26 C -3.436842 -2.753117 -3.483244 0
M  V30 27 N -1.820493 -1.710632 -1.946580 0
M  V30 28 N 0.350282 -2.096724 0.009137 0
M  V30 29 C 0.810750 -3.280204 3.391756 0
M  V30 30 C -0.038371 -3.469488 4.473502 0
M  V30 31 H -1.433336 -3.281466 6.757076 0
M  V30 32 H -0.012566 -4.084150 7.465525 0
M  V30 33 H -0.207636 -2.250449 7.604985 0
M  V30 34 H 2.043116 -2.105438 6.748189 0
M  V30 35 H 3.423947 -1.830793 4.804333 0
M  V30 36 H 3.835052 -2.093433 2.511440 0
M  V30 37 H 2.377127 -3.919686 0.895603 0
M  V30 38 H 3.662287 -2.846690 0.360041 0
M  V30 39 H 0.344817 0.508960 -3.234921 0
M  V30 40 H 0.060408 2.844590 -4.138634 0
M  V30 41 H 0.222037 5.573995 -3.386442 0
M  V30 42 H 1.340484 4.993527 0.650285 0
M  V30 43 H 1.367965 2.151495 0.584033 0
M  V30 44 H -1.908789 0.848790 0.210862 0
M  V30 45 H -4.256193 0.903672 -0.677719 0
M  V30 46 H -4.984367 -0.761792 -2.396232 0
M  V30 47 H -4.534549 -2.906969 -3.496771 0
M  V30 48 H -3.011733 -2.455434 -4.455904 0
M  V30 49 H -2.914307 -3.697888 -3.167264 0
M  V30 50 H -0.142031 -2.976433 0.271110 0
M  V30 51 H 0.407285 -3.639775 2.462003 0
M  V30 52 H -1.018367 -3.928814 4.403626 0
M  V30 END ATOM
M  V30 BEGIN BOND
M  V30 1 1 1 2
M  V30 2 2 2 3
M  V30 3 1 3 4
M  V30 4 2 4 5
M  V30 5 1 5 6
M  V30 6 1 6 7
M  V30 7 1 7 8
M  V30 8 2 8 9
M  V30 9 1 9 10
M  V30 10 1 10 11
M  V30 11 2 11 12
M  V30 12 1 12 13
M  V30 13 2 13 14
M  V30 14 1 14 15
M  V30 15 1 15 16
M  V30 16 2 16 17
M  V30 17 1 17 18
M  V30 18 2 18 19
M  V30 19 2 10 20
M  V30 20 1 20 21
M  V30 21 2 21 22
M  V30 22 1 22 23
M  V30 23 2 23 24
M  V30 24 1 24 25
M  V30 25 1 25 26
M  V30 26 2 25 27
M  V30 27 1 20 28
M  V30 28 1 5 29
M  V30 29 2 29 30
M  V30 30 1 30 2
M  V30 31 1 28 8
M  V30 32 1 19 11
M  V30 33 1 27 21
M  V30 34 1 18 14
M  V30 35 1 1 31
M  V30 36 1 1 32
M  V30 37 1 1 33
M  V30 38 1 3 34
M  V30 39 1 4 35
M  V30 40 1 6 36
M  V30 41 1 7 37
M  V30 42 1 7 38
M  V30 43 1 12 39
M  V30 44 1 13 40
M  V30 45 1 15 41
M  V30 46 1 17 42
M  V30 47 1 19 43
M  V30 48 1 22 44
M  V30 49 1 23 45
M  V30 50 1 24 46
M  V30 51 1 26 47
M  V30 52 1 26 48
M  V30 53 1 26 49
M  V30 54 1 28 50
M  V30 55 1 29 51
M  V30 56 1 30 52
M  V30 END BOND
M  V30 END CTAB
M  END
>  <Dataset>  (793) 
ChEMBL_Kinases

>  <Ligand_Instance>  (793) 
nan

>  <PDB_ID>  (793) 
nan

>  <Standardized_SMILES>  (793) 
Cc1ccc(NCc2nc(-c3ccc4[nH]ncc4c3)c(-c3cccc(C)n3)[nH]2)cc1

>  <Name>  (793) 
nan

>  <Pocket>  (793) 
nan

>  <ATP_Site>  (793) 
nan

>  <Peripheral>  (793) 
nan

>  <Num_H_Atoms_ProtBoundConf>  (793) 
nan

>  <Num_Resolved_Atoms>  (793) 
nan

>  <Num_Not_Resolved_Atoms>  (793) 
nan

$$$$
CHEMBL4876591
     RDKit          3D

  0  0  0  0  0  0  0  0  0  0999 V3000
M  V30 BEGIN CTAB
M  V30 COUNTS 49 52 0 0 0
M  V30 BEGIN ATOM
M  V30 1 C 1.137949 -4.091180 4.992577 0
M  V30 2 O 1.754708 -3.255207 4.032073 0
M  V30 3 C 2.465634 -2.118347 4.397164 0
M  V30 4 O 2.656796 -1.687398 5.564024 0
M  V30 5 C 3.061976 -1.326740 3.316430 0
M  V30 6 C 3.785959 -0.174722 3.620838 0
M  V30 7 C 4.337687 0.552686 2.567645 0
M  V30 8 C 4.200945 0.186788 1.243113 0
M  V30 9 C 3.482923 -0.955591 0.942378 0
M  V30 10 C 3.295657 -1.410937 -0.481611 0
M  V30 11 N 2.079267 -0.781034 -0.973685 0
M  V30 12 C 2.371771 0.501672 -1.584118 0
M  V30 13 C 1.218232 1.048752 -2.396359 0
M  V30 14 O 0.039793 1.228229 -1.676457 0
M  V30 15 C -0.863119 0.307311 -1.108882 0
M  V30 16 C -2.181922 0.689330 -0.974127 0
M  V30 17 C -3.057916 -0.218635 -0.417520 0
M  V30 18 C -4.437371 0.248795 -0.304319 0
M  V30 19 C -4.662012 1.613656 -0.090136 0
M  V30 20 C -5.973211 2.023038 0.012846 0
M  V30 21 N -7.030899 1.198445 -0.079550 0
M  V30 22 C -6.837585 -0.127991 -0.287009 0
M  V30 23 C -5.531952 -0.558926 -0.393006 0
M  V30 24 C -2.643550 -1.472736 -0.003892 0
M  V30 25 C -1.330750 -1.875466 -0.129089 0
M  V30 26 C -0.444168 -0.960887 -0.690568 0
M  V30 27 C 0.899362 -1.577303 -0.736159 0
M  V30 28 O 1.025048 -2.809863 -0.566622 0
M  V30 29 C 2.940824 -1.668916 1.988314 0
M  V30 30 H 0.738581 -3.400606 5.788599 0
M  V30 31 H 0.259229 -4.580696 4.537573 0
M  V30 32 H 1.806795 -4.835599 5.429964 0
M  V30 33 H 3.931295 0.170235 4.650280 0
M  V30 34 H 4.903020 1.454966 2.827491 0
M  V30 35 H 4.645711 0.779984 0.451132 0
M  V30 36 H 4.174460 -1.087048 -1.044527 0
M  V30 37 H 3.154951 -2.498118 -0.439127 0
M  V30 38 H 3.280248 0.472901 -2.206096 0
M  V30 39 H 2.575483 1.264307 -0.786237 0
M  V30 40 H 1.565736 2.063952 -2.733885 0
M  V30 41 H 1.089847 0.480643 -3.356988 0
M  V30 42 H -2.389309 1.677791 -1.326614 0
M  V30 43 H -3.828787 2.319281 -0.008639 0
M  V30 44 H -6.120152 3.087369 0.178910 0
M  V30 45 H -7.656710 -0.832430 -0.368579 0
M  V30 46 H -5.315333 -1.614924 -0.559872 0
M  V30 47 H -3.380290 -2.146364 0.428448 0
M  V30 48 H -0.974950 -2.845422 0.182858 0
M  V30 49 H 2.373003 -2.564490 1.816614 0
M  V30 END ATOM
M  V30 BEGIN BOND
M  V30 1 1 1 2
M  V30 2 1 2 3
M  V30 3 2 3 4
M  V30 4 1 3 5
M  V30 5 2 5 6
M  V30 6 1 6 7
M  V30 7 2 7 8
M  V30 8 1 8 9
M  V30 9 1 9 10
M  V30 10 1 10 11
M  V30 11 1 11 12
M  V30 12 1 12 13
M  V30 13 1 13 14
M  V30 14 1 14 15
M  V30 15 2 15 16
M  V30 16 1 16 17
M  V30 17 1 17 18
M  V30 18 2 18 19
M  V30 19 1 19 20
M  V30 20 2 20 21
M  V30 21 1 21 22
M  V30 22 2 22 23
M  V30 23 2 17 24
M  V30 24 1 24 25
M  V30 25 2 25 26
M  V30 26 1 26 27
M  V30 27 2 27 28
M  V30 28 2 9 29
M  V30 29 1 29 5
M  V30 30 1 27 11
M  V30 31 1 26 15
M  V30 32 1 23 18
M  V30 33 1 1 30
M  V30 34 1 1 31
M  V30 35 1 1 32
M  V30 36 1 6 33
M  V30 37 1 7 34
M  V30 38 1 8 35
M  V30 39 1 10 36
M  V30 40 1 10 37
M  V30 41 1 12 38
M  V30 42 1 12 39
M  V30 43 1 13 40
M  V30 44 1 13 41
M  V30 45 1 16 42
M  V30 46 1 19 43
M  V30 47 1 20 44
M  V30 48 1 22 45
M  V30 49 1 23 46
M  V30 50 1 24 47
M  V30 51 1 25 48
M  V30 52 1 29 49
M  V30 END BOND
M  V30 END CTAB
M  END
>  <Dataset>  (794) 
ChEMBL_Kinases

>  <Ligand_Instance>  (794) 
nan

>  <PDB_ID>  (794) 
nan

>  <Standardized_SMILES>  (794) 
COC(=O)c1cccc(CN2CCOc3cc(-c4ccncc4)ccc3C2=O)c1

>  <Name>  (794) 
nan

>  <Pocket>  (794) 
nan

>  <ATP_Site>  (794) 
nan

>  <Peripheral>  (794) 
nan

>  <Num_H_Atoms_ProtBoundConf>  (794) 
nan

>  <Num_Resolved_Atoms>  (794) 
nan

>  <Num_Not_Resolved_Atoms>  (794) 
nan

$$$$
CHEMBL157258
     RDKit          3D

  0  0  0  0  0  0  0  0  0  0999 V3000
M  V30 BEGIN CTAB
M  V30 COUNTS 33 35 0 0 0
M  V30 BEGIN ATOM
M  V30 1 O -0.504964 -0.568073 4.619069 0
M  V30 2 C 0.316362 -0.880392 3.718534 0
M  V30 3 N 1.318602 -1.875948 3.933635 0
M  V30 4 C 2.069588 -1.977231 2.720145 0
M  V30 5 O 3.032825 -2.753595 2.547921 0
M  V30 6 C 1.511337 -1.025251 1.753982 0
M  V30 7 C 1.971744 -0.781895 0.397865 0
M  V30 8 C 2.062268 -1.992246 -0.284116 0
M  V30 9 C 2.479150 -2.066584 -1.608774 0
M  V30 10 C 2.821511 -0.902419 -2.291123 0
M  V30 11 C 2.728102 0.289720 -1.601928 0
M  V30 12 C 2.309690 0.367255 -0.270276 0
M  V30 13 Cl 2.177841 1.809420 0.676036 0
M  V30 14 C 0.519318 -0.413498 2.337886 0
M  V30 15 N -0.387078 0.591513 1.895083 0
M  V30 16 C -1.477605 0.301615 0.999441 0
M  V30 17 C -2.640252 -0.112952 1.611187 0
M  V30 18 C -3.713359 -0.392748 0.806082 0
M  V30 19 Cl -5.253736 -0.937669 1.465621 0
M  V30 20 C -3.679079 -0.278918 -0.566113 0
M  V30 21 O -4.729720 -0.545040 -1.418601 0
M  V30 22 C -2.496950 0.140465 -1.157911 0
M  V30 23 Cl -2.291284 0.334982 -2.886776 0
M  V30 24 C -1.399704 0.428847 -0.357740 0
M  V30 25 H 1.494901 -2.441890 4.808252 0
M  V30 26 H 1.833570 -2.980436 0.094909 0
M  V30 27 H 2.558514 -2.985453 -2.175723 0
M  V30 28 H 3.151796 -0.892453 -3.329013 0
M  V30 29 H 2.980416 1.231487 -2.069233 0
M  V30 30 H -0.387741 1.601627 2.142602 0
M  V30 31 H -2.759758 -0.232639 2.676824 0
M  V30 32 H -5.182130 0.207337 -1.948651 0
M  V30 33 H -0.493195 0.750991 -0.803988 0
M  V30 END ATOM
M  V30 BEGIN BOND
M  V30 1 2 1 2
M  V30 2 1 2 3
M  V30 3 1 3 4
M  V30 4 2 4 5
M  V30 5 1 4 6
M  V30 6 1 6 7
M  V30 7 2 7 8
M  V30 8 1 8 9
M  V30 9 2 9 10
M  V30 10 1 10 11
M  V30 11 2 11 12
M  V30 12 1 12 13
M  V30 13 2 6 14
M  V30 14 1 14 15
M  V30 15 1 15 16
M  V30 16 2 16 17
M  V30 17 1 17 18
M  V30 18 1 18 19
M  V30 19 2 18 20
M  V30 20 1 20 21
M  V30 21 1 20 22
M  V30 22 1 22 23
M  V30 23 2 22 24
M  V30 24 1 14 2
M  V30 25 1 24 16
M  V30 26 1 12 7
M  V30 27 1 3 25
M  V30 28 1 8 26
M  V30 29 1 9 27
M  V30 30 1 10 28
M  V30 31 1 11 29
M  V30 32 1 15 30
M  V30 33 1 17 31
M  V30 34 1 21 32
M  V30 35 1 24 33
M  V30 END BOND
M  V30 END CTAB
M  END
>  <Dataset>  (795) 
ChEMBL_Kinases

>  <Ligand_Instance>  (795) 
nan

>  <PDB_ID>  (795) 
nan

>  <Standardized_SMILES>  (795) 
O=C1NC(=O)C(c2ccccc2Cl)=C1Nc1cc(Cl)c(O)c(Cl)c1

>  <Name>  (795) 
nan

>  <Pocket>  (795) 
nan

>  <ATP_Site>  (795) 
nan

>  <Peripheral>  (795) 
nan

>  <Num_H_Atoms_ProtBoundConf>  (795) 
nan

>  <Num_Resolved_Atoms>  (795) 
nan

>  <Num_Not_Resolved_Atoms>  (795) 
nan

$$$$
CHEMBL1559654
     RDKit          3D

  0  0  0  0  0  0  0  0  0  0999 V3000
M  V30 BEGIN CTAB
M  V30 COUNTS 28 30 0 0 0
M  V30 BEGIN ATOM
M  V30 1 N 1.415788 -6.397860 3.530057 0
M  V30 2 C 1.114394 -5.289848 3.366829 0
M  V30 3 C 0.746818 -3.905794 3.162558 0
M  V30 4 C 0.223568 -3.175206 4.224564 0
M  V30 5 C -0.143828 -1.857535 4.092113 0
M  V30 6 C 0.013154 -1.232275 2.852023 0
M  V30 7 C 0.530450 -1.944016 1.790638 0
M  V30 8 C 0.690431 -1.281455 0.499368 0
M  V30 9 N 1.191960 -1.946063 -0.557232 0
M  V30 10 C 1.358611 -1.377691 -1.769301 0
M  V30 11 C 1.001471 -0.042570 -1.957153 0
M  V30 12 C 0.484514 0.641821 -0.867323 0
M  V30 13 N 0.067174 2.005344 -0.872195 0
M  V30 14 C -1.221780 2.190688 -1.280743 0
M  V30 15 C -1.451636 3.567951 -1.222198 0
M  V30 16 N -0.325135 4.164450 -0.791002 0
M  V30 17 C 0.602851 3.215826 -0.576552 0
M  V30 18 N 0.350790 -0.012706 0.321795 0
M  V30 19 C 0.892531 -3.266292 1.946966 0
M  V30 20 H 0.076945 -3.607887 5.217809 0
M  V30 21 H -0.552316 -1.307565 4.943288 0
M  V30 22 H -0.277458 -0.177807 2.734021 0
M  V30 23 H 1.758710 -1.885756 -2.636275 0
M  V30 24 H 1.083932 0.529555 -2.874291 0
M  V30 25 H -2.064363 1.617256 -1.615713 0
M  V30 26 H -2.294194 4.220024 -1.437357 0
M  V30 27 H 1.631519 3.141137 -0.243329 0
M  V30 28 H 1.300701 -3.838714 1.121244 0
M  V30 END ATOM
M  V30 BEGIN BOND
M  V30 1 3 1 2
M  V30 2 1 2 3
M  V30 3 2 3 4
M  V30 4 1 4 5
M  V30 5 2 5 6
M  V30 6 1 6 7
M  V30 7 1 7 8
M  V30 8 2 8 9
M  V30 9 1 9 10
M  V30 10 2 10 11
M  V30 11 1 11 12
M  V30 12 1 12 13
M  V30 13 1 13 14
M  V30 14 2 14 15
M  V30 15 1 15 16
M  V30 16 2 16 17
M  V30 17 2 12 18
M  V30 18 2 7 19
M  V30 19 1 19 3
M  V30 20 1 18 8
M  V30 21 1 17 13
M  V30 22 1 4 20
M  V30 23 1 5 21
M  V30 24 1 6 22
M  V30 25 1 10 23
M  V30 26 1 11 24
M  V30 27 1 14 25
M  V30 28 1 15 26
M  V30 29 1 17 27
M  V30 30 1 19 28
M  V30 END BOND
M  V30 END CTAB
M  END
>  <Dataset>  (796) 
ChEMBL_Kinases

>  <Ligand_Instance>  (796) 
nan

>  <PDB_ID>  (796) 
nan

>  <Standardized_SMILES>  (796) 
N#Cc1cccc(-c2nccc(-n3ccnc3)n2)c1

>  <Name>  (796) 
nan

>  <Pocket>  (796) 
nan

>  <ATP_Site>  (796) 
nan

>  <Peripheral>  (796) 
nan

>  <Num_H_Atoms_ProtBoundConf>  (796) 
nan

>  <Num_Resolved_Atoms>  (796) 
nan

>  <Num_Not_Resolved_Atoms>  (796) 
nan

$$$$
CHEMBL4876452
     RDKit          3D

  0  0  0  0  0  0  0  0  0  0999 V3000
M  V30 BEGIN CTAB
M  V30 COUNTS 59 63 0 0 0
M  V30 BEGIN ATOM
M  V30 1 C 4.511513 -0.045321 2.642413 0
M  V30 2 C 3.329520 -0.509535 1.819678 0
M  V30 3 C 2.137868 -0.833711 2.695985 0
M  V30 4 O 3.667556 -1.637562 1.071446 0
M  V30 5 C 2.996055 0.612907 0.876449 0
M  V30 6 C 3.564029 0.708408 -0.377186 0
M  V30 7 C 3.226636 1.757691 -1.208336 0
M  V30 8 C 2.334400 2.718497 -0.821709 0
M  V30 9 C 1.783657 2.604472 0.424482 0
M  V30 10 N 0.828297 3.481269 1.054780 0
M  V30 11 C 1.031778 4.774823 1.394921 0
M  V30 12 C -0.134426 5.268065 1.979315 0
M  V30 13 F -0.400989 6.492612 2.469144 0
M  V30 14 C -1.048166 4.226557 1.979605 0
M  V30 15 C -2.335690 4.058720 2.396534 0
M  V30 16 N -2.916385 2.870286 2.228006 0
M  V30 17 C -2.363995 1.789476 1.679725 0
M  V30 18 N -3.100279 0.584798 1.563035 0
M  V30 19 C -2.666025 -0.645499 1.009663 0
M  V30 20 C -1.421825 -0.884591 0.476204 0
M  V30 21 C -1.008459 -2.083672 -0.059442 0
M  V30 22 C -1.877711 -3.147424 -0.080708 0
M  V30 23 N -1.552235 -4.434598 -0.613961 0
M  V30 24 C -2.389581 -5.621563 -0.657836 0
M  V30 25 C -2.734128 -5.824240 -2.109777 0
M  V30 26 N -1.716716 -5.627480 -3.047181 0
M  V30 27 C -0.411007 -5.340097 -2.608854 0
M  V30 28 C -0.281578 -4.774823 -1.225710 0
M  V30 29 C -3.132856 -2.939883 0.446652 0
M  V30 30 C -3.517741 -1.726533 0.976420 0
M  V30 31 N -1.107869 2.016463 1.293225 0
M  V30 32 C -0.430157 3.162451 1.412661 0
M  V30 33 N 2.119247 1.573945 1.232473 0
M  V30 34 H 4.636956 -0.679077 3.537765 0
M  V30 35 H 5.395938 -0.054776 1.999497 0
M  V30 36 H 4.309917 1.008003 2.958626 0
M  V30 37 H 1.246145 -0.225089 2.457288 0
M  V30 38 H 1.839574 -1.897272 2.623122 0
M  V30 39 H 2.399982 -0.578144 3.746903 0
M  V30 40 H 3.137461 -2.411078 1.380923 0
M  V30 41 H 4.272375 -0.038254 -0.706973 0
M  V30 42 H 3.653281 1.873889 -2.213536 0
M  V30 43 H 1.997728 3.570067 -1.372497 0
M  V30 44 H 1.930414 5.357167 1.252993 0
M  V30 45 H -2.866568 4.882513 2.854645 0
M  V30 46 H -4.085648 0.620112 1.934911 0
M  V30 47 H -0.687695 -0.095943 0.459108 0
M  V30 48 H -0.019307 -2.186499 -0.455926 0
M  V30 49 H -1.823990 -6.511879 -0.297426 0
M  V30 50 H -3.317539 -5.495442 -0.092592 0
M  V30 51 H -3.595173 -5.154553 -2.332559 0
M  V30 52 H -3.123076 -6.878019 -2.220889 0
M  V30 53 H -2.025482 -5.107217 -3.897655 0
M  V30 54 H -0.005467 -4.554274 -3.300177 0
M  V30 55 H 0.244011 -6.224610 -2.751359 0
M  V30 56 H 0.145514 -5.605907 -0.585055 0
M  V30 57 H 0.465785 -3.979425 -1.166139 0
M  V30 58 H -3.916841 -3.687727 0.494207 0
M  V30 59 H -4.522165 -1.586405 1.390228 0
M  V30 END ATOM
M  V30 BEGIN BOND
M  V30 1 1 1 2
M  V30 2 1 2 3
M  V30 3 1 2 4
M  V30 4 1 2 5
M  V30 5 2 5 6
M  V30 6 1 6 7
M  V30 7 2 7 8
M  V30 8 1 8 9
M  V30 9 1 9 10
M  V30 10 1 10 11
M  V30 11 2 11 12
M  V30 12 1 12 13
M  V30 13 1 12 14
M  V30 14 2 14 15
M  V30 15 1 15 16
M  V30 16 2 16 17
M  V30 17 1 17 18
M  V30 18 1 18 19
M  V30 19 2 19 20
M  V30 20 1 20 21
M  V30 21 2 21 22
M  V30 22 1 22 23
M  V30 23 1 23 24
M  V30 24 1 24 25
M  V30 25 1 25 26
M  V30 26 1 26 27
M  V30 27 1 27 28
M  V30 28 1 22 29
M  V30 29 2 29 30
M  V30 30 1 17 31
M  V30 31 2 31 32
M  V30 32 2 9 33
M  V30 33 1 33 5
M  V30 34 1 32 10
M  V30 35 1 32 14
M  V30 36 1 30 19
M  V30 37 1 28 23
M  V30 38 1 1 34
M  V30 39 1 1 35
M  V30 40 1 1 36
M  V30 41 1 3 37
M  V30 42 1 3 38
M  V30 43 1 3 39
M  V30 44 1 4 40
M  V30 45 1 6 41
M  V30 46 1 7 42
M  V30 47 1 8 43
M  V30 48 1 11 44
M  V30 49 1 15 45
M  V30 50 1 18 46
M  V30 51 1 20 47
M  V30 52 1 21 48
M  V30 53 1 24 49
M  V30 54 1 24 50
M  V30 55 1 25 51
M  V30 56 1 25 52
M  V30 57 1 26 53
M  V30 58 1 27 54
M  V30 59 1 27 55
M  V30 60 1 28 56
M  V30 61 1 28 57
M  V30 62 1 29 58
M  V30 63 1 30 59
M  V30 END BOND
M  V30 END CTAB
M  END
>  <Dataset>  (797) 
ChEMBL_Kinases

>  <Ligand_Instance>  (797) 
nan

>  <PDB_ID>  (797) 
nan

>  <Standardized_SMILES>  (797) 
CC(C)(O)c1cccc(-n2cc(F)c3cnc(Nc4ccc(N5CCNCC5)cc4)nc32)n1

>  <Name>  (797) 
nan

>  <Pocket>  (797) 
nan

>  <ATP_Site>  (797) 
nan

>  <Peripheral>  (797) 
nan

>  <Num_H_Atoms_ProtBoundConf>  (797) 
nan

>  <Num_Resolved_Atoms>  (797) 
nan

>  <Num_Not_Resolved_Atoms>  (797) 
nan

$$$$
CHEMBL4799210
     RDKit          3D

  0  0  0  0  0  0  0  0  0  0999 V3000
M  V30 BEGIN CTAB
M  V30 COUNTS 62 65 0 0 0
M  V30 BEGIN ATOM
M  V30 1 C 2.878217 -0.949513 6.289243 0
M  V30 2 C 2.222423 -1.158175 4.986795 0
M  V30 3 N 2.529492 -0.510280 3.854447 0
M  V30 4 C 1.787421 -0.882336 2.806753 0
M  V30 5 C 1.671228 -0.577999 1.391877 0
M  V30 6 C 2.572695 -0.479164 0.461243 0
M  V30 7 C 3.991196 -0.680092 0.701238 0
M  V30 8 O 4.523480 -0.979766 1.794747 0
M  V30 9 N 4.666221 -0.478141 -0.525828 0
M  V30 10 C 3.685836 -0.159574 -1.504535 0
M  V30 11 C 3.763456 0.130408 -2.850918 0
M  V30 12 C 2.629763 0.417344 -3.616200 0
M  V30 13 C 1.380707 0.417459 -3.031704 0
M  V30 14 C 0.232917 0.723765 -3.880772 0
M  V30 15 O 0.467111 0.974374 -5.091521 0
M  V30 16 N -1.103390 0.746211 -3.392304 0
M  V30 17 C -2.214800 1.055537 -4.271902 0 CFG=2
M  V30 18 C -2.985828 2.203673 -3.657664 0
M  V30 19 C -3.113590 -0.177723 -4.255522 0
M  V30 20 C -3.617570 -0.502813 -2.921463 0
M  V30 21 C -4.800887 -0.030762 -2.349035 0
M  V30 22 C -5.184245 -0.401046 -1.084534 0
M  V30 23 C -4.420645 -1.248986 -0.333218 0
M  V30 24 Cl -4.885857 -1.746043 1.299631 0
M  V30 25 C -3.233415 -1.736556 -0.878730 0
M  V30 26 C -2.854799 -1.361737 -2.146456 0
M  V30 27 C 1.275670 0.130616 -1.686678 0
M  V30 28 C 2.408446 -0.149678 -0.950922 0
M  V30 29 C 0.939294 -1.856622 3.354867 0
M  V30 30 C -0.130239 -2.658443 2.692974 0
M  V30 31 C 1.199675 -2.033491 4.695919 0
M  V30 32 N 0.573895 -2.916248 5.620884 0
M  V30 33 C -0.522249 -2.292033 6.236510 0
M  V30 34 O -0.766406 -1.093954 5.884172 0
M  V30 35 C -1.437925 -2.850659 7.249988 0
M  V30 36 Cl -1.079478 -4.505760 7.715580 0
M  V30 37 H 3.620529 -1.720012 6.546555 0
M  V30 38 H 2.140083 -0.943762 7.111902 0
M  V30 39 H 3.426620 0.024894 6.297088 0
M  V30 40 H 3.254258 0.219155 3.777572 0
M  V30 41 H 0.645904 -0.391059 1.019541 0
M  V30 42 H 5.698831 -0.561521 -0.632049 0
M  V30 43 H 4.763349 0.122424 -3.283187 0
M  V30 44 H 2.829036 0.631076 -4.675423 0
M  V30 45 H -1.302401 0.540233 -2.392366 0
M  V30 46 H -1.856890 1.263498 -5.299535 0
M  V30 47 H -2.309004 3.095238 -3.562013 0
M  V30 48 H -3.251421 1.864558 -2.624022 0
M  V30 49 H -3.876082 2.478910 -4.256257 0
M  V30 50 H -3.932470 0.045563 -4.972334 0
M  V30 51 H -2.565110 -1.052908 -4.664004 0
M  V30 52 H -5.391197 0.647432 -2.977060 0
M  V30 53 H -6.115946 -0.015985 -0.661510 0
M  V30 54 H -2.649277 -2.398062 -0.277545 0
M  V30 55 H -1.921736 -1.770474 -2.524592 0
M  V30 56 H 0.303694 0.126722 -1.213660 0
M  V30 57 H -0.332310 -2.158934 1.715557 0
M  V30 58 H 0.249156 -3.675220 2.504702 0
M  V30 59 H -1.079430 -2.617191 3.254852 0
M  V30 60 H 0.762965 -3.897897 5.919142 0
M  V30 61 H -2.463791 -2.845832 6.777399 0
M  V30 62 H -1.496364 -2.214877 8.167993 0
M  V30 END ATOM
M  V30 BEGIN BOND
M  V30 1 1 1 2
M  V30 2 1 2 3
M  V30 3 1 3 4
M  V30 4 1 4 5
M  V30 5 2 5 6
M  V30 6 1 6 7
M  V30 7 2 7 8
M  V30 8 1 7 9
M  V30 9 1 9 10
M  V30 10 2 10 11
M  V30 11 1 11 12
M  V30 12 2 12 13
M  V30 13 1 13 14
M  V30 14 2 14 15
M  V30 15 1 14 16
M  V30 16 1 16 17
M  V30 17 1 17 18
M  V30 18 1 17 19
M  V30 19 1 19 20
M  V30 20 2 20 21
M  V30 21 1 21 22
M  V30 22 2 22 23
M  V30 23 1 23 24
M  V30 24 1 23 25
M  V30 25 2 25 26
M  V30 26 1 13 27
M  V30 27 2 27 28
M  V30 28 2 4 29
M  V30 29 1 29 30
M  V30 30 1 29 31
M  V30 31 1 31 32
M  V30 32 1 32 33
M  V30 33 2 33 34
M  V30 34 1 33 35
M  V30 35 1 35 36
M  V30 36 2 31 2
M  V30 37 1 28 6
M  V30 38 1 28 10
M  V30 39 1 26 20
M  V30 40 1 1 37
M  V30 41 1 1 38
M  V30 42 1 1 39
M  V30 43 1 3 40
M  V30 44 1 5 41
M  V30 45 1 9 42
M  V30 46 1 11 43
M  V30 47 1 12 44
M  V30 48 1 16 45
M  V30 49 1 17 46 CFG=3
M  V30 50 1 18 47
M  V30 51 1 18 48
M  V30 52 1 18 49
M  V30 53 1 19 50
M  V30 54 1 19 51
M  V30 55 1 21 52
M  V30 56 1 22 53
M  V30 57 1 25 54
M  V30 58 1 26 55
M  V30 59 1 27 56
M  V30 60 1 30 57
M  V30 61 1 30 58
M  V30 62 1 30 59
M  V30 63 1 32 60
M  V30 64 1 35 61
M  V30 65 1 35 62
M  V30 END BOND
M  V30 END CTAB
M  END
>  <Dataset>  (798) 
ChEMBL_Kinases

>  <Ligand_Instance>  (798) 
nan

>  <PDB_ID>  (798) 
nan

>  <Standardized_SMILES>  (798) 
Cc1[nH]c(/C=C2\C(=O)Nc3ccc(C(=O)N[C@H](C)Cc4ccc(Cl)cc4)cc32)c(C)c1NC(=O)CCl

>  <Name>  (798) 
nan

>  <Pocket>  (798) 
nan

>  <ATP_Site>  (798) 
nan

>  <Peripheral>  (798) 
nan

>  <Num_H_Atoms_ProtBoundConf>  (798) 
nan

>  <Num_Resolved_Atoms>  (798) 
nan

>  <Num_Not_Resolved_Atoms>  (798) 
nan

$$$$
CHEMBL4799221
     RDKit          3D

  0  0  0  0  0  0  0  0  0  0999 V3000
M  V30 BEGIN CTAB
M  V30 COUNTS 39 41 0 0 0
M  V30 BEGIN ATOM
M  V30 1 C -2.024409 -3.967505 0.795617 0
M  V30 2 O -1.928972 -3.154593 1.950120 0
M  V30 3 C -0.849430 -2.339252 2.211480 0
M  V30 4 C 0.211805 -2.303636 1.297969 0
M  V30 5 C 1.269803 -1.466085 1.612926 0
M  V30 6 N 2.402681 -1.364918 0.728979 0
M  V30 7 C 2.142808 -0.323163 -0.191119 0
M  V30 8 O 1.213144 0.516897 -0.438862 0
M  V30 9 C 2.963576 0.194009 -1.300408 0
M  V30 10 C 2.219965 1.304008 -1.961746 0
M  V30 11 C 1.593079 1.078888 -3.192976 0
M  V30 12 C 0.889916 2.095802 -3.836718 0
M  V30 13 C 0.805901 3.345636 -3.258436 0
M  V30 14 C 1.414201 3.596077 -2.044937 0
M  V30 15 C 2.116461 2.578004 -1.403352 0
M  V30 16 Cl 2.897590 2.863137 0.133077 0
M  V30 17 C 1.344037 -0.679755 2.747140 0
M  V30 18 C 0.285879 -0.725987 3.641579 0
M  V30 19 C -0.779527 -1.554788 3.346502 0
M  V30 20 C -1.915219 -1.622624 4.277087 0
M  V30 21 C -2.145842 -0.978113 5.468453 0
M  V30 22 N -3.343828 -1.389330 5.932563 0
M  V30 23 C -3.845093 -2.269086 5.049209 0
M  V30 24 O -2.981596 -2.379395 4.095320 0
M  V30 25 H -2.998126 -4.496988 0.763614 0
M  V30 26 H -1.235198 -4.739376 0.869688 0
M  V30 27 H -1.892761 -3.351413 -0.113153 0
M  V30 28 H 0.228067 -2.889140 0.388715 0
M  V30 29 H 3.342728 -1.775340 0.515763 0
M  V30 30 H 3.219874 -0.536548 -2.083526 0
M  V30 31 H 3.918837 0.592113 -0.908089 0
M  V30 32 H 1.676448 0.085158 -3.624873 0
M  V30 33 H 0.404970 1.921071 -4.789737 0
M  V30 34 H 0.269029 4.185473 -3.712844 0
M  V30 35 H 1.351441 4.591221 -1.576783 0
M  V30 36 H 2.179557 -0.045512 2.955161 0
M  V30 37 H 0.338852 -0.111093 4.532667 0
M  V30 38 H -1.418612 -0.280701 5.867717 0
M  V30 39 H -4.755071 -2.843957 5.002327 0
M  V30 END ATOM
M  V30 BEGIN BOND
M  V30 1 1 1 2
M  V30 2 1 2 3
M  V30 3 2 3 4
M  V30 4 1 4 5
M  V30 5 1 5 6
M  V30 6 1 6 7
M  V30 7 2 7 8
M  V30 8 1 7 9
M  V30 9 1 9 10
M  V30 10 2 10 11
M  V30 11 1 11 12
M  V30 12 2 12 13
M  V30 13 1 13 14
M  V30 14 2 14 15
M  V30 15 1 15 16
M  V30 16 2 5 17
M  V30 17 1 17 18
M  V30 18 2 18 19
M  V30 19 1 19 20
M  V30 20 2 20 21
M  V30 21 1 21 22
M  V30 22 2 22 23
M  V30 23 1 23 24
M  V30 24 1 19 3
M  V30 25 1 24 20
M  V30 26 1 15 10
M  V30 27 1 1 25
M  V30 28 1 1 26
M  V30 29 1 1 27
M  V30 30 1 4 28
M  V30 31 1 6 29
M  V30 32 1 9 30
M  V30 33 1 9 31
M  V30 34 1 11 32
M  V30 35 1 12 33
M  V30 36 1 13 34
M  V30 37 1 14 35
M  V30 38 1 17 36
M  V30 39 1 18 37
M  V30 40 1 21 38
M  V30 41 1 23 39
M  V30 END BOND
M  V30 END CTAB
M  END
>  <Dataset>  (799) 
ChEMBL_Kinases

>  <Ligand_Instance>  (799) 
nan

>  <PDB_ID>  (799) 
nan

>  <Standardized_SMILES>  (799) 
COc1cc(NC(=O)Cc2ccccc2Cl)ccc1-c1cnco1

>  <Name>  (799) 
nan

>  <Pocket>  (799) 
nan

>  <ATP_Site>  (799) 
nan

>  <Peripheral>  (799) 
nan

>  <Num_H_Atoms_ProtBoundConf>  (799) 
nan

>  <Num_Resolved_Atoms>  (799) 
nan

>  <Num_Not_Resolved_Atoms>  (799) 
nan

$$$$
CHEMBL157141
     RDKit          3D

  0  0  0  0  0  0  0  0  0  0999 V3000
M  V30 BEGIN CTAB
M  V30 COUNTS 33 35 0 0 0
M  V30 BEGIN ATOM
M  V30 1 O 0.865385 -0.003839 4.749854 0
M  V30 2 C 1.330245 -0.691875 3.808168 0
M  V30 3 N 2.184691 -1.819945 3.711830 0
M  V30 4 C 2.314465 -2.110040 2.303389 0
M  V30 5 O 3.029244 -3.079799 1.928916 0
M  V30 6 C 1.510199 -1.115783 1.578041 0
M  V30 7 C 1.528527 -1.200693 0.123915 0
M  V30 8 C 1.246863 -2.342142 -0.600912 0
M  V30 9 C 1.304158 -2.377718 -1.974536 0
M  V30 10 C 1.660192 -1.209992 -2.605272 0
M  V30 11 C 1.946366 -0.059561 -1.893741 0
M  V30 12 C 1.886178 -0.029741 -0.505492 0
M  V30 13 Cl 2.311894 1.525959 0.139126 0
M  V30 14 C 0.935942 -0.290873 2.445257 0
M  V30 15 N 0.089494 0.749639 2.024078 0
M  V30 16 C -1.122289 0.492179 1.310152 0
M  V30 17 C -1.573629 -0.789674 1.095856 0
M  V30 18 C -2.753181 -1.038339 0.394232 0
M  V30 19 C -3.506300 0.014203 -0.110108 0
M  V30 20 O -4.673902 -0.153139 -0.808738 0
M  V30 21 C -3.087245 1.318438 0.082957 0
M  V30 22 Cl -3.920659 2.741808 -0.497447 0
M  V30 23 C -1.912735 1.489440 0.786315 0
M  V30 24 H 2.563236 -2.242598 4.564104 0
M  V30 25 H 0.978179 -3.211444 -0.014690 0
M  V30 26 H 1.057766 -3.335019 -2.409177 0
M  V30 27 H 1.697254 -1.263062 -3.695532 0
M  V30 28 H 2.203239 0.759876 -2.517878 0
M  V30 29 H 0.276208 1.780994 2.211683 0
M  V30 30 H -1.044587 -1.651430 1.459194 0
M  V30 31 H -3.172379 -2.011335 0.190104 0
M  V30 32 H -4.660616 -0.329929 -1.790513 0
M  V30 33 H -1.551225 2.503360 0.951972 0
M  V30 END ATOM
M  V30 BEGIN BOND
M  V30 1 2 1 2
M  V30 2 1 2 3
M  V30 3 1 3 4
M  V30 4 2 4 5
M  V30 5 1 4 6
M  V30 6 1 6 7
M  V30 7 2 7 8
M  V30 8 1 8 9
M  V30 9 2 9 10
M  V30 10 1 10 11
M  V30 11 2 11 12
M  V30 12 1 12 13
M  V30 13 2 6 14
M  V30 14 1 14 15
M  V30 15 1 15 16
M  V30 16 2 16 17
M  V30 17 1 17 18
M  V30 18 2 18 19
M  V30 19 1 19 20
M  V30 20 1 19 21
M  V30 21 1 21 22
M  V30 22 2 21 23
M  V30 23 1 14 2
M  V30 24 1 23 16
M  V30 25 1 12 7
M  V30 26 1 3 24
M  V30 27 1 8 25
M  V30 28 1 9 26
M  V30 29 1 10 27
M  V30 30 1 11 28
M  V30 31 1 15 29
M  V30 32 1 17 30
M  V30 33 1 18 31
M  V30 34 1 20 32
M  V30 35 1 23 33
M  V30 END BOND
M  V30 END CTAB
M  END
>  <Dataset>  (800) 
ChEMBL_Kinases

>  <Ligand_Instance>  (800) 
nan

>  <PDB_ID>  (800) 
nan

>  <Standardized_SMILES>  (800) 
O=C1NC(=O)C(c2ccccc2Cl)=C1Nc1ccc(O)c(Cl)c1

>  <Name>  (800) 
nan

>  <Pocket>  (800) 
nan

>  <ATP_Site>  (800) 
nan

>  <Peripheral>  (800) 
nan

>  <Num_H_Atoms_ProtBoundConf>  (800) 
nan

>  <Num_Resolved_Atoms>  (800) 
nan

>  <Num_Not_Resolved_Atoms>  (800) 
nan

$$$$
CHEMBL4799290
     RDKit          3D

  0  0  0  0  0  0  0  0  0  0999 V3000
M  V30 BEGIN CTAB
M  V30 COUNTS 57 62 0 0 0
M  V30 BEGIN ATOM
M  V30 1 C 2.703698 -3.017433 4.239152 0
M  V30 2 C 3.492006 -2.113701 3.279896 0
M  V30 3 C 4.168729 -2.960200 2.218181 0
M  V30 4 N 2.558640 -1.234649 2.651708 0
M  V30 5 C 2.985845 -0.229508 1.732059 0
M  V30 6 C 4.316632 -0.048968 1.417007 0
M  V30 7 N 4.756542 0.886012 0.551466 0
M  V30 8 C 3.879224 1.703835 -0.055731 0
M  V30 9 C 2.526768 1.599869 0.195392 0
M  V30 10 C 1.482844 2.446765 -0.417563 0
M  V30 11 C 1.675816 3.783021 -0.785024 0
M  V30 12 N 0.669759 4.481213 -1.341471 0
M  V30 13 C -0.542174 3.942830 -1.566922 0
M  V30 14 N -1.712329 4.348394 -2.083319 0
M  V30 15 N -2.596610 3.383073 -2.063597 0
M  V30 16 C -2.101459 2.251069 -1.535154 0
M  V30 17 C -2.822345 1.028436 -1.378840 0
M  V30 18 C -2.575456 -0.227876 -0.890847 0
M  V30 19 C -3.665643 -1.066460 -0.979317 0
M  V30 20 C -3.838510 -2.401094 -0.603718 0
M  V30 21 C -2.719461 -3.124602 -0.001400 0
M  V30 22 C -2.343514 -3.252369 1.318741 0
M  V30 23 C -1.231144 -3.997956 1.627605 0
M  V30 24 C -0.477683 -4.622712 0.665286 0
M  V30 25 C -0.839108 -4.506192 -0.665896 0
M  V30 26 C -1.957858 -3.756918 -0.982416 0
M  V30 27 F -2.196445 -3.728231 -2.329698 0
M  V30 28 C -5.091705 -2.971753 -0.832126 0
M  V30 29 C -6.050201 -2.157997 -1.412007 0
M  V30 30 N -5.838241 -0.880315 -1.756130 0
M  V30 31 C -4.646684 -0.289507 -1.554545 0
M  V30 32 N -4.114494 0.924827 -1.771861 0
M  V30 33 C -0.814348 2.614280 -1.228164 0
M  V30 34 C 0.231189 1.921704 -0.660426 0
M  V30 35 C 2.101047 0.617885 1.100139 0
M  V30 36 H 1.616397 -2.747911 4.247544 0
M  V30 37 H 3.048224 -2.836619 5.273153 0
M  V30 38 H 2.771695 -4.073778 3.963602 0
M  V30 39 H 4.220707 -1.528152 3.866307 0
M  V30 40 H 3.875557 -2.610451 1.218660 0
M  V30 41 H 5.242470 -2.972159 2.429521 0
M  V30 42 H 3.748024 -3.991803 2.317562 0
M  V30 43 H 1.518034 -1.285487 2.835250 0
M  V30 44 H 5.092337 -0.654790 1.854966 0
M  V30 45 H 4.135938 2.466502 -0.749624 0
M  V30 46 H 2.660504 4.202485 -0.596112 0
M  V30 47 H -1.906531 5.304022 -2.455482 0
M  V30 48 H -1.649190 -0.544191 -0.482756 0
M  V30 49 H -3.010789 -2.718621 1.977667 0
M  V30 50 H -0.995963 -4.055694 2.669620 0
M  V30 51 H 0.378159 -5.189985 0.966642 0
M  V30 52 H -0.213514 -5.016338 -1.380353 0
M  V30 53 H -5.241830 -3.999341 -0.548587 0
M  V30 54 H -6.994331 -2.629646 -1.570445 0
M  V30 55 H -4.754270 1.639124 -2.214528 0
M  V30 56 H 0.087465 0.911473 -0.382710 0
M  V30 57 H 1.059592 0.472833 1.350735 0
M  V30 END ATOM
M  V30 BEGIN BOND
M  V30 1 1 1 2
M  V30 2 1 2 3
M  V30 3 1 2 4
M  V30 4 1 4 5
M  V30 5 2 5 6
M  V30 6 1 6 7
M  V30 7 2 7 8
M  V30 8 1 8 9
M  V30 9 1 9 10
M  V30 10 2 10 11
M  V30 11 1 11 12
M  V30 12 2 12 13
M  V30 13 1 13 14
M  V30 14 1 14 15
M  V30 15 2 15 16
M  V30 16 1 16 17
M  V30 17 2 17 18
M  V30 18 1 18 19
M  V30 19 2 19 20
M  V30 20 1 20 21
M  V30 21 2 21 22
M  V30 22 1 22 23
M  V30 23 2 23 24
M  V30 24 1 24 25
M  V30 25 2 25 26
M  V30 26 1 26 27
M  V30 27 1 20 28
M  V30 28 2 28 29
M  V30 29 1 29 30
M  V30 30 2 30 31
M  V30 31 1 31 32
M  V30 32 1 16 33
M  V30 33 2 33 34
M  V30 34 2 9 35
M  V30 35 1 35 5
M  V30 36 1 34 10
M  V30 37 1 33 13
M  V30 38 1 32 17
M  V30 39 1 31 19
M  V30 40 1 26 21
M  V30 41 1 1 36
M  V30 42 1 1 37
M  V30 43 1 1 38
M  V30 44 1 2 39
M  V30 45 1 3 40
M  V30 46 1 3 41
M  V30 47 1 3 42
M  V30 48 1 4 43
M  V30 49 1 6 44
M  V30 50 1 8 45
M  V30 51 1 11 46
M  V30 52 1 14 47
M  V30 53 1 18 48
M  V30 54 1 22 49
M  V30 55 1 23 50
M  V30 56 1 24 51
M  V30 57 1 25 52
M  V30 58 1 28 53
M  V30 59 1 29 54
M  V30 60 1 32 55
M  V30 61 1 34 56
M  V30 62 1 35 57
M  V30 END BOND
M  V30 END CTAB
M  END
>  <Dataset>  (801) 
ChEMBL_Kinases

>  <Ligand_Instance>  (801) 
nan

>  <PDB_ID>  (801) 
nan

>  <Standardized_SMILES>  (801) 
CC(C)Nc1cncc(-c2cnc3[nH]nc(-c4cc5c(-c6ccccc6F)ccnc5[nH]4)c3c2)c1

>  <Name>  (801) 
nan

>  <Pocket>  (801) 
nan

>  <ATP_Site>  (801) 
nan

>  <Peripheral>  (801) 
nan

>  <Num_H_Atoms_ProtBoundConf>  (801) 
nan

>  <Num_Resolved_Atoms>  (801) 
nan

>  <Num_Not_Resolved_Atoms>  (801) 
nan

$$$$
CHEMBL157089
     RDKit          3D

  0  0  0  0  0  0  0  0  0  0999 V3000
M  V30 BEGIN CTAB
M  V30 COUNTS 37 39 0 0 0
M  V30 BEGIN ATOM
M  V30 1 C -0.320996 -4.433258 2.507022 0
M  V30 2 O -0.279702 -3.489029 1.486957 0
M  V30 3 C 0.804937 -2.818677 0.996132 0
M  V30 4 C 2.057777 -3.030783 1.503862 0
M  V30 5 C 3.174121 -2.362920 1.022893 0
M  V30 6 C 2.957949 -1.465799 -0.002242 0
M  V30 7 C 1.697548 -1.242792 -0.524155 0
M  V30 8 C 0.587349 -1.918948 -0.032517 0
M  V30 9 C -0.703220 -1.619185 -0.646827 0
M  V30 10 C -1.172702 -0.442112 -1.085593 0
M  V30 11 N -0.558579 0.835084 -1.079597 0
M  V30 12 C -0.103045 1.632388 -0.022963 0
M  V30 13 C 0.464371 2.865488 -0.251847 0
M  V30 14 C 0.901555 3.620043 0.812293 0
M  V30 15 C 0.815204 3.230203 2.134494 0
M  V30 16 O 1.302883 4.109219 3.085775 0
M  V30 17 C 0.244876 1.993174 2.353614 0
M  V30 18 Cl 0.128047 1.483995 4.025508 0
M  V30 19 C -0.199247 1.222661 1.292831 0
M  V30 20 C -2.530486 -0.664656 -1.626064 0
M  V30 21 O -3.279732 0.227970 -2.128554 0
M  V30 22 N -2.868779 -2.062707 -1.490994 0
M  V30 23 C -1.710158 -2.648272 -0.874059 0
M  V30 24 O -1.760709 -3.884009 -0.647665 0
M  V30 25 H 0.500854 -4.301247 3.211603 0
M  V30 26 H -1.322675 -4.335180 3.016125 0
M  V30 27 H -0.280850 -5.480126 2.082792 0
M  V30 28 H 2.239995 -3.731116 2.308066 0
M  V30 29 H 4.154496 -2.550548 1.443118 0
M  V30 30 H 3.819622 -0.928351 -0.396034 0
M  V30 31 H 1.569326 -0.521772 -1.339583 0
M  V30 32 H -0.460354 1.178544 -2.063566 0
M  V30 33 H 0.532595 3.170792 -1.284203 0
M  V30 34 H 1.331125 4.577684 0.491384 0
M  V30 35 H 2.277706 4.022425 3.400343 0
M  V30 36 H -0.629071 0.268125 1.569765 0
M  V30 37 H -3.784386 -2.462729 -1.805144 0
M  V30 END ATOM
M  V30 BEGIN BOND
M  V30 1 1 1 2
M  V30 2 1 2 3
M  V30 3 2 3 4
M  V30 4 1 4 5
M  V30 5 2 5 6
M  V30 6 1 6 7
M  V30 7 2 7 8
M  V30 8 1 8 9
M  V30 9 2 9 10
M  V30 10 1 10 11
M  V30 11 1 11 12
M  V30 12 2 12 13
M  V30 13 1 13 14
M  V30 14 2 14 15
M  V30 15 1 15 16
M  V30 16 1 15 17
M  V30 17 1 17 18
M  V30 18 2 17 19
M  V30 19 1 10 20
M  V30 20 2 20 21
M  V30 21 1 20 22
M  V30 22 1 22 23
M  V30 23 2 23 24
M  V30 24 1 8 3
M  V30 25 1 23 9
M  V30 26 1 19 12
M  V30 27 1 1 25
M  V30 28 1 1 26
M  V30 29 1 1 27
M  V30 30 1 4 28
M  V30 31 1 5 29
M  V30 32 1 6 30
M  V30 33 1 7 31
M  V30 34 1 11 32
M  V30 35 1 13 33
M  V30 36 1 14 34
M  V30 37 1 16 35
M  V30 38 1 19 36
M  V30 39 1 22 37
M  V30 END BOND
M  V30 END CTAB
M  END
>  <Dataset>  (802) 
ChEMBL_Kinases

>  <Ligand_Instance>  (802) 
nan

>  <PDB_ID>  (802) 
nan

>  <Standardized_SMILES>  (802) 
COc1ccccc1C1=C(Nc2ccc(O)c(Cl)c2)C(=O)NC1=O

>  <Name>  (802) 
nan

>  <Pocket>  (802) 
nan

>  <ATP_Site>  (802) 
nan

>  <Peripheral>  (802) 
nan

>  <Num_H_Atoms_ProtBoundConf>  (802) 
nan

>  <Num_Resolved_Atoms>  (802) 
nan

>  <Num_Not_Resolved_Atoms>  (802) 
nan

$$$$
CHEMBL4876360
     RDKit          3D

  0  0  0  0  0  0  0  0  0  0999 V3000
M  V30 BEGIN CTAB
M  V30 COUNTS 54 56 0 0 0
M  V30 BEGIN ATOM
M  V30 1 C 4.685716 2.755964 3.210613 0
M  V30 2 N 4.413454 1.332875 3.214888 0
M  V30 3 C 4.479696 0.493129 2.051975 0
M  V30 4 O 4.800832 1.012103 0.930983 0
M  V30 5 C 4.144664 -0.940540 2.334333 0 CFG=1
M  V30 6 C 2.713483 -0.976108 2.873310 0
M  V30 7 C 1.830524 -0.730840 1.645545 0
M  V30 8 C 1.705632 -2.010731 0.862741 0 CFG=1
M  V30 9 N 1.340355 -1.867051 -0.504595 0
M  V30 10 C 0.285295 -1.268469 -1.217400 0
M  V30 11 C -0.755147 -0.512089 -0.807026 0
M  V30 12 C -1.793439 -0.000270 -1.477894 0
M  V30 13 N -2.883719 0.779722 -1.076716 0
M  V30 14 C -4.113659 0.938412 -0.357938 0
M  V30 15 C -5.008214 -0.240218 -0.400410 0
M  V30 16 C -5.892472 -0.319412 -1.447017 0
M  V30 17 N -6.721191 -1.373929 -1.613566 0
M  V30 18 C -6.712443 -2.411453 -0.740541 0
M  V30 19 C -5.821007 -2.312320 0.298069 0
M  V30 20 C -4.942964 -1.252171 0.522853 0
M  V30 21 C -4.062270 -1.225606 1.693247 0
M  V30 22 F -4.318238 -0.114187 2.504321 0
M  V30 23 F -2.748533 -1.413521 1.453978 0
M  V30 24 F -4.453438 -2.305847 2.522649 0
M  V30 25 N -1.786559 -0.301254 -2.819393 0
M  V30 26 C -0.821259 -1.039041 -3.372095 0
M  V30 27 C 0.190546 -1.512761 -2.599139 0
M  V30 28 C 1.158732 -2.313769 -3.264279 0
M  V30 29 N 1.966860 -2.968423 -3.795008 0
M  V30 30 C 3.029447 -2.734328 1.037361 0
M  V30 31 C 4.150275 -1.714414 1.039465 0
M  V30 32 H 4.901465 3.126546 2.183489 0
M  V30 33 H 3.714750 3.247239 3.507028 0
M  V30 34 H 5.502458 3.017876 3.913768 0
M  V30 35 H 4.175563 1.060136 4.193113 0
M  V30 36 H 4.851846 -1.397399 3.047527 0
M  V30 37 H 2.468105 -1.878830 3.424863 0
M  V30 38 H 2.617838 -0.052084 3.498667 0
M  V30 39 H 2.334892 0.042318 1.048220 0
M  V30 40 H 0.830394 -0.392039 1.990660 0
M  V30 41 H 0.934263 -2.659301 1.345662 0
M  V30 42 H 2.066462 -2.339318 -1.098925 0
M  V30 43 H -0.743171 -0.255839 0.256139 0
M  V30 44 H -2.665182 1.726111 -1.533206 0
M  V30 45 H -4.679094 1.830883 -0.722826 0
M  V30 46 H -3.811368 1.176531 0.704193 0
M  V30 47 H -6.007710 0.447245 -2.229361 0
M  V30 48 H -7.334963 -3.300678 -0.785927 0
M  V30 49 H -5.782368 -3.127815 1.026006 0
M  V30 50 H -0.870123 -1.237134 -4.434426 0
M  V30 51 H 3.012744 -3.239506 2.016793 0
M  V30 52 H 3.205490 -3.516294 0.266180 0
M  V30 53 H 3.988522 -1.036192 0.175208 0
M  V30 54 H 5.119184 -2.219368 0.912538 0
M  V30 END ATOM
M  V30 BEGIN BOND
M  V30 1 1 1 2
M  V30 2 1 2 3
M  V30 3 2 3 4
M  V30 4 1 3 5
M  V30 5 1 5 6
M  V30 6 1 6 7
M  V30 7 1 7 8
M  V30 8 1 8 9
M  V30 9 1 9 10
M  V30 10 2 10 11
M  V30 11 1 11 12
M  V30 12 1 12 13
M  V30 13 1 13 14
M  V30 14 1 14 15
M  V30 15 2 15 16
M  V30 16 1 16 17
M  V30 17 2 17 18
M  V30 18 1 18 19
M  V30 19 2 19 20
M  V30 20 1 20 21
M  V30 21 1 21 22
M  V30 22 1 21 23
M  V30 23 1 21 24
M  V30 24 2 12 25
M  V30 25 1 25 26
M  V30 26 2 26 27
M  V30 27 1 27 28
M  V30 28 3 28 29
M  V30 29 1 8 30
M  V30 30 1 30 31
M  V30 31 1 31 5
M  V30 32 1 27 10
M  V30 33 1 20 15
M  V30 34 1 1 32
M  V30 35 1 1 33
M  V30 36 1 1 34
M  V30 37 1 2 35
M  V30 38 1 5 36 CFG=1
M  V30 39 1 6 37
M  V30 40 1 6 38
M  V30 41 1 7 39
M  V30 42 1 7 40
M  V30 43 1 8 41 CFG=1
M  V30 44 1 9 42
M  V30 45 1 11 43
M  V30 46 1 13 44
M  V30 47 1 14 45
M  V30 48 1 14 46
M  V30 49 1 16 47
M  V30 50 1 18 48
M  V30 51 1 19 49
M  V30 52 1 26 50
M  V30 53 1 30 51
M  V30 54 1 30 52
M  V30 55 1 31 53
M  V30 56 1 31 54
M  V30 END BOND
M  V30 END CTAB
M  END
>  <Dataset>  (803) 
ChEMBL_Kinases

>  <Ligand_Instance>  (803) 
nan

>  <PDB_ID>  (803) 
nan

>  <Standardized_SMILES>  (803) 
CNC(=O)[C@H]1CC[C@@H](Nc2cc(NCc3cnccc3C(F)(F)F)ncc2C#N)CC1

>  <Name>  (803) 
nan

>  <Pocket>  (803) 
nan

>  <ATP_Site>  (803) 
nan

>  <Peripheral>  (803) 
nan

>  <Num_H_Atoms_ProtBoundConf>  (803) 
nan

>  <Num_Resolved_Atoms>  (803) 
nan

>  <Num_Not_Resolved_Atoms>  (803) 
nan

$$$$
CHEMBL4799580
     RDKit          3D

  0  0  0  0  0  0  0  0  0  0999 V3000
M  V30 BEGIN CTAB
M  V30 COUNTS 53 55 0 0 0
M  V30 BEGIN ATOM
M  V30 1 C -1.309248 -1.688299 4.632268 0
M  V30 2 C -0.659025 -1.050305 3.431887 0
M  V30 3 N 0.608478 -0.545676 3.444809 0
M  V30 4 C 1.000331 -0.028193 2.289168 0
M  V30 5 C 2.294934 0.591722 2.131601 0
M  V30 6 C 3.299991 0.358615 1.327636 0
M  V30 7 C 3.279716 -0.704717 0.335727 0
M  V30 8 O 2.356677 -1.519219 0.135142 0
M  V30 9 N 4.521391 -0.621316 -0.345124 0
M  V30 10 C 5.257434 0.455337 0.222916 0
M  V30 11 C 6.524614 0.901143 -0.127783 0
M  V30 12 C 7.081338 1.976033 0.550825 0
M  V30 13 C 6.347164 2.564884 1.556668 0
M  V30 14 F 6.849415 3.624666 2.255686 0
M  V30 15 C 5.083634 2.153291 1.937505 0
M  V30 16 C 4.562930 1.080806 1.239113 0
M  V30 17 C -0.103236 -0.206044 1.443865 0
M  V30 18 C -0.193223 0.237338 0.052591 0
M  V30 19 C -1.101388 -0.826478 2.145896 0
M  V30 20 C -2.446394 -1.243033 1.770523 0
M  V30 21 O -3.194476 -1.752808 2.679365 0
M  V30 22 N -3.149499 -1.197299 0.511654 0
M  V30 23 C -4.434006 -1.742384 0.762290 0
M  V30 24 C -5.320093 -1.801105 -0.449500 0
M  V30 25 C -4.743582 -2.653539 -1.541377 0
M  V30 26 N -3.546450 -2.152124 -2.026225 0
M  V30 27 C -3.565629 -0.957259 -2.786468 0
M  V30 28 C -2.403857 -2.975293 -2.092417 0
M  V30 29 H -2.020777 -0.970596 5.096900 0
M  V30 30 H -0.543418 -1.932186 5.379477 0
M  V30 31 H -1.823221 -2.641910 4.321418 0
M  V30 32 H 1.201681 -0.582113 4.329217 0
M  V30 33 H 2.451629 1.426427 2.833365 0
M  V30 34 H 4.765256 -1.276358 -1.114343 0
M  V30 35 H 7.110773 0.449705 -0.913194 0
M  V30 36 H 8.062147 2.345730 0.302672 0
M  V30 37 H 4.519105 2.624530 2.729181 0
M  V30 38 H -0.985541 0.999593 -0.098125 0
M  V30 39 H 0.773902 0.779479 -0.193979 0
M  V30 40 H -0.214295 -0.600449 -0.669138 0
M  V30 41 H -2.516567 -0.783711 -0.198726 0
M  V30 42 H -4.971814 -1.185155 1.579121 0
M  V30 43 H -4.399045 -2.794933 1.156352 0
M  V30 44 H -5.460040 -0.766343 -0.852602 0
M  V30 45 H -6.322305 -2.211226 -0.190429 0
M  V30 46 H -4.566469 -3.657094 -1.095635 0
M  V30 47 H -5.513030 -2.846329 -2.342299 0
M  V30 48 H -4.069965 -1.163949 -3.757219 0
M  V30 49 H -2.497894 -0.710616 -3.037210 0
M  V30 50 H -4.079321 -0.167993 -2.235689 0
M  V30 51 H -1.568535 -2.598037 -1.466013 0
M  V30 52 H -2.024370 -2.995220 -3.143714 0
M  V30 53 H -2.619760 -4.033974 -1.840022 0
M  V30 END ATOM
M  V30 BEGIN BOND
M  V30 1 1 1 2
M  V30 2 1 2 3
M  V30 3 1 3 4
M  V30 4 1 4 5
M  V30 5 2 5 6
M  V30 6 1 6 7
M  V30 7 2 7 8
M  V30 8 1 7 9
M  V30 9 1 9 10
M  V30 10 2 10 11
M  V30 11 1 11 12
M  V30 12 2 12 13
M  V30 13 1 13 14
M  V30 14 1 13 15
M  V30 15 2 15 16
M  V30 16 2 4 17
M  V30 17 1 17 18
M  V30 18 1 17 19
M  V30 19 1 19 20
M  V30 20 2 20 21
M  V30 21 1 20 22
M  V30 22 1 22 23
M  V30 23 1 23 24
M  V30 24 1 24 25
M  V30 25 1 25 26
M  V30 26 1 26 27
M  V30 27 1 26 28
M  V30 28 2 19 2
M  V30 29 1 16 6
M  V30 30 1 16 10
M  V30 31 1 1 29
M  V30 32 1 1 30
M  V30 33 1 1 31
M  V30 34 1 3 32
M  V30 35 1 5 33
M  V30 36 1 9 34
M  V30 37 1 11 35
M  V30 38 1 12 36
M  V30 39 1 15 37
M  V30 40 1 18 38
M  V30 41 1 18 39
M  V30 42 1 18 40
M  V30 43 1 22 41
M  V30 44 1 23 42
M  V30 45 1 23 43
M  V30 46 1 24 44
M  V30 47 1 24 45
M  V30 48 1 25 46
M  V30 49 1 25 47
M  V30 50 1 27 48
M  V30 51 1 27 49
M  V30 52 1 27 50
M  V30 53 1 28 51
M  V30 54 1 28 52
M  V30 55 1 28 53
M  V30 END BOND
M  V30 END CTAB
M  END
>  <Dataset>  (804) 
ChEMBL_Kinases

>  <Ligand_Instance>  (804) 
nan

>  <PDB_ID>  (804) 
nan

>  <Standardized_SMILES>  (804) 
Cc1[nH]c(/C=C2\C(=O)Nc3ccc(F)cc32)c(C)c1C(=O)NCCCN(C)C

>  <Name>  (804) 
nan

>  <Pocket>  (804) 
nan

>  <ATP_Site>  (804) 
nan

>  <Peripheral>  (804) 
nan

>  <Num_H_Atoms_ProtBoundConf>  (804) 
nan

>  <Num_Resolved_Atoms>  (804) 
nan

>  <Num_Not_Resolved_Atoms>  (804) 
nan

$$$$
CHEMBL4799631
     RDKit          3D

  0  0  0  0  0  0  0  0  0  0999 V3000
M  V30 BEGIN CTAB
M  V30 COUNTS 68 70 0 0 0
M  V30 BEGIN ATOM
M  V30 1 C 5.809155 -3.611259 1.825545 0
M  V30 2 C 5.211773 -2.679035 0.778481 0
M  V30 3 N 6.188747 -2.012529 0.007706 0
M  V30 4 C 7.001078 -1.075723 0.687954 0
M  V30 5 C 6.201385 0.111948 1.130430 0
M  V30 6 C 5.994728 -1.852966 -1.375872 0
M  V30 7 C 4.931036 -0.866477 -1.716076 0
M  V30 8 N 3.652121 -1.192949 -1.186588 0
M  V30 9 C 2.767743 -0.142927 -1.639067 0
M  V30 10 O 3.404086 0.701515 -2.350454 0
M  V30 11 C 1.348398 0.112181 -1.438955 0
M  V30 12 C 0.736708 1.146217 -2.102067 0
M  V30 13 C 1.240788 2.153565 -3.078239 0
M  V30 14 N -0.562995 1.110733 -1.687038 0
M  V30 15 C -0.847615 0.158102 -0.824828 0
M  V30 16 C -2.047352 -0.286994 -0.138556 0
M  V30 17 C -3.245348 -0.550510 -0.584139 0
M  V30 18 C -3.616354 -0.436144 -1.982697 0
M  V30 19 O -2.879129 -0.105356 -2.913611 0
M  V30 20 N -4.987567 -0.783540 -2.047895 0
M  V30 21 C -5.441408 -1.100381 -0.733592 0
M  V30 22 C -6.692368 -1.496238 -0.244245 0
M  V30 23 C -6.897451 -1.750857 1.112082 0
M  V30 24 C -5.842728 -1.613671 2.023591 0
M  V30 25 C -5.971647 -1.912801 3.444137 0
M  V30 26 C -6.540571 -0.813321 4.268016 0
M  V30 27 O -5.821431 0.366330 4.215049 0
M  V30 28 C -5.734660 1.271048 3.199839 0
M  V30 29 C -4.828014 2.405221 3.523098 0
M  V30 30 O -6.310771 1.236398 2.092951 0
M  V30 31 C -4.584158 -1.216506 1.537752 0
M  V30 32 C -4.405668 -0.970614 0.192435 0
M  V30 33 C 0.386521 -0.489458 -0.661620 0
M  V30 34 C 0.629850 -1.655710 0.228058 0
M  V30 35 H 4.967603 -3.860764 2.514566 0
M  V30 36 H 6.600213 -3.157792 2.423290 0
M  V30 37 H 6.069259 -4.573108 1.337527 0
M  V30 38 H 4.577573 -3.371475 0.154055 0
M  V30 39 H 4.544881 -1.971947 1.281608 0
M  V30 40 H 7.765976 -0.703649 -0.057065 0
M  V30 41 H 7.608537 -1.513162 1.512858 0
M  V30 42 H 6.406391 0.360298 2.204176 0
M  V30 43 H 5.122542 -0.078355 0.984826 0
M  V30 44 H 6.437979 1.003100 0.482711 0
M  V30 45 H 5.703587 -2.832384 -1.866817 0
M  V30 46 H 6.981571 -1.581317 -1.835261 0
M  V30 47 H 4.923151 -0.803106 -2.839396 0
M  V30 48 H 5.256026 0.145940 -1.376217 0
M  V30 49 H 3.067080 -1.845101 -0.625435 0
M  V30 50 H 1.946860 2.862105 -2.597929 0
M  V30 51 H 0.435175 2.725893 -3.529094 0
M  V30 52 H 1.844804 1.585118 -3.842377 0
M  V30 53 H -1.275569 1.803424 -2.021412 0
M  V30 54 H -1.906275 -0.420433 0.948068 0
M  V30 55 H -5.526196 -0.789209 -2.937765 0
M  V30 56 H -7.526315 -1.609770 -0.923786 0
M  V30 57 H -7.879428 -2.057525 1.472735 0
M  V30 58 H -4.957091 -2.231303 3.816826 0
M  V30 59 H -6.633460 -2.834442 3.519815 0
M  V30 60 H -7.609438 -0.580492 3.944764 0
M  V30 61 H -6.571264 -1.187104 5.323770 0
M  V30 62 H -4.866646 2.710070 4.590290 0
M  V30 63 H -5.088231 3.245127 2.851014 0
M  V30 64 H -3.759759 2.149182 3.320525 0
M  V30 65 H -3.709189 -1.088266 2.189357 0
M  V30 66 H 0.854652 -2.589130 -0.296257 0
M  V30 67 H 1.416888 -1.420403 0.971476 0
M  V30 68 H -0.285995 -1.828178 0.877736 0
M  V30 END ATOM
M  V30 BEGIN BOND
M  V30 1 1 1 2
M  V30 2 1 2 3
M  V30 3 1 3 4
M  V30 4 1 4 5
M  V30 5 1 3 6
M  V30 6 1 6 7
M  V30 7 1 7 8
M  V30 8 1 8 9
M  V30 9 2 9 10
M  V30 10 1 9 11
M  V30 11 2 11 12
M  V30 12 1 12 13
M  V30 13 1 12 14
M  V30 14 1 14 15
M  V30 15 1 15 16
M  V30 16 2 16 17
M  V30 17 1 17 18
M  V30 18 2 18 19
M  V30 19 1 18 20
M  V30 20 1 20 21
M  V30 21 2 21 22
M  V30 22 1 22 23
M  V30 23 2 23 24
M  V30 24 1 24 25
M  V30 25 1 25 26
M  V30 26 1 26 27
M  V30 27 1 27 28
M  V30 28 1 28 29
M  V30 29 2 28 30
M  V30 30 1 24 31
M  V30 31 2 31 32
M  V30 32 2 15 33
M  V30 33 1 33 34
M  V30 34 1 33 11
M  V30 35 1 32 17
M  V30 36 1 32 21
M  V30 37 1 1 35
M  V30 38 1 1 36
M  V30 39 1 1 37
M  V30 40 1 2 38
M  V30 41 1 2 39
M  V30 42 1 4 40
M  V30 43 1 4 41
M  V30 44 1 5 42
M  V30 45 1 5 43
M  V30 46 1 5 44
M  V30 47 1 6 45
M  V30 48 1 6 46
M  V30 49 1 7 47
M  V30 50 1 7 48
M  V30 51 1 8 49
M  V30 52 1 13 50
M  V30 53 1 13 51
M  V30 54 1 13 52
M  V30 55 1 14 53
M  V30 56 1 16 54
M  V30 57 1 20 55
M  V30 58 1 22 56
M  V30 59 1 23 57
M  V30 60 1 25 58
M  V30 61 1 25 59
M  V30 62 1 26 60
M  V30 63 1 26 61
M  V30 64 1 29 62
M  V30 65 1 29 63
M  V30 66 1 29 64
M  V30 67 1 31 65
M  V30 68 1 34 66
M  V30 69 1 34 67
M  V30 70 1 34 68
M  V30 END BOND
M  V30 END CTAB
M  END
>  <Dataset>  (805) 
ChEMBL_Kinases

>  <Ligand_Instance>  (805) 
nan

>  <PDB_ID>  (805) 
nan

>  <Standardized_SMILES>  (805) 
CCN(CC)CCNC(=O)c1c(C)[nH]c(/C=C2\C(=O)Nc3ccc(CCOC(C)=O)cc32)c1C

>  <Name>  (805) 
nan

>  <Pocket>  (805) 
nan

>  <ATP_Site>  (805) 
nan

>  <Peripheral>  (805) 
nan

>  <Num_H_Atoms_ProtBoundConf>  (805) 
nan

>  <Num_Resolved_Atoms>  (805) 
nan

>  <Num_Not_Resolved_Atoms>  (805) 
nan

$$$$
CHEMBL4799177
     RDKit          3D

  0  0  0  0  0  0  0  0  0  0999 V3000
M  V30 BEGIN CTAB
M  V30 COUNTS 68 73 0 0 0
M  V30 BEGIN ATOM
M  V30 1 N -2.657399 -2.626261 3.028627 0
M  V30 2 C -1.497775 -1.825316 3.364429 0 CFG=1
M  V30 3 C -0.270240 -2.596222 2.947196 0
M  V30 4 C 0.974699 -1.795545 3.262570 0
M  V30 5 C 0.887480 -0.562159 2.368342 0 CFG=2
M  V30 6 N 2.058724 0.194451 2.223822 0
M  V30 7 C 2.850716 1.208336 1.681799 0
M  V30 8 C 4.157264 1.489850 2.083757 0
M  V30 9 N 4.751494 0.713413 3.114864 0 CHG=1 VAL=4
M  V30 10 O 4.566641 0.072482 4.148232 0
M  V30 11 O 6.118291 0.501031 3.078261 0 CHG=-1 VAL=1
M  V30 12 C 4.919569 2.483612 1.543826 0
M  V30 13 N 4.369018 3.216215 0.579602 0
M  V30 14 C 3.138482 3.035209 0.121600 0
M  V30 15 C 2.747036 3.883562 -0.877256 0
M  V30 16 C 1.461241 3.726221 -1.395432 0
M  V30 17 C 0.642806 2.717314 -0.872764 0
M  V30 18 C -0.659334 2.648513 -1.477970 0
M  V30 19 C -1.474548 3.744620 -1.684958 0
M  V30 20 N -2.641521 3.441947 -2.258084 0
M  V30 21 C -2.607211 2.109660 -2.439494 0
M  V30 22 N -3.468282 1.220182 -2.964370 0
M  V30 23 C -3.154430 -0.107363 -3.021983 0
M  V30 24 C -1.963125 -0.636085 -2.561051 0
M  V30 25 C -1.763904 -2.073763 -2.693373 0
M  V30 26 O -2.687563 -2.728443 -3.230657 0
M  V30 27 N -0.592982 -2.733500 -2.247187 0
M  V30 28 C -0.296479 -4.150656 -2.331714 0
M  V30 29 C -1.066271 -4.857003 -1.276025 0
M  V30 30 C -2.322643 -5.393563 -1.459685 0
M  V30 31 C -2.983566 -6.033685 -0.435486 0
M  V30 32 C -2.434823 -6.177272 0.827991 0
M  V30 33 N -1.206484 -5.640480 0.968484 0
M  V30 34 C -0.537778 -5.011461 -0.009270 0
M  V30 35 C -1.067232 0.255407 -2.019617 0
M  V30 36 C -1.415505 1.596317 -1.975629 0
M  V30 37 C 1.137304 1.932533 0.120106 0
M  V30 38 C 2.391979 2.030679 0.679136 0
M  V30 39 C -0.268234 0.225763 2.989568 0
M  V30 40 C -1.526848 -0.514298 2.588546 0
M  V30 41 H -2.590786 -3.552662 3.506763 0
M  V30 42 H -3.499370 -2.156981 3.462200 0
M  V30 43 H -1.518619 -1.591364 4.436369 0
M  V30 44 H -0.353128 -2.795738 1.865394 0
M  V30 45 H -0.221857 -3.551034 3.508059 0
M  V30 46 H 0.902535 -1.426312 4.311437 0
M  V30 47 H 1.891093 -2.366148 3.134155 0
M  V30 48 H 0.519150 -0.935965 1.391643 0
M  V30 49 H 2.635325 -0.299452 2.923579 0
M  V30 50 H 5.919233 2.637964 1.907843 0
M  V30 51 H 3.385887 4.663013 -1.277999 0
M  V30 52 H 1.145511 4.391173 -2.183289 0
M  V30 53 H -1.227522 4.772001 -1.421830 0
M  V30 54 H -3.414115 4.096383 -2.511082 0
M  V30 55 H -3.951842 -0.687369 -3.471031 0
M  V30 56 H 0.141348 -2.130705 -1.807265 0
M  V30 57 H -0.579060 -4.528740 -3.341231 0
M  V30 58 H 0.760878 -4.361209 -2.168919 0
M  V30 59 H -2.800606 -5.322303 -2.402728 0
M  V30 60 H -3.991747 -6.448924 -0.627947 0
M  V30 61 H -2.997409 -6.685453 1.589491 0
M  V30 62 H 0.423807 -4.644220 0.265474 0
M  V30 63 H -0.139323 -0.119823 -1.655100 0
M  V30 64 H 0.469510 1.183688 0.462765 0
M  V30 65 H -0.253036 1.278712 2.722985 0
M  V30 66 H -0.225108 0.119694 4.113013 0
M  V30 67 H -2.443172 0.062803 2.801672 0
M  V30 68 H -1.413367 -0.766136 1.511593 0
M  V30 END ATOM
M  V30 BEGIN BOND
M  V30 1 1 1 2
M  V30 2 1 2 3
M  V30 3 1 3 4
M  V30 4 1 4 5
M  V30 5 1 5 6
M  V30 6 1 6 7
M  V30 7 2 7 8
M  V30 8 1 8 9
M  V30 9 2 9 10
M  V30 10 1 9 11
M  V30 11 1 8 12
M  V30 12 2 12 13
M  V30 13 1 13 14
M  V30 14 2 14 15
M  V30 15 1 15 16
M  V30 16 2 16 17
M  V30 17 1 17 18
M  V30 18 2 18 19
M  V30 19 1 19 20
M  V30 20 1 20 21
M  V30 21 2 21 22
M  V30 22 1 22 23
M  V30 23 2 23 24
M  V30 24 1 24 25
M  V30 25 2 25 26
M  V30 26 1 25 27
M  V30 27 1 27 28
M  V30 28 1 28 29
M  V30 29 2 29 30
M  V30 30 1 30 31
M  V30 31 2 31 32
M  V30 32 1 32 33
M  V30 33 2 33 34
M  V30 34 1 24 35
M  V30 35 2 35 36
M  V30 36 1 17 37
M  V30 37 2 37 38
M  V30 38 1 5 39
M  V30 39 1 39 40
M  V30 40 1 40 2
M  V30 41 1 38 7
M  V30 42 1 38 14
M  V30 43 1 36 18
M  V30 44 1 36 21
M  V30 45 1 34 29
M  V30 46 1 1 41
M  V30 47 1 1 42
M  V30 48 1 2 43 CFG=1
M  V30 49 1 3 44
M  V30 50 1 3 45
M  V30 51 1 4 46
M  V30 52 1 4 47
M  V30 53 1 5 48 CFG=3
M  V30 54 1 6 49
M  V30 55 1 12 50
M  V30 56 1 15 51
M  V30 57 1 16 52
M  V30 58 1 19 53
M  V30 59 1 20 54
M  V30 60 1 23 55
M  V30 61 1 27 56
M  V30 62 1 28 57
M  V30 63 1 28 58
M  V30 64 1 30 59
M  V30 65 1 31 60
M  V30 66 1 32 61
M  V30 67 1 34 62
M  V30 68 1 35 63
M  V30 69 1 37 64
M  V30 70 1 39 65
M  V30 71 1 39 66
M  V30 72 1 40 67
M  V30 73 1 40 68
M  V30 END BOND
M  V30 END CTAB
M  END
>  <Dataset>  (806) 
ChEMBL_Kinases

>  <Ligand_Instance>  (806) 
nan

>  <PDB_ID>  (806) 
nan

>  <Standardized_SMILES>  (806) 
N[C@H]1CC[C@H](Nc2c([N+](=O)[O-])cnc3ccc(-c4c[nH]c5ncc(C(=O)NCc6cccnc6)cc45)cc23)CC1

>  <Name>  (806) 
nan

>  <Pocket>  (806) 
nan

>  <ATP_Site>  (806) 
nan

>  <Peripheral>  (806) 
nan

>  <Num_H_Atoms_ProtBoundConf>  (806) 
nan

>  <Num_Resolved_Atoms>  (806) 
nan

>  <Num_Not_Resolved_Atoms>  (806) 
nan

$$$$
CHEMBL4877688
     RDKit          3D

  0  0  0  0  0  0  0  0  0  0999 V3000
M  V30 BEGIN CTAB
M  V30 COUNTS 47 50 0 0 0
M  V30 BEGIN ATOM
M  V30 1 C 4.093365 -5.567669 1.721264 0
M  V30 2 O 3.987740 -4.416483 0.933331 0
M  V30 3 C 2.844790 -4.086437 0.240148 0
M  V30 4 C 1.643554 -4.758133 0.169752 0
M  V30 5 C 0.591384 -4.262304 -0.592216 0
M  V30 6 C 0.795094 -3.079326 -1.271326 0
M  V30 7 C 1.988456 -2.362953 -1.233070 0
M  V30 8 C 2.074166 -1.102920 -2.011878 0
M  V30 9 N 1.637755 -0.008164 -1.142201 0
M  V30 10 C 2.632395 0.654925 -0.357150 0
M  V30 11 C 2.379977 0.707022 1.118026 0
M  V30 12 O 1.229288 1.378406 1.520923 0
M  V30 13 C -0.103280 1.343749 1.142739 0
M  V30 14 C -1.035970 1.838458 2.037894 0
M  V30 15 C -2.366903 1.810118 1.674080 0
M  V30 16 C -3.362286 2.329770 2.611542 0
M  V30 17 C -3.149712 2.221190 3.977532 0
M  V30 18 C -4.042368 2.687060 4.936978 0
M  V30 19 N -5.179124 3.278121 4.521029 0
M  V30 20 C -5.419242 3.401185 3.203320 0
M  V30 21 C -4.552705 2.948775 2.229623 0
M  V30 22 C -2.852674 1.324403 0.478807 0
M  V30 23 C -1.904897 0.833357 -0.405287 0
M  V30 24 C -0.550220 0.842911 -0.077874 0
M  V30 25 C 0.227404 0.265384 -1.193911 0
M  V30 26 O -0.342856 -0.015984 -2.266149 0
M  V30 27 C 3.010778 -2.892250 -0.461804 0
M  V30 28 H 4.697350 -6.353029 1.220242 0
M  V30 29 H 4.597500 -5.258147 2.676907 0
M  V30 30 H 3.128340 -6.009357 2.036479 0
M  V30 31 H 1.605693 -5.665764 0.739754 0
M  V30 32 H -0.330475 -4.814735 -0.622163 0
M  V30 33 H -0.060338 -2.735507 -1.852573 0
M  V30 34 H 3.119871 -0.952348 -2.341093 0
M  V30 35 H 1.357906 -1.146525 -2.853151 0
M  V30 36 H 3.586301 0.094698 -0.478943 0
M  V30 37 H 2.869372 1.690786 -0.739686 0
M  V30 38 H 2.481702 -0.316612 1.555619 0
M  V30 39 H 3.237689 1.287304 1.540537 0
M  V30 40 H -0.657859 2.210612 2.954884 0
M  V30 41 H -2.226383 1.741135 4.285635 0
M  V30 42 H -3.792713 2.558402 5.998844 0
M  V30 43 H -6.345492 3.882795 2.911689 0
M  V30 44 H -4.736477 3.042571 1.170939 0
M  V30 45 H -3.901134 1.333179 0.260968 0
M  V30 46 H -2.216317 0.435472 -1.364519 0
M  V30 47 H 3.901640 -2.281411 -0.482895 0
M  V30 END ATOM
M  V30 BEGIN BOND
M  V30 1 1 1 2
M  V30 2 1 2 3
M  V30 3 2 3 4
M  V30 4 1 4 5
M  V30 5 2 5 6
M  V30 6 1 6 7
M  V30 7 1 7 8
M  V30 8 1 8 9
M  V30 9 1 9 10
M  V30 10 1 10 11
M  V30 11 1 11 12
M  V30 12 1 12 13
M  V30 13 2 13 14
M  V30 14 1 14 15
M  V30 15 1 15 16
M  V30 16 2 16 17
M  V30 17 1 17 18
M  V30 18 2 18 19
M  V30 19 1 19 20
M  V30 20 2 20 21
M  V30 21 2 15 22
M  V30 22 1 22 23
M  V30 23 2 23 24
M  V30 24 1 24 25
M  V30 25 2 25 26
M  V30 26 2 7 27
M  V30 27 1 27 3
M  V30 28 1 25 9
M  V30 29 1 24 13
M  V30 30 1 21 16
M  V30 31 1 1 28
M  V30 32 1 1 29
M  V30 33 1 1 30
M  V30 34 1 4 31
M  V30 35 1 5 32
M  V30 36 1 6 33
M  V30 37 1 8 34
M  V30 38 1 8 35
M  V30 39 1 10 36
M  V30 40 1 10 37
M  V30 41 1 11 38
M  V30 42 1 11 39
M  V30 43 1 14 40
M  V30 44 1 17 41
M  V30 45 1 18 42
M  V30 46 1 20 43
M  V30 47 1 21 44
M  V30 48 1 22 45
M  V30 49 1 23 46
M  V30 50 1 27 47
M  V30 END BOND
M  V30 END CTAB
M  END
>  <Dataset>  (807) 
ChEMBL_Kinases

>  <Ligand_Instance>  (807) 
nan

>  <PDB_ID>  (807) 
nan

>  <Standardized_SMILES>  (807) 
COc1cccc(CN2CCOc3cc(-c4ccncc4)ccc3C2=O)c1

>  <Name>  (807) 
nan

>  <Pocket>  (807) 
nan

>  <ATP_Site>  (807) 
nan

>  <Peripheral>  (807) 
nan

>  <Num_H_Atoms_ProtBoundConf>  (807) 
nan

>  <Num_Resolved_Atoms>  (807) 
nan

>  <Num_Not_Resolved_Atoms>  (807) 
nan

$$$$
CHEMBL4796154
     RDKit          3D

  0  0  0  0  0  0  0  0  0  0999 V3000
M  V30 BEGIN CTAB
M  V30 COUNTS 65 68 0 0 0
M  V30 BEGIN ATOM
M  V30 1 C 1.039344 -2.981603 2.576306 0
M  V30 2 C 2.114822 -2.004232 2.276839 0
M  V30 3 C 3.433540 -2.277778 2.006444 0
M  V30 4 C 4.334254 -1.270297 1.744497 0
M  V30 5 C 3.985510 0.057302 1.733908 0
M  V30 6 C 4.855839 1.216529 1.466986 0
M  V30 7 C 4.910839 1.603720 0.002550 0 CFG=1
M  V30 8 C 5.432693 0.482637 -0.879210 0
M  V30 9 N 3.756434 2.267687 -0.484561 0
M  V30 10 C 2.843117 3.198118 -0.995424 0
M  V30 11 O 3.456238 4.299520 -1.194217 0
M  V30 12 C 1.431915 3.014857 -1.275811 0
M  V30 13 C 0.871918 4.107790 -1.890046 0
M  V30 14 C -0.496533 4.025294 -2.183530 0
M  V30 15 C -1.265452 2.895548 -1.873638 0
M  V30 16 C -0.564491 1.881460 -1.260029 0
M  V30 17 C 0.771327 1.863551 -0.930480 0
M  V30 18 C -1.590915 0.835867 -1.041553 0
M  V30 19 C -1.463597 -0.372991 -0.526233 0
M  V30 20 C -2.406244 -1.446140 -0.273193 0
M  V30 21 N -2.194377 -2.660162 -0.824974 0
M  V30 22 C -3.140272 -3.537413 -0.450875 0
M  V30 23 C -3.277771 -4.978791 -0.831831 0
M  V30 24 C -4.031376 -2.902736 0.387888 0
M  V30 25 N -5.203799 -3.372969 1.058158 0
M  V30 26 C -4.835161 -3.881660 2.342711 0
M  V30 27 O -3.664617 -3.932682 2.857931 0
M  V30 28 C -5.799566 -4.455194 3.321523 0
M  V30 29 Cl -7.462817 -4.430551 2.723133 0
M  V30 30 C -3.549460 -1.613453 0.477615 0
M  V30 31 C -4.160148 -0.551590 1.309699 0
M  V30 32 C -2.884137 1.269826 -1.541441 0
M  V30 33 O -3.981821 0.682667 -1.546628 0
M  V30 34 N -2.640023 2.576516 -2.059881 0
M  V30 35 C 2.634817 0.309434 2.012578 0
M  V30 36 C 1.712344 -0.677117 2.278705 0
M  V30 37 H 1.388327 -4.013272 2.713285 0
M  V30 38 H 0.275902 -2.917270 1.748000 0
M  V30 39 H 0.503588 -2.612618 3.484261 0
M  V30 40 H 3.710794 -3.312395 2.013132 0
M  V30 41 H 5.370641 -1.478925 1.533422 0
M  V30 42 H 5.856433 1.038812 1.871175 0
M  V30 43 H 4.447475 2.097743 2.010679 0
M  V30 44 H 5.750585 2.376853 -0.037108 0
M  V30 45 H 5.074618 0.687855 -1.929210 0
M  V30 46 H 6.530272 0.466153 -0.945062 0
M  V30 47 H 4.968043 -0.464907 -0.601757 0
M  V30 48 H 3.201310 1.357749 -0.342998 0
M  V30 49 H 1.421362 5.002183 -2.149993 0
M  V30 50 H -0.958356 4.873936 -2.668161 0
M  V30 51 H 1.240183 1.021877 -0.446643 0
M  V30 52 H -0.426336 -0.618873 -0.222773 0
M  V30 53 H -1.434371 -2.979314 -1.464799 0
M  V30 54 H -2.283443 -5.279743 -1.262477 0
M  V30 55 H -4.000226 -5.143116 -1.654796 0
M  V30 56 H -3.491198 -5.545092 0.077200 0
M  V30 57 H -6.221522 -3.433702 0.845796 0
M  V30 58 H -5.494038 -5.491379 3.579562 0
M  V30 59 H -5.787018 -3.884513 4.277253 0
M  V30 60 H -5.058652 -0.085715 0.848947 0
M  V30 61 H -4.420814 -0.940520 2.322253 0
M  V30 62 H -3.431571 0.266214 1.485458 0
M  V30 63 H -3.361717 3.182460 -2.498352 0
M  V30 64 H 2.293061 1.351045 2.019737 0
M  V30 65 H 0.683228 -0.370296 2.484844 0
M  V30 END ATOM
M  V30 BEGIN BOND
M  V30 1 1 1 2
M  V30 2 2 2 3
M  V30 3 1 3 4
M  V30 4 2 4 5
M  V30 5 1 5 6
M  V30 6 1 6 7
M  V30 7 1 7 8
M  V30 8 1 7 9
M  V30 9 1 9 10
M  V30 10 2 10 11
M  V30 11 1 10 12
M  V30 12 2 12 13
M  V30 13 1 13 14
M  V30 14 2 14 15
M  V30 15 1 15 16
M  V30 16 2 16 17
M  V30 17 1 16 18
M  V30 18 2 18 19
M  V30 19 1 19 20
M  V30 20 1 20 21
M  V30 21 1 21 22
M  V30 22 1 22 23
M  V30 23 2 22 24
M  V30 24 1 24 25
M  V30 25 1 25 26
M  V30 26 2 26 27
M  V30 27 1 26 28
M  V30 28 1 28 29
M  V30 29 1 24 30
M  V30 30 1 30 31
M  V30 31 1 18 32
M  V30 32 2 32 33
M  V30 33 1 32 34
M  V30 34 1 5 35
M  V30 35 2 35 36
M  V30 36 1 36 2
M  V30 37 1 17 12
M  V30 38 2 30 20
M  V30 39 1 34 15
M  V30 40 1 1 37
M  V30 41 1 1 38
M  V30 42 1 1 39
M  V30 43 1 3 40
M  V30 44 1 4 41
M  V30 45 1 6 42
M  V30 46 1 6 43
M  V30 47 1 7 44 CFG=1
M  V30 48 1 8 45
M  V30 49 1 8 46
M  V30 50 1 8 47
M  V30 51 1 9 48
M  V30 52 1 13 49
M  V30 53 1 14 50
M  V30 54 1 17 51
M  V30 55 1 19 52
M  V30 56 1 21 53
M  V30 57 1 23 54
M  V30 58 1 23 55
M  V30 59 1 23 56
M  V30 60 1 25 57
M  V30 61 1 28 58
M  V30 62 1 28 59
M  V30 63 1 31 60
M  V30 64 1 31 61
M  V30 65 1 31 62
M  V30 66 1 34 63
M  V30 67 1 35 64
M  V30 68 1 36 65
M  V30 END BOND
M  V30 END CTAB
M  END
>  <Dataset>  (808) 
ChEMBL_Kinases

>  <Ligand_Instance>  (808) 
nan

>  <PDB_ID>  (808) 
nan

>  <Standardized_SMILES>  (808) 
Cc1ccc(C[C@@H](C)NC(=O)c2ccc3c(c2)/C(=C/c2[nH]c(C)c(NC(=O)CCl)c2C)C(=O)N3)cc1

>  <Name>  (808) 
nan

>  <Pocket>  (808) 
nan

>  <ATP_Site>  (808) 
nan

>  <Peripheral>  (808) 
nan

>  <Num_H_Atoms_ProtBoundConf>  (808) 
nan

>  <Num_Resolved_Atoms>  (808) 
nan

>  <Num_Not_Resolved_Atoms>  (808) 
nan

$$$$
CHEMBL4877634
     RDKit          3D

  0  0  0  0  0  0  0  0  0  0999 V3000
M  V30 BEGIN CTAB
M  V30 COUNTS 53 57 0 0 0
M  V30 BEGIN ATOM
M  V30 1 O -0.799725 -5.672097 -0.278072 0
M  V30 2 C 0.082479 -4.894468 0.154182 0
M  V30 3 O 0.925401 -5.605360 0.980034 0
M  V30 4 C 0.270838 -3.475639 -0.109295 0
M  V30 5 C 1.334300 -2.851153 0.504213 0
M  V30 6 C 1.614066 -1.514633 0.335540 0
M  V30 7 C 0.828237 -0.719140 -0.471129 0
M  V30 8 C 1.033948 0.704817 -0.701170 0
M  V30 9 C 1.105338 1.011535 -2.053002 0
M  V30 10 C 1.324967 2.314518 -2.455131 0
M  V30 11 N 1.471681 3.299065 -1.544456 0
M  V30 12 C 1.404882 3.020772 -0.229317 0
M  V30 13 C 1.538137 3.975252 0.779475 0
M  V30 14 C 1.452709 3.627870 2.115390 0
M  V30 15 C 1.228557 2.301637 2.501374 0
M  V30 16 C 1.133976 1.910236 3.905866 0
M  V30 17 C 0.298435 0.831738 4.194122 0
M  V30 18 C 0.165804 0.411464 5.508905 0
M  V30 19 C 0.844704 1.034945 6.562635 0
M  V30 20 C 1.670024 2.110141 6.227177 0
M  V30 21 C 1.821883 2.553594 4.914258 0
M  V30 22 C 1.096101 1.352777 1.508128 0
M  V30 23 C 1.188062 1.738681 0.197953 0
M  V30 24 C -0.242953 -1.381773 -1.080112 0
M  V30 25 C -0.551429 -2.735473 -0.928291 0
M  V30 26 C -1.694373 -3.337795 -1.614735 0
M  V30 27 C -2.973071 -3.356415 -0.803346 0
M  V30 28 C -3.994916 -3.754280 -1.856441 0
M  V30 29 C -3.401636 -3.320491 -3.203416 0
M  V30 30 C -2.155170 -2.511890 -2.806479 0
M  V30 31 H 0.614245 -6.363069 1.573410 0
M  V30 32 H 1.995658 -3.433938 1.159144 0
M  V30 33 H 2.457888 -1.101642 0.831569 0
M  V30 34 H 1.010681 0.352903 -2.903654 0
M  V30 35 H 1.398491 2.666183 -3.461482 0
M  V30 36 H 1.713872 5.013637 0.462880 0
M  V30 37 H 1.559637 4.387795 2.885440 0
M  V30 38 H -0.281178 0.261684 3.486933 0
M  V30 39 H -0.463467 -0.421874 5.833164 0
M  V30 40 H 0.755788 0.724255 7.591193 0
M  V30 41 H 2.205425 2.602833 7.054147 0
M  V30 42 H 2.468548 3.391834 4.674015 0
M  V30 43 H 0.914594 0.338613 1.831760 0
M  V30 44 H -0.858369 -0.745770 -1.716849 0
M  V30 45 H -1.512240 -4.356575 -2.010847 0
M  V30 46 H -3.234114 -2.304483 -0.510925 0
M  V30 47 H -2.959925 -4.022187 0.055574 0
M  V30 48 H -4.094741 -4.857344 -1.804913 0
M  V30 49 H -4.969937 -3.260993 -1.682768 0
M  V30 50 H -4.116576 -2.727487 -3.789605 0
M  V30 51 H -3.044762 -4.242001 -3.719510 0
M  V30 52 H -2.568806 -1.558043 -2.419437 0
M  V30 53 H -1.425902 -2.426750 -3.606499 0
M  V30 END ATOM
M  V30 BEGIN BOND
M  V30 1 2 1 2
M  V30 2 1 2 3
M  V30 3 1 2 4
M  V30 4 2 4 5
M  V30 5 1 5 6
M  V30 6 2 6 7
M  V30 7 1 7 8
M  V30 8 2 8 9
M  V30 9 1 9 10
M  V30 10 2 10 11
M  V30 11 1 11 12
M  V30 12 2 12 13
M  V30 13 1 13 14
M  V30 14 2 14 15
M  V30 15 1 15 16
M  V30 16 2 16 17
M  V30 17 1 17 18
M  V30 18 2 18 19
M  V30 19 1 19 20
M  V30 20 2 20 21
M  V30 21 1 15 22
M  V30 22 2 22 23
M  V30 23 1 7 24
M  V30 24 2 24 25
M  V30 25 1 25 26
M  V30 26 1 26 27
M  V30 27 1 27 28
M  V30 28 1 28 29
M  V30 29 1 29 30
M  V30 30 1 25 4
M  V30 31 1 30 26
M  V30 32 1 23 8
M  V30 33 1 23 12
M  V30 34 1 21 16
M  V30 35 1 3 31
M  V30 36 1 5 32
M  V30 37 1 6 33
M  V30 38 1 9 34
M  V30 39 1 10 35
M  V30 40 1 13 36
M  V30 41 1 14 37
M  V30 42 1 17 38
M  V30 43 1 18 39
M  V30 44 1 19 40
M  V30 45 1 20 41
M  V30 46 1 21 42
M  V30 47 1 22 43
M  V30 48 1 24 44
M  V30 49 1 26 45
M  V30 50 1 27 46
M  V30 51 1 27 47
M  V30 52 1 28 48
M  V30 53 1 28 49
M  V30 54 1 29 50
M  V30 55 1 29 51
M  V30 56 1 30 52
M  V30 57 1 30 53
M  V30 END BOND
M  V30 END CTAB
M  END
>  <Dataset>  (809) 
ChEMBL_Kinases

>  <Ligand_Instance>  (809) 
nan

>  <PDB_ID>  (809) 
nan

>  <Standardized_SMILES>  (809) 
O=C(O)c1ccc(-c2ccnc3ccc(-c4ccccc4)cc23)cc1C1CCCC1

>  <Name>  (809) 
nan

>  <Pocket>  (809) 
nan

>  <ATP_Site>  (809) 
nan

>  <Peripheral>  (809) 
nan

>  <Num_H_Atoms_ProtBoundConf>  (809) 
nan

>  <Num_Resolved_Atoms>  (809) 
nan

>  <Num_Not_Resolved_Atoms>  (809) 
nan

$$$$
CHEMBL4796289
     RDKit          3D

  0  0  0  0  0  0  0  0  0  0999 V3000
M  V30 BEGIN CTAB
M  V30 COUNTS 61 64 0 0 0
M  V30 BEGIN ATOM
M  V30 1 C 5.438760 -3.517088 5.953978 0
M  V30 2 C 5.225087 -2.660459 4.766783 0
M  V30 3 C 6.348015 -2.185795 4.119114 0
M  V30 4 C 6.233916 -1.374449 2.995354 0
M  V30 5 C 4.966601 -1.051329 2.537777 0
M  V30 6 C 4.937809 -0.194656 1.351361 0
M  V30 7 O 5.958523 0.244587 0.752022 0
M  V30 8 O 3.760332 0.232010 0.750285 0
M  V30 9 C 3.670125 1.047914 -0.380771 0
M  V30 10 C 2.216865 1.277283 -0.711065 0
M  V30 11 C 1.484351 2.333568 -0.197550 0
M  V30 12 C 0.144211 2.481057 -0.547604 0
M  V30 13 C -0.485811 1.592934 -1.403879 0
M  V30 14 C -1.912106 1.708552 -1.805226 0 CFG=1
M  V30 15 C -2.101666 1.934779 -3.274857 0
M  V30 16 N -1.577522 0.901158 -4.113217 0
M  V30 17 C -2.712883 0.559772 -1.284257 0
M  V30 18 O -1.812024 -0.078094 -0.683834 0
M  V30 19 N -4.086894 0.472493 -1.548196 0
M  V30 20 C -4.671469 -0.706121 -0.958709 0
M  V30 21 C -5.133542 -0.466852 0.339380 0
M  V30 22 C -5.739836 -1.463408 1.111148 0
M  V30 23 C -5.847856 -2.698554 0.496964 0
M  V30 24 C -6.444263 -3.729514 1.220003 0
M  V30 25 N -6.541902 -4.910143 0.619096 0
M  V30 26 C -6.110256 -5.171341 -0.620307 0
M  V30 27 C -5.504902 -4.172220 -1.387787 0
M  V30 28 C -5.399238 -2.955262 -0.780625 0
M  V30 29 C -4.801977 -1.955547 -1.528059 0
M  V30 30 C 0.234155 0.535093 -1.922841 0
M  V30 31 C 1.566134 0.387820 -1.575395 0
M  V30 32 C 3.827354 -1.512365 3.166483 0
M  V30 33 C 2.497634 -1.132568 2.630268 0
M  V30 34 C 3.968754 -2.323454 4.290112 0
M  V30 35 H 6.135851 -4.374893 5.742001 0
M  V30 36 H 4.484165 -4.020477 6.254610 0
M  V30 37 H 5.883027 -2.980321 6.815202 0
M  V30 38 H 7.346519 -2.449805 4.492603 0
M  V30 39 H 7.128227 -1.027056 2.521802 0
M  V30 40 H 4.091533 0.494320 -1.242053 0
M  V30 41 H 4.220192 2.004207 -0.275652 0
M  V30 42 H 1.968368 3.028268 0.469217 0
M  V30 43 H -0.437082 3.294499 -0.157977 0
M  V30 44 H -2.352548 2.613673 -1.301527 0
M  V30 45 H -1.593703 2.877526 -3.526684 0
M  V30 46 H -3.190821 2.111163 -3.423838 0
M  V30 47 H -1.309034 1.325112 -5.027092 0
M  V30 48 H -2.294378 0.147483 -4.234128 0
M  V30 49 H -4.503647 1.232096 -2.111452 0
M  V30 50 H -5.064364 0.496904 0.855634 0
M  V30 51 H -6.093856 -1.290944 2.097541 0
M  V30 52 H -6.828763 -3.629174 2.229963 0
M  V30 53 H -6.252568 -6.163023 -0.978464 0
M  V30 54 H -5.156483 -4.384594 -2.389129 0
M  V30 55 H -4.416379 -2.032157 -2.523778 0
M  V30 56 H -0.130765 -0.225860 -2.596988 0
M  V30 57 H 2.175022 -0.428079 -1.957425 0
M  V30 58 H 2.413181 -0.021609 2.644925 0
M  V30 59 H 1.696229 -1.529659 3.288801 0
M  V30 60 H 2.370149 -1.478954 1.590835 0
M  V30 61 H 3.089637 -2.699065 4.802534 0
M  V30 END ATOM
M  V30 BEGIN BOND
M  V30 1 1 1 2
M  V30 2 2 2 3
M  V30 3 1 3 4
M  V30 4 2 4 5
M  V30 5 1 5 6
M  V30 6 2 6 7
M  V30 7 1 6 8
M  V30 8 1 8 9
M  V30 9 1 9 10
M  V30 10 2 10 11
M  V30 11 1 11 12
M  V30 12 2 12 13
M  V30 13 1 13 14
M  V30 14 1 14 15
M  V30 15 1 15 16
M  V30 16 1 14 17
M  V30 17 2 17 18
M  V30 18 1 17 19
M  V30 19 1 19 20
M  V30 20 2 20 21
M  V30 21 1 21 22
M  V30 22 2 22 23
M  V30 23 1 23 24
M  V30 24 2 24 25
M  V30 25 1 25 26
M  V30 26 2 26 27
M  V30 27 1 27 28
M  V30 28 2 28 29
M  V30 29 1 13 30
M  V30 30 2 30 31
M  V30 31 1 5 32
M  V30 32 1 32 33
M  V30 33 2 32 34
M  V30 34 1 34 2
M  V30 35 1 31 10
M  V30 36 1 29 20
M  V30 37 1 28 23
M  V30 38 1 1 35
M  V30 39 1 1 36
M  V30 40 1 1 37
M  V30 41 1 3 38
M  V30 42 1 4 39
M  V30 43 1 9 40
M  V30 44 1 9 41
M  V30 45 1 11 42
M  V30 46 1 12 43
M  V30 47 1 14 44 CFG=1
M  V30 48 1 15 45
M  V30 49 1 15 46
M  V30 50 1 16 47
M  V30 51 1 16 48
M  V30 52 1 19 49
M  V30 53 1 21 50
M  V30 54 1 22 51
M  V30 55 1 24 52
M  V30 56 1 26 53
M  V30 57 1 27 54
M  V30 58 1 29 55
M  V30 59 1 30 56
M  V30 60 1 31 57
M  V30 61 1 33 58
M  V30 62 1 33 59
M  V30 63 1 33 60
M  V30 64 1 34 61
M  V30 END BOND
M  V30 END CTAB
M  END
>  <Dataset>  (810) 
ChEMBL_Kinases

>  <Ligand_Instance>  (810) 
nan

>  <PDB_ID>  (810) 
nan

>  <Standardized_SMILES>  (810) 
Cc1ccc(C(=O)OCc2ccc([C@@H](CN)C(=O)Nc3ccc4cnccc4c3)cc2)c(C)c1

>  <Name>  (810) 
nan

>  <Pocket>  (810) 
nan

>  <ATP_Site>  (810) 
nan

>  <Peripheral>  (810) 
nan

>  <Num_H_Atoms_ProtBoundConf>  (810) 
nan

>  <Num_Resolved_Atoms>  (810) 
nan

>  <Num_Not_Resolved_Atoms>  (810) 
nan

$$$$
CHEMBL4796415
     RDKit          3D

  0  0  0  0  0  0  0  0  0  0999 V3000
M  V30 BEGIN CTAB
M  V30 COUNTS 51 55 0 0 0
M  V30 BEGIN ATOM
M  V30 1 C 1.174654 -5.250852 -0.676582 0
M  V30 2 N 1.936061 -4.097458 -1.053601 0
M  V30 3 C 1.155211 -3.102091 -1.770756 0
M  V30 4 C 2.074936 -2.014368 -2.201264 0
M  V30 5 C 2.806009 -1.310726 -1.083482 0
M  V30 6 N 2.024335 -0.533071 -0.200480 0
M  V30 7 C 2.155736 0.454677 0.785838 0
M  V30 8 C 3.337239 1.060380 1.159634 0
M  V30 9 C 4.561249 0.725570 0.493778 0
M  V30 10 N 5.560752 0.433840 -0.040868 0
M  V30 11 C 3.481180 2.017775 2.141989 0
M  V30 12 N 2.347823 2.367547 2.769177 0
M  V30 13 C 1.164616 1.824078 2.460789 0
M  V30 14 C 0.087837 2.280492 3.188853 0
M  V30 15 C -1.184569 1.798326 2.966827 0
M  V30 16 C -1.342722 0.840255 1.987611 0
M  V30 17 C -2.674601 0.323306 1.742231 0
M  V30 18 C -2.848951 -1.050487 1.596642 0
M  V30 19 N -4.165397 -1.274821 1.379077 0
M  V30 20 C -4.844487 -0.127550 1.376575 0
M  V30 21 N -6.135304 0.222817 1.212773 0
M  V30 22 C -6.479210 1.535786 1.275082 0
M  V30 23 C -5.577845 2.560595 1.499739 0
M  V30 24 C -4.235588 2.221382 1.672247 0
M  V30 25 C -3.927213 0.890422 1.603031 0
M  V30 26 C -0.231333 0.419894 1.289881 0
M  V30 27 C 1.047734 0.873388 1.479920 0
M  V30 28 C 3.504780 -2.386354 -0.264660 0
M  V30 29 C 2.605161 -3.550913 0.081314 0
M  V30 30 H 0.841682 -5.224595 0.400441 0
M  V30 31 H 0.254847 -5.332983 -1.308503 0
M  V30 32 H 1.778358 -6.164743 -0.880028 0
M  V30 33 H 0.801090 -3.616433 -2.687931 0
M  V30 34 H 0.262959 -2.782681 -1.220506 0
M  V30 35 H 1.532347 -1.311597 -2.841212 0
M  V30 36 H 2.861833 -2.482041 -2.830995 0
M  V30 37 H 3.602649 -0.713654 -1.566253 0
M  V30 38 H 1.072674 -0.871268 -0.425055 0
M  V30 39 H 4.411717 2.470945 2.411872 0
M  V30 40 H 0.203909 3.027847 3.954422 0
M  V30 41 H -2.005803 2.178982 3.556613 0
M  V30 42 H -2.132762 -1.870261 1.633171 0
M  V30 43 H -4.615871 -2.222812 1.228944 0
M  V30 44 H -7.552849 1.734232 1.130775 0
M  V30 45 H -5.919560 3.572910 1.536269 0
M  V30 46 H -3.489178 2.984664 1.850846 0
M  V30 47 H -0.447216 -0.328186 0.547494 0
M  V30 48 H 3.788232 -1.940453 0.708267 0
M  V30 49 H 4.427538 -2.738349 -0.748605 0
M  V30 50 H 1.918540 -3.305644 0.926311 0
M  V30 51 H 3.274477 -4.342426 0.477006 0
M  V30 END ATOM
M  V30 BEGIN BOND
M  V30 1 1 1 2
M  V30 2 1 2 3
M  V30 3 1 3 4
M  V30 4 1 4 5
M  V30 5 1 5 6
M  V30 6 1 6 7
M  V30 7 2 7 8
M  V30 8 1 8 9
M  V30 9 3 9 10
M  V30 10 1 8 11
M  V30 11 2 11 12
M  V30 12 1 12 13
M  V30 13 2 13 14
M  V30 14 1 14 15
M  V30 15 2 15 16
M  V30 16 1 16 17
M  V30 17 2 17 18
M  V30 18 1 18 19
M  V30 19 1 19 20
M  V30 20 2 20 21
M  V30 21 1 21 22
M  V30 22 2 22 23
M  V30 23 1 23 24
M  V30 24 2 24 25
M  V30 25 1 16 26
M  V30 26 2 26 27
M  V30 27 1 5 28
M  V30 28 1 28 29
M  V30 29 1 29 2
M  V30 30 1 27 7
M  V30 31 1 27 13
M  V30 32 1 25 17
M  V30 33 1 25 20
M  V30 34 1 1 30
M  V30 35 1 1 31
M  V30 36 1 1 32
M  V30 37 1 3 33
M  V30 38 1 3 34
M  V30 39 1 4 35
M  V30 40 1 4 36
M  V30 41 1 5 37
M  V30 42 1 6 38
M  V30 43 1 11 39
M  V30 44 1 14 40
M  V30 45 1 15 41
M  V30 46 1 18 42
M  V30 47 1 19 43
M  V30 48 1 22 44
M  V30 49 1 23 45
M  V30 50 1 24 46
M  V30 51 1 26 47
M  V30 52 1 28 48
M  V30 53 1 28 49
M  V30 54 1 29 50
M  V30 55 1 29 51
M  V30 END BOND
M  V30 END CTAB
M  END
>  <Dataset>  (811) 
ChEMBL_Kinases

>  <Ligand_Instance>  (811) 
nan

>  <PDB_ID>  (811) 
nan

>  <Standardized_SMILES>  (811) 
CN1CCC(Nc2c(C#N)cnc3ccc(-c4c[nH]c5ncccc45)cc23)CC1

>  <Name>  (811) 
nan

>  <Pocket>  (811) 
nan

>  <ATP_Site>  (811) 
nan

>  <Peripheral>  (811) 
nan

>  <Num_H_Atoms_ProtBoundConf>  (811) 
nan

>  <Num_Resolved_Atoms>  (811) 
nan

>  <Num_Not_Resolved_Atoms>  (811) 
nan

$$$$
CHEMBL158526
     RDKit          3D

  0  0  0  0  0  0  0  0  0  0999 V3000
M  V30 BEGIN CTAB
M  V30 COUNTS 40 42 0 0 0
M  V30 BEGIN ATOM
M  V30 1 C -0.320288 -6.600056 1.232251 0
M  V30 2 O 0.888246 -5.867264 1.267697 0
M  V30 3 C 0.930128 -4.488424 1.116574 0
M  V30 4 C 2.217907 -3.942814 1.180989 0
M  V30 5 C 2.315130 -2.573730 1.036335 0
M  V30 6 C 1.222119 -1.756210 0.837469 0
M  V30 7 C -0.051876 -2.302307 0.774552 0
M  V30 8 C -1.237773 -1.480503 0.565939 0
M  V30 9 C -1.475624 -0.412952 -0.151631 0
M  V30 10 N -0.597190 0.318089 -1.000091 0
M  V30 11 C 0.000633 1.543642 -0.526127 0
M  V30 12 C 0.863641 2.279708 -1.334118 0
M  V30 13 C 1.409403 3.459414 -0.812566 0
M  V30 14 C 1.087246 3.868166 0.477007 0
M  V30 15 S 1.770265 5.372519 1.169418 0
M  V30 16 C 3.329193 4.976765 2.011090 0
M  V30 17 C 0.234105 3.151252 1.291060 0
M  V30 18 C -0.294521 1.986765 0.754532 0
M  V30 19 C -2.863337 0.021474 -0.001282 0
M  V30 20 O -3.455402 0.997853 -0.529230 0
M  V30 21 N -3.510974 -0.876912 0.893279 0
M  V30 22 C -2.502260 -1.815558 1.250327 0
M  V30 23 O -2.770649 -2.762456 2.051502 0
M  V30 24 C -0.163469 -3.670635 0.917729 0
M  V30 25 H -0.096631 -7.605117 1.672178 0
M  V30 26 H -1.113803 -6.117313 1.831045 0
M  V30 27 H -0.602726 -6.695134 0.161218 0
M  V30 28 H 3.131287 -4.502270 1.332821 0
M  V30 29 H 3.297236 -2.112514 1.080685 0
M  V30 30 H 1.363490 -0.693218 0.731085 0
M  V30 31 H -0.378088 -0.012589 -1.952165 0
M  V30 32 H 1.103974 1.954347 -2.326124 0
M  V30 33 H 2.092424 4.065816 -1.416360 0
M  V30 34 H 3.924985 4.392681 1.272468 0
M  V30 35 H 3.932195 5.886534 2.205461 0
M  V30 36 H 3.191080 4.341903 2.889566 0
M  V30 37 H -0.047826 3.419095 2.290387 0
M  V30 38 H -0.971540 1.397588 1.372075 0
M  V30 39 H -4.514382 -0.842993 1.211680 0
M  V30 40 H -1.132847 -4.151086 0.877103 0
M  V30 END ATOM
M  V30 BEGIN BOND
M  V30 1 1 1 2
M  V30 2 1 2 3
M  V30 3 2 3 4
M  V30 4 1 4 5
M  V30 5 2 5 6
M  V30 6 1 6 7
M  V30 7 1 7 8
M  V30 8 2 8 9
M  V30 9 1 9 10
M  V30 10 1 10 11
M  V30 11 2 11 12
M  V30 12 1 12 13
M  V30 13 2 13 14
M  V30 14 1 14 15
M  V30 15 1 15 16
M  V30 16 1 14 17
M  V30 17 2 17 18
M  V30 18 1 9 19
M  V30 19 2 19 20
M  V30 20 1 19 21
M  V30 21 1 21 22
M  V30 22 2 22 23
M  V30 23 2 7 24
M  V30 24 1 24 3
M  V30 25 1 22 8
M  V30 26 1 18 11
M  V30 27 1 1 25
M  V30 28 1 1 26
M  V30 29 1 1 27
M  V30 30 1 4 28
M  V30 31 1 5 29
M  V30 32 1 6 30
M  V30 33 1 10 31
M  V30 34 1 12 32
M  V30 35 1 13 33
M  V30 36 1 16 34
M  V30 37 1 16 35
M  V30 38 1 16 36
M  V30 39 1 17 37
M  V30 40 1 18 38
M  V30 41 1 21 39
M  V30 42 1 24 40
M  V30 END BOND
M  V30 END CTAB
M  END
>  <Dataset>  (812) 
ChEMBL_Kinases

>  <Ligand_Instance>  (812) 
nan

>  <PDB_ID>  (812) 
nan

>  <Standardized_SMILES>  (812) 
COc1cccc(C2=C(Nc3ccc(SC)cc3)C(=O)NC2=O)c1

>  <Name>  (812) 
nan

>  <Pocket>  (812) 
nan

>  <ATP_Site>  (812) 
nan

>  <Peripheral>  (812) 
nan

>  <Num_H_Atoms_ProtBoundConf>  (812) 
nan

>  <Num_Resolved_Atoms>  (812) 
nan

>  <Num_Not_Resolved_Atoms>  (812) 
nan

$$$$
CHEMBL1438323
     RDKit          3D

  0  0  0  0  0  0  0  0  0  0999 V3000
M  V30 BEGIN CTAB
M  V30 COUNTS 51 55 0 0 0
M  V30 BEGIN ATOM
M  V30 1 C -0.456852 -2.159477 5.674798 0
M  V30 2 O 0.831198 -2.378472 6.210349 0
M  V30 3 C 1.990718 -2.077286 5.506963 0
M  V30 4 C 3.267535 -2.288921 6.021699 0
M  V30 5 C 4.399455 -1.971077 5.276203 0
M  V30 6 C 4.261765 -1.431287 3.994346 0
M  V30 7 N 5.191163 -1.054186 3.090890 0
M  V30 8 C 4.569474 -0.585854 1.965256 0
M  V30 9 C 3.198973 -0.668905 2.158949 0
M  V30 10 C 1.990707 -0.343396 1.367519 0
M  V30 11 C 2.327462 -0.043727 -0.080224 0
M  V30 12 N 1.060424 0.234579 -0.733948 0
M  V30 13 C 0.376214 1.414444 -1.072279 0
M  V30 14 N 0.901209 2.624152 -0.886345 0
M  V30 15 C 0.258196 3.760083 -1.266148 0
M  V30 16 N -0.972693 3.677783 -1.863094 0
M  V30 17 C -1.497800 2.444383 -2.046579 0
M  V30 18 C -2.764637 2.360132 -2.636833 0
M  V30 19 C -3.424306 1.155760 -2.862111 0
M  V30 20 C -2.791720 -0.017036 -2.481992 0
M  V30 21 C -3.353586 -1.349101 -2.612717 0
M  V30 22 C -4.744019 -1.391149 -2.466433 0
M  V30 23 C -5.427325 -2.608681 -2.556007 0
M  V30 24 C -4.612573 -3.715946 -2.795041 0
M  V30 25 N -3.282686 -3.670161 -2.934764 0
M  V30 26 C -2.636155 -2.497413 -2.846811 0
M  V30 27 C -1.554416 0.098282 -1.910528 0
M  V30 28 C -0.850153 1.251105 -1.659187 0
M  V30 29 C 3.001021 -1.201543 3.437306 0
M  V30 30 C 1.936397 -1.539686 4.230476 0
M  V30 31 H -1.242670 -2.327259 6.442288 0
M  V30 32 H -0.682307 -2.853117 4.835083 0
M  V30 33 H -0.541612 -1.107359 5.326169 0
M  V30 34 H 3.321590 -2.717147 7.036050 0
M  V30 35 H 5.391860 -2.152706 5.709408 0
M  V30 36 H 6.221882 -1.074488 3.141866 0
M  V30 37 H 4.942053 -0.194726 1.031522 0
M  V30 38 H 1.335442 -1.265309 1.396263 0
M  V30 39 H 1.432972 0.476033 1.850606 0
M  V30 40 H 2.969032 -0.763481 -0.561677 0
M  V30 41 H 2.850314 0.962704 -0.059357 0
M  V30 42 H 0.742026 -0.731495 -0.913093 0
M  V30 43 H 0.620300 4.767358 -1.147537 0
M  V30 44 H -3.274213 3.276995 -2.941142 0
M  V30 45 H -4.398640 1.071735 -3.315141 0
M  V30 46 H -5.403483 -0.541910 -2.278532 0
M  V30 47 H -6.506697 -2.727665 -2.448957 0
M  V30 48 H -5.033117 -4.705988 -2.880769 0
M  V30 49 H -1.569946 -2.359324 -2.948990 0
M  V30 50 H -1.058658 -0.807234 -1.616837 0
M  V30 51 H 0.938586 -1.379725 3.843726 0
M  V30 END ATOM
M  V30 BEGIN BOND
M  V30 1 1 1 2
M  V30 2 1 2 3
M  V30 3 2 3 4
M  V30 4 1 4 5
M  V30 5 2 5 6
M  V30 6 1 6 7
M  V30 7 1 7 8
M  V30 8 2 8 9
M  V30 9 1 9 10
M  V30 10 1 10 11
M  V30 11 1 11 12
M  V30 12 1 12 13
M  V30 13 2 13 14
M  V30 14 1 14 15
M  V30 15 2 15 16
M  V30 16 1 16 17
M  V30 17 2 17 18
M  V30 18 1 18 19
M  V30 19 2 19 20
M  V30 20 1 20 21
M  V30 21 2 21 22
M  V30 22 1 22 23
M  V30 23 2 23 24
M  V30 24 1 24 25
M  V30 25 2 25 26
M  V30 26 1 20 27
M  V30 27 2 27 28
M  V30 28 1 9 29
M  V30 29 2 29 30
M  V30 30 1 30 3
M  V30 31 1 29 6
M  V30 32 1 28 13
M  V30 33 1 28 17
M  V30 34 1 26 21
M  V30 35 1 1 31
M  V30 36 1 1 32
M  V30 37 1 1 33
M  V30 38 1 4 34
M  V30 39 1 5 35
M  V30 40 1 7 36
M  V30 41 1 8 37
M  V30 42 1 10 38
M  V30 43 1 10 39
M  V30 44 1 11 40
M  V30 45 1 11 41
M  V30 46 1 12 42
M  V30 47 1 15 43
M  V30 48 1 18 44
M  V30 49 1 19 45
M  V30 50 1 22 46
M  V30 51 1 23 47
M  V30 52 1 24 48
M  V30 53 1 26 49
M  V30 54 1 27 50
M  V30 55 1 30 51
M  V30 END BOND
M  V30 END CTAB
M  END
>  <Dataset>  (813) 
ChEMBL_Kinases

>  <Ligand_Instance>  (813) 
nan

>  <PDB_ID>  (813) 
nan

>  <Standardized_SMILES>  (813) 
COc1ccc2[nH]cc(CCNc3ncnc4ccc(-c5cccnc5)cc34)c2c1

>  <Name>  (813) 
nan

>  <Pocket>  (813) 
nan

>  <ATP_Site>  (813) 
nan

>  <Peripheral>  (813) 
nan

>  <Num_H_Atoms_ProtBoundConf>  (813) 
nan

>  <Num_Resolved_Atoms>  (813) 
nan

>  <Num_Not_Resolved_Atoms>  (813) 
nan

$$$$
CHEMBL4877560
     RDKit          3D

  0  0  0  0  0  0  0  0  0  0999 V3000
M  V30 BEGIN CTAB
M  V30 COUNTS 52 54 0 0 0
M  V30 BEGIN ATOM
M  V30 1 C -0.090766 -5.319209 2.385379 0
M  V30 2 O 0.490762 -4.405120 1.537210 0
M  V30 3 C 0.203497 -4.545895 0.209710 0 CFG=1
M  V30 4 C -0.500118 -3.322711 -0.334560 0
M  V30 5 C 0.478023 -2.332047 -0.906321 0
M  V30 6 C 1.805287 -2.436437 -0.198687 0 CFG=2
M  V30 7 N 2.583008 -1.264409 -0.542103 0
M  V30 8 C 2.205297 0.068736 -0.225642 0
M  V30 9 N 3.049727 1.056362 -0.626257 0
M  V30 10 C 2.756766 2.331949 -0.351867 0
M  V30 11 C 1.594819 2.601076 0.335669 0
M  V30 12 C 1.355192 3.993687 0.588570 0
M  V30 13 N 2.192262 5.056151 0.198849 0
M  V30 14 O 0.570945 4.807070 1.104381 0
M  V30 15 C 0.709897 1.635455 0.761250 0
M  V30 16 N -0.476441 1.941040 1.477982 0
M  V30 17 C -1.428373 0.940652 1.924179 0 CFG=2
M  V30 18 C -2.056475 0.203323 0.776812 0
M  V30 19 C -3.460237 0.773711 0.570665 0
M  V30 20 C -4.321895 0.510693 1.763627 0
M  V30 21 O -3.610488 0.770267 2.918471 0
M  V30 22 C -2.523204 1.618026 2.708343 0
M  V30 23 N 1.089355 0.378195 0.438647 0
M  V30 24 C 2.448136 -3.716614 -0.602640 0
M  V30 25 C 1.405716 -4.805074 -0.658399 0
M  V30 26 H -1.179716 -5.348640 2.394995 0
M  V30 27 H 0.376152 -6.333369 2.232432 0
M  V30 28 H 0.245091 -5.030145 3.422073 0
M  V30 29 H -0.475034 -5.410080 0.068339 0
M  V30 30 H -1.190236 -3.647736 -1.132018 0
M  V30 31 H -1.098866 -2.909499 0.498362 0
M  V30 32 H 0.695766 -2.600257 -1.979711 0
M  V30 33 H 0.116367 -1.307668 -0.925642 0
M  V30 34 H 1.677273 -2.371268 0.918845 0
M  V30 35 H 3.456212 -1.466796 -1.047211 0
M  V30 36 H 3.445341 3.096954 -0.682062 0
M  V30 37 H 2.237890 5.646530 -0.663375 0
M  V30 38 H 2.993278 5.544458 0.658476 0
M  V30 39 H -0.656509 2.945421 1.685937 0
M  V30 40 H -0.927523 0.222750 2.641784 0
M  V30 41 H -1.469736 0.291576 -0.160940 0
M  V30 42 H -2.177981 -0.849675 1.081300 0
M  V30 43 H -3.364313 1.850422 0.354442 0
M  V30 44 H -3.946880 0.272683 -0.300585 0
M  V30 45 H -4.719652 -0.525358 1.782812 0
M  V30 46 H -5.231078 1.169222 1.701621 0
M  V30 47 H -2.181880 1.928151 3.721140 0
M  V30 48 H -2.853820 2.535345 2.194740 0
M  V30 49 H 3.286742 -3.990561 0.066821 0
M  V30 50 H 2.923942 -3.549205 -1.605953 0
M  V30 51 H 1.034769 -4.816894 -1.713583 0
M  V30 52 H 1.878050 -5.781783 -0.482620 0
M  V30 END ATOM
M  V30 BEGIN BOND
M  V30 1 1 1 2
M  V30 2 1 2 3
M  V30 3 1 3 4
M  V30 4 1 4 5
M  V30 5 1 5 6
M  V30 6 1 6 7
M  V30 7 1 7 8
M  V30 8 2 8 9
M  V30 9 1 9 10
M  V30 10 2 10 11
M  V30 11 1 11 12
M  V30 12 1 12 13
M  V30 13 2 12 14
M  V30 14 1 11 15
M  V30 15 1 15 16
M  V30 16 1 16 17
M  V30 17 1 17 18
M  V30 18 1 18 19
M  V30 19 1 19 20
M  V30 20 1 20 21
M  V30 21 1 21 22
M  V30 22 2 15 23
M  V30 23 1 6 24
M  V30 24 1 24 25
M  V30 25 1 25 3
M  V30 26 1 23 8
M  V30 27 1 22 17
M  V30 28 1 1 26
M  V30 29 1 1 27
M  V30 30 1 1 28
M  V30 31 1 3 29 CFG=1
M  V30 32 1 4 30
M  V30 33 1 4 31
M  V30 34 1 5 32
M  V30 35 1 5 33
M  V30 36 1 6 34 CFG=1
M  V30 37 1 7 35
M  V30 38 1 10 36
M  V30 39 1 13 37
M  V30 40 1 13 38
M  V30 41 1 16 39
M  V30 42 1 17 40 CFG=1
M  V30 43 1 18 41
M  V30 44 1 18 42
M  V30 45 1 19 43
M  V30 46 1 19 44
M  V30 47 1 20 45
M  V30 48 1 20 46
M  V30 49 1 22 47
M  V30 50 1 22 48
M  V30 51 1 24 49
M  V30 52 1 24 50
M  V30 53 1 25 51
M  V30 54 1 25 52
M  V30 END BOND
M  V30 END CTAB
M  END
>  <Dataset>  (814) 
ChEMBL_Kinases

>  <Ligand_Instance>  (814) 
nan

>  <PDB_ID>  (814) 
nan

>  <Standardized_SMILES>  (814) 
CO[C@H]1CC[C@H](Nc2ncc(C(N)=O)c(N[C@@H]3CCCOC3)n2)CC1

>  <Name>  (814) 
nan

>  <Pocket>  (814) 
nan

>  <ATP_Site>  (814) 
nan

>  <Peripheral>  (814) 
nan

>  <Num_H_Atoms_ProtBoundConf>  (814) 
nan

>  <Num_Resolved_Atoms>  (814) 
nan

>  <Num_Not_Resolved_Atoms>  (814) 
nan

$$$$
CHEMBL4796578
     RDKit          3D

  0  0  0  0  0  0  0  0  0  0999 V3000
M  V30 BEGIN CTAB
M  V30 COUNTS 40 42 0 0 0
M  V30 BEGIN ATOM
M  V30 1 C -2.547766 -3.434168 2.502140 0
M  V30 2 C -1.763800 -2.409718 1.797965 0
M  V30 3 C -0.992855 -2.567531 0.665217 0
M  V30 4 N -0.440660 -1.364917 0.350985 0
M  V30 5 C 0.428959 -1.203576 -0.798512 0 CFG=1
M  V30 6 C 0.417160 0.203092 -1.344330 0
M  V30 7 C 1.814798 -1.695328 -0.528948 0 CFG=1
M  V30 8 F 1.760961 -3.038284 -0.207988 0
M  V30 9 C 2.615571 -1.571104 -1.812918 0
M  V30 10 C 3.420925 -0.329837 -1.629012 0
M  V30 11 N 3.481849 -0.023279 -0.220367 0
M  V30 12 C 2.580675 -0.909109 0.477967 0
M  V30 13 C -0.858280 -0.475025 1.268527 0
M  V30 14 N -0.541500 0.828747 1.320201 0
M  V30 15 C -1.052077 1.580855 2.315086 0
M  V30 16 C -0.796287 3.004757 2.497037 0
M  V30 17 N -0.000030 3.893375 1.724425 0
M  V30 18 O -1.258625 3.752623 3.423157 0
M  V30 19 C -1.887348 1.049550 3.277013 0
M  V30 20 C -2.196470 -0.307821 3.194422 0
M  V30 21 Cl -3.250182 -1.060792 4.376627 0
M  V30 22 C -1.683606 -1.095000 2.183095 0
M  V30 23 H -3.603015 -3.395721 2.120537 0
M  V30 24 H -2.140537 -4.457158 2.252038 0
M  V30 25 H -2.530132 -3.376322 3.587861 0
M  V30 26 H -0.884172 -3.523845 0.152586 0
M  V30 27 H 0.030971 -1.845598 -1.631209 0
M  V30 28 H 1.095364 0.891914 -0.840496 0
M  V30 29 H 0.651985 0.166031 -2.447941 0
M  V30 30 H -0.595169 0.642192 -1.275908 0
M  V30 31 H 3.227076 -2.480176 -1.974274 0
M  V30 32 H 1.941961 -1.472718 -2.689220 0
M  V30 33 H 4.444934 -0.527521 -2.048837 0
M  V30 34 H 3.030956 0.524939 -2.213657 0
M  V30 35 H 3.353617 0.986161 0.007518 0
M  V30 36 H 1.972871 -0.425544 1.245561 0
M  V30 37 H 3.240399 -1.642944 1.024658 0
M  V30 38 H 1.036155 4.041974 1.570490 0
M  V30 39 H 1.000851 3.606222 1.939642 0
M  V30 40 H -2.322048 1.612158 4.094691 0
M  V30 END ATOM
M  V30 BEGIN BOND
M  V30 1 1 1 2
M  V30 2 2 2 3
M  V30 3 1 3 4
M  V30 4 1 4 5
M  V30 5 1 5 6
M  V30 6 1 5 7
M  V30 7 1 7 8 CFG=1
M  V30 8 1 7 9
M  V30 9 1 9 10
M  V30 10 1 10 11
M  V30 11 1 11 12
M  V30 12 1 4 13
M  V30 13 2 13 14
M  V30 14 1 14 15
M  V30 15 1 15 16
M  V30 16 1 16 17
M  V30 17 2 16 18
M  V30 18 2 15 19
M  V30 19 1 19 20
M  V30 20 1 20 21
M  V30 21 2 20 22
M  V30 22 1 22 2
M  V30 23 1 12 7
M  V30 24 1 22 13
M  V30 25 1 1 23
M  V30 26 1 1 24
M  V30 27 1 1 25
M  V30 28 1 3 26
M  V30 29 1 5 27 CFG=3
M  V30 30 1 6 28
M  V30 31 1 6 29
M  V30 32 1 6 30
M  V30 33 1 9 31
M  V30 34 1 9 32
M  V30 35 1 10 33
M  V30 36 1 10 34
M  V30 37 1 11 35
M  V30 38 1 12 36
M  V30 39 1 12 37
M  V30 40 1 17 38
M  V30 41 1 17 39
M  V30 42 1 19 40
M  V30 END BOND
M  V30 END CTAB
M  END
>  <Dataset>  (815) 
ChEMBL_Kinases

>  <Ligand_Instance>  (815) 
nan

>  <PDB_ID>  (815) 
nan

>  <Standardized_SMILES>  (815) 
Cc1cn([C@@H](C)[C@@]2(F)CCNC2)c2nc(C(N)=O)cc(Cl)c12

>  <Name>  (815) 
nan

>  <Pocket>  (815) 
nan

>  <ATP_Site>  (815) 
nan

>  <Peripheral>  (815) 
nan

>  <Num_H_Atoms_ProtBoundConf>  (815) 
nan

>  <Num_Resolved_Atoms>  (815) 
nan

>  <Num_Not_Resolved_Atoms>  (815) 
nan

$$$$
CHEMBL4797665
     RDKit          3D

  0  0  0  0  0  0  0  0  0  0999 V3000
M  V30 BEGIN CTAB
M  V30 COUNTS 45 48 0 0 0
M  V30 BEGIN ATOM
M  V30 1 O -2.018060 0.997656 1.943480 0
M  V30 2 C -2.019966 -0.269653 1.859780 0
M  V30 3 N -0.822027 -0.746633 1.275559 0
M  V30 4 C 0.176230 0.212558 0.879259 0
M  V30 5 C 0.129529 0.727332 -0.401355 0
M  V30 6 C 1.058557 1.656159 -0.853993 0
M  V30 7 C 2.010385 2.003822 0.084259 0
M  V30 8 N 3.001078 2.946605 -0.287764 0
M  V30 9 C 3.232945 3.663485 -1.527085 0
M  V30 10 C 3.544027 5.086876 -1.139587 0
M  V30 11 C 4.079572 4.979264 0.264275 0
M  V30 12 F 3.240602 5.613575 1.143835 0
M  V30 13 F 5.344864 5.529857 0.282588 0
M  V30 14 C 4.102080 3.484316 0.483204 0
M  V30 15 N 2.081065 1.518407 1.340673 0
M  V30 16 C 1.156218 0.605758 1.763431 0
M  V30 17 C -3.164108 -0.999487 2.338643 0
M  V30 18 N -4.203911 -0.318897 2.863669 0
M  V30 19 N -5.145454 -1.200410 3.238951 0
M  V30 20 C -4.775837 -2.467356 2.983798 0
M  V30 21 C -3.531725 -2.304746 2.420919 0
M  V30 22 C -2.690997 -3.370420 1.961916 0
M  V30 23 C -2.001597 -4.276801 1.583122 0
M  V30 24 C -1.169825 -5.359801 1.104712 0
M  V30 25 C -1.341110 -6.655973 1.544897 0
M  V30 26 C -0.488036 -7.606151 1.018071 0
M  V30 27 C 0.503695 -7.293655 0.086917 0
M  V30 28 N 0.616936 -6.008961 -0.300301 0
M  V30 29 C -0.187532 -5.035960 0.179200 0
M  V30 30 H -0.736664 -1.769357 1.167925 0
M  V30 31 H -0.657299 0.406228 -1.098701 0
M  V30 32 H 1.046585 2.074613 -1.847326 0
M  V30 33 H 4.044825 3.207639 -2.138785 0
M  V30 34 H 2.288389 3.672068 -2.106698 0
M  V30 35 H 4.271318 5.533543 -1.820812 0
M  V30 36 H 2.618114 5.693938 -1.130226 0
M  V30 37 H 3.933230 3.317976 1.581792 0
M  V30 38 H 5.063518 3.025054 0.254515 0
M  V30 39 H 1.193251 0.202628 2.767146 0
M  V30 40 H -6.056862 -0.890476 3.679990 0
M  V30 41 H -5.344700 -3.359359 3.186526 0
M  V30 42 H -2.112369 -6.886857 2.266328 0
M  V30 43 H -0.571294 -8.640901 1.323050 0
M  V30 44 H 1.156470 -8.051875 -0.309218 0
M  V30 45 H -0.025280 -4.018634 -0.190434 0
M  V30 END ATOM
M  V30 BEGIN BOND
M  V30 1 2 1 2
M  V30 2 1 2 3
M  V30 3 1 3 4
M  V30 4 2 4 5
M  V30 5 1 5 6
M  V30 6 2 6 7
M  V30 7 1 7 8
M  V30 8 1 8 9
M  V30 9 1 9 10
M  V30 10 1 10 11
M  V30 11 1 11 12
M  V30 12 1 11 13
M  V30 13 1 11 14
M  V30 14 1 7 15
M  V30 15 2 15 16
M  V30 16 1 2 17
M  V30 17 2 17 18
M  V30 18 1 18 19
M  V30 19 1 19 20
M  V30 20 2 20 21
M  V30 21 1 21 22
M  V30 22 3 22 23
M  V30 23 1 23 24
M  V30 24 2 24 25
M  V30 25 1 25 26
M  V30 26 2 26 27
M  V30 27 1 27 28
M  V30 28 2 28 29
M  V30 29 1 16 4
M  V30 30 1 21 17
M  V30 31 1 29 24
M  V30 32 1 14 8
M  V30 33 1 3 30
M  V30 34 1 5 31
M  V30 35 1 6 32
M  V30 36 1 9 33
M  V30 37 1 9 34
M  V30 38 1 10 35
M  V30 39 1 10 36
M  V30 40 1 14 37
M  V30 41 1 14 38
M  V30 42 1 16 39
M  V30 43 1 19 40
M  V30 44 1 20 41
M  V30 45 1 25 42
M  V30 46 1 26 43
M  V30 47 1 27 44
M  V30 48 1 29 45
M  V30 END BOND
M  V30 END CTAB
M  END
>  <Dataset>  (816) 
ChEMBL_Kinases

>  <Ligand_Instance>  (816) 
nan

>  <PDB_ID>  (816) 
nan

>  <Standardized_SMILES>  (816) 
O=C(Nc1ccc(N2CCC(F)(F)C2)nc1)c1n[nH]cc1C#Cc1cccnc1

>  <Name>  (816) 
nan

>  <Pocket>  (816) 
nan

>  <ATP_Site>  (816) 
nan

>  <Peripheral>  (816) 
nan

>  <Num_H_Atoms_ProtBoundConf>  (816) 
nan

>  <Num_Resolved_Atoms>  (816) 
nan

>  <Num_Not_Resolved_Atoms>  (816) 
nan

$$$$
CHEMBL4877481
     RDKit          3D

  0  0  0  0  0  0  0  0  0  0999 V3000
M  V30 BEGIN CTAB
M  V30 COUNTS 54 58 0 0 0
M  V30 BEGIN ATOM
M  V30 1 C 2.025294 -7.221595 5.179402 0
M  V30 2 S 0.904713 -7.268923 3.787045 0
M  V30 3 O 1.137657 -8.485324 2.939069 0
M  V30 4 O -0.493090 -7.316759 4.335917 0
M  V30 5 C 1.052632 -5.797783 2.838383 0
M  V30 6 C 0.260793 -4.719571 3.179727 0
M  V30 7 C 0.338312 -3.541801 2.463178 0
M  V30 8 C 1.203328 -3.387703 1.381158 0
M  V30 9 C 1.313125 -2.161474 0.598464 0
M  V30 10 C 1.141193 -0.871770 1.054040 0
M  V30 11 C 1.266458 0.211415 0.209672 0
M  V30 12 C 1.566771 0.003161 -1.106000 0
M  V30 13 C 1.695568 1.088281 -1.961800 0
M  V30 14 N 1.534147 2.426571 -1.566545 0
M  V30 15 C 0.488199 3.188368 -1.034888 0
M  V30 16 C 0.728302 4.489097 -0.657051 0
M  V30 17 C -0.296047 5.248673 -0.139909 0
M  V30 18 N -1.529800 4.733441 0.000159 0
M  V30 19 C -1.838828 3.470542 -0.347507 0
M  V30 20 C -3.191016 2.945936 -0.180128 0
M  V30 21 C -3.585698 1.667573 -0.511103 0
M  V30 22 C -4.886787 1.232888 -0.327284 0
M  V30 23 C -5.832748 2.086193 0.200919 0
M  V30 24 C -5.453914 3.365570 0.536365 0
M  V30 25 C -4.152636 3.782569 0.346470 0
M  V30 26 C -0.801975 2.722896 -0.863753 0
M  V30 27 C 2.007236 0.751019 -3.281670 0
M  V30 28 C 2.194222 -0.494058 -3.812645 0
M  V30 29 N 2.050668 -1.495907 -2.915383 0
M  V30 30 C 1.751663 -1.261236 -1.625276 0
M  V30 31 C 1.615776 -2.320274 -0.737662 0
M  V30 32 C 1.987368 -4.485416 1.059429 0
M  V30 33 C 1.928377 -5.684096 1.765766 0
M  V30 34 H 1.493467 -6.927259 6.109244 0
M  V30 35 H 2.482468 -8.212177 5.370554 0
M  V30 36 H 2.839828 -6.475844 5.037100 0
M  V30 37 H -0.448291 -4.751417 4.015792 0
M  V30 38 H -0.282507 -2.700026 2.732785 0
M  V30 39 H 0.904122 -0.770742 2.106437 0
M  V30 40 H 1.132481 1.209816 0.596889 0
M  V30 41 H 2.465266 2.855003 -1.754773 0
M  V30 42 H 1.711012 4.972262 -0.744363 0
M  V30 43 H -0.098764 6.277981 0.156793 0
M  V30 44 H -2.851835 0.991146 -0.925813 0
M  V30 45 H -5.133932 0.198199 -0.613759 0
M  V30 46 H -6.848834 1.727575 0.337985 0
M  V30 47 H -6.243574 3.981191 0.944716 0
M  V30 48 H -3.940296 4.802430 0.636706 0
M  V30 49 H -0.964667 1.698217 -1.168532 0
M  V30 50 H 2.108166 1.603507 -3.948856 0
M  V30 51 H 2.432209 -0.594446 -4.859699 0
M  V30 52 H 1.764280 -3.310632 -1.162275 0
M  V30 53 H 2.692926 -4.469510 0.235392 0
M  V30 54 H 2.548171 -6.529228 1.499819 0
M  V30 END ATOM
M  V30 BEGIN BOND
M  V30 1 1 1 2
M  V30 2 2 2 3
M  V30 3 2 2 4
M  V30 4 1 2 5
M  V30 5 2 5 6
M  V30 6 1 6 7
M  V30 7 2 7 8
M  V30 8 1 8 9
M  V30 9 2 9 10
M  V30 10 1 10 11
M  V30 11 2 11 12
M  V30 12 1 12 13
M  V30 13 1 13 14
M  V30 14 1 14 15
M  V30 15 2 15 16
M  V30 16 1 16 17
M  V30 17 2 17 18
M  V30 18 1 18 19
M  V30 19 1 19 20
M  V30 20 2 20 21
M  V30 21 1 21 22
M  V30 22 2 22 23
M  V30 23 1 23 24
M  V30 24 2 24 25
M  V30 25 2 19 26
M  V30 26 2 13 27
M  V30 27 1 27 28
M  V30 28 2 28 29
M  V30 29 1 29 30
M  V30 30 2 30 31
M  V30 31 1 8 32
M  V30 32 2 32 33
M  V30 33 1 33 5
M  V30 34 1 31 9
M  V30 35 1 30 12
M  V30 36 1 26 15
M  V30 37 1 25 20
M  V30 38 1 1 34
M  V30 39 1 1 35
M  V30 40 1 1 36
M  V30 41 1 6 37
M  V30 42 1 7 38
M  V30 43 1 10 39
M  V30 44 1 11 40
M  V30 45 1 14 41
M  V30 46 1 16 42
M  V30 47 1 17 43
M  V30 48 1 21 44
M  V30 49 1 22 45
M  V30 50 1 23 46
M  V30 51 1 24 47
M  V30 52 1 25 48
M  V30 53 1 26 49
M  V30 54 1 27 50
M  V30 55 1 28 51
M  V30 56 1 31 52
M  V30 57 1 32 53
M  V30 58 1 33 54
M  V30 END BOND
M  V30 END CTAB
M  END
>  <Dataset>  (817) 
ChEMBL_Kinases

>  <Ligand_Instance>  (817) 
nan

>  <PDB_ID>  (817) 
nan

>  <Standardized_SMILES>  (817) 
CS(=O)(=O)c1ccc(-c2ccc3c(Nc4ccnc(-c5ccccc5)c4)ccnc3c2)cc1

>  <Name>  (817) 
nan

>  <Pocket>  (817) 
nan

>  <ATP_Site>  (817) 
nan

>  <Peripheral>  (817) 
nan

>  <Num_H_Atoms_ProtBoundConf>  (817) 
nan

>  <Num_Resolved_Atoms>  (817) 
nan

>  <Num_Not_Resolved_Atoms>  (817) 
nan

$$$$
CHEMBL4796639
     RDKit          3D

  0  0  0  0  0  0  0  0  0  0999 V3000
M  V30 BEGIN CTAB
M  V30 COUNTS 64 66 0 0 0
M  V30 BEGIN ATOM
M  V30 1 C 1.292972 1.146918 6.934657 0
M  V30 2 C 1.320993 2.597001 6.585802 0
M  V30 3 N 2.110626 2.936670 5.430954 0
M  V30 4 C 3.537626 2.729442 5.712082 0
M  V30 5 C 3.951632 3.758018 6.729233 0
M  V30 6 C 1.716766 2.177741 4.255262 0
M  V30 7 C 0.346890 2.548703 3.771769 0
M  V30 8 N 0.041010 1.749717 2.605246 0
M  V30 9 C 0.752450 1.769616 1.383922 0
M  V30 10 O 1.722038 2.599467 1.397404 0
M  V30 11 C 0.540650 1.004903 0.161859 0
M  V30 12 C 1.264491 1.282859 -0.982493 0
M  V30 13 C 2.315196 2.329446 -1.252347 0
M  V30 14 N 0.853855 0.397845 -1.919183 0
M  V30 15 C -0.090120 -0.446544 -1.478741 0
M  V30 16 C -0.840226 -1.529720 -2.095019 0
M  V30 17 C -1.515006 -1.546641 -3.228096 0
M  V30 18 C -1.667582 -0.432960 -4.146874 0
M  V30 19 O -1.171965 0.685505 -3.936466 0
M  V30 20 N -2.447106 -0.966903 -5.193936 0
M  V30 21 C -2.771115 -2.333001 -4.955924 0
M  V30 22 C -3.500371 -3.239602 -5.698423 0
M  V30 23 C -3.644586 -4.518804 -5.204176 0
M  V30 24 C -3.098783 -4.958777 -3.996327 0
M  V30 25 C -3.298668 -6.365012 -3.523273 0
M  V30 26 C -2.195709 -7.282256 -4.040677 0
M  V30 27 N -2.345074 -8.638774 -3.611234 0
M  V30 28 N -2.410207 -8.871784 -2.399045 0 CHG=1 VAL=4
M  V30 29 N -2.747998 -9.148770 -1.232890 0 CHG=-1 VAL=2
M  V30 30 C -2.378580 -4.027406 -3.283464 0
M  V30 31 C -2.204412 -2.726850 -3.737382 0
M  V30 32 C -0.285278 -0.055754 -0.154112 0
M  V30 33 C -1.229088 -0.669081 0.799444 0
M  V30 34 H 2.134018 0.574773 6.499557 0
M  V30 35 H 1.213586 1.062766 8.046646 0
M  V30 36 H 0.365677 0.635653 6.539075 0
M  V30 37 H 1.722260 3.207857 7.434547 0
M  V30 38 H 0.302545 3.044363 6.402960 0
M  V30 39 H 3.754559 1.733246 6.121412 0
M  V30 40 H 4.117980 2.849590 4.775720 0
M  V30 41 H 4.040058 3.282810 7.734898 0
M  V30 42 H 4.921883 4.223828 6.428162 0
M  V30 43 H 3.234737 4.592701 6.836079 0
M  V30 44 H 2.528290 2.299787 3.523122 0
M  V30 45 H 1.739987 1.097314 4.569056 0
M  V30 46 H -0.365449 2.258788 4.574640 0
M  V30 47 H 0.245410 3.636982 3.568056 0
M  V30 48 H -0.767185 1.092250 2.622167 0
M  V30 49 H 3.276013 1.961744 -0.847389 0
M  V30 50 H 2.024265 3.308439 -0.780736 0
M  V30 51 H 2.451432 2.431021 -2.339987 0
M  V30 52 H 1.242792 0.363713 -2.886390 0
M  V30 53 H -0.809980 -2.452736 -1.490312 0
M  V30 54 H -2.703702 -0.336497 -6.010823 0
M  V30 55 H -3.946311 -2.945438 -6.646099 0
M  V30 56 H -4.221211 -5.228067 -5.790518 0
M  V30 57 H -4.276569 -6.705521 -3.855221 0
M  V30 58 H -3.163994 -6.307022 -2.414092 0
M  V30 59 H -1.203279 -6.939159 -3.709529 0
M  V30 60 H -2.179647 -7.249439 -5.171593 0
M  V30 61 H -1.932084 -4.328398 -2.328201 0
M  V30 62 H -0.702721 -1.076204 1.691709 0
M  V30 63 H -1.669472 -1.589038 0.308687 0
M  V30 64 H -2.088743 -0.040697 1.030562 0
M  V30 END ATOM
M  V30 BEGIN BOND
M  V30 1 1 1 2
M  V30 2 1 2 3
M  V30 3 1 3 4
M  V30 4 1 4 5
M  V30 5 1 3 6
M  V30 6 1 6 7
M  V30 7 1 7 8
M  V30 8 1 8 9
M  V30 9 2 9 10
M  V30 10 1 9 11
M  V30 11 2 11 12
M  V30 12 1 12 13
M  V30 13 1 12 14
M  V30 14 1 14 15
M  V30 15 1 15 16
M  V30 16 2 16 17
M  V30 17 1 17 18
M  V30 18 2 18 19
M  V30 19 1 18 20
M  V30 20 1 20 21
M  V30 21 2 21 22
M  V30 22 1 22 23
M  V30 23 2 23 24
M  V30 24 1 24 25
M  V30 25 1 25 26
M  V30 26 1 26 27
M  V30 27 2 27 28
M  V30 28 2 28 29
M  V30 29 1 24 30
M  V30 30 2 30 31
M  V30 31 2 15 32
M  V30 32 1 32 33
M  V30 33 1 32 11
M  V30 34 1 31 17
M  V30 35 1 31 21
M  V30 36 1 1 34
M  V30 37 1 1 35
M  V30 38 1 1 36
M  V30 39 1 2 37
M  V30 40 1 2 38
M  V30 41 1 4 39
M  V30 42 1 4 40
M  V30 43 1 5 41
M  V30 44 1 5 42
M  V30 45 1 5 43
M  V30 46 1 6 44
M  V30 47 1 6 45
M  V30 48 1 7 46
M  V30 49 1 7 47
M  V30 50 1 8 48
M  V30 51 1 13 49
M  V30 52 1 13 50
M  V30 53 1 13 51
M  V30 54 1 14 52
M  V30 55 1 16 53
M  V30 56 1 20 54
M  V30 57 1 22 55
M  V30 58 1 23 56
M  V30 59 1 25 57
M  V30 60 1 25 58
M  V30 61 1 26 59
M  V30 62 1 26 60
M  V30 63 1 30 61
M  V30 64 1 33 62
M  V30 65 1 33 63
M  V30 66 1 33 64
M  V30 END BOND
M  V30 END CTAB
M  END
>  <Dataset>  (818) 
ChEMBL_Kinases

>  <Ligand_Instance>  (818) 
nan

>  <PDB_ID>  (818) 
nan

>  <Standardized_SMILES>  (818) 
CCN(CC)CCNC(=O)c1c(C)[nH]c(/C=C2\C(=O)Nc3ccc(CCN=[N+]=[N-])cc32)c1C

>  <Name>  (818) 
nan

>  <Pocket>  (818) 
nan

>  <ATP_Site>  (818) 
nan

>  <Peripheral>  (818) 
nan

>  <Num_H_Atoms_ProtBoundConf>  (818) 
nan

>  <Num_Resolved_Atoms>  (818) 
nan

>  <Num_Not_Resolved_Atoms>  (818) 
nan

$$$$
CHEMBL4877101
     RDKit          3D

  0  0  0  0  0  0  0  0  0  0999 V3000
M  V30 BEGIN CTAB
M  V30 COUNTS 39 42 0 0 0
M  V30 BEGIN ATOM
M  V30 1 N -0.829030 -7.184801 2.844838 0
M  V30 2 C -0.274539 -6.169160 2.713353 0
M  V30 3 C 0.423426 -4.912907 2.526815 0
M  V30 4 C 1.630170 -4.770651 3.160069 0
M  V30 5 C 2.339642 -3.583865 3.010961 0
M  V30 6 C 1.838290 -2.560926 2.236213 0
M  V30 7 C 0.626222 -2.700992 1.598361 0
M  V30 8 N -0.085864 -1.808554 0.756729 0
M  V30 9 C -0.972281 -0.832414 1.342531 0
M  V30 10 C -1.199788 0.402363 0.924489 0
M  V30 11 C -0.761051 1.278232 -0.146330 0
M  V30 12 C -1.774401 1.890956 -0.904350 0
M  V30 13 C -1.577025 2.754757 -1.959251 0
M  V30 14 C -0.269161 3.028401 -2.281316 0
M  V30 15 C 0.781971 2.471336 -1.588214 0
M  V30 16 C 2.099370 2.745208 -1.889464 0
M  V30 17 C 3.146339 2.182378 -1.167144 0
M  V30 18 C 2.841067 1.324145 -0.116951 0
M  V30 19 C 1.517955 1.065118 0.165242 0
M  V30 20 C 0.505560 1.617865 -0.546578 0
M  V30 21 C -2.183259 0.951725 1.887659 0
M  V30 22 O -2.734436 2.104251 1.938004 0
M  V30 23 N -2.519051 -0.006863 2.880849 0
M  V30 24 C -1.745972 -1.148876 2.534998 0
M  V30 25 O -1.762594 -2.226886 3.181427 0
M  V30 26 C -0.102876 -3.888581 1.736692 0
M  V30 27 H 2.061311 -5.549391 3.778533 0
M  V30 28 H 3.293582 -3.408385 3.479605 0
M  V30 29 H 2.289183 -1.599234 2.042025 0
M  V30 30 H 0.029197 -1.852196 -0.278332 0
M  V30 31 H -2.810535 1.681694 -0.658577 0
M  V30 32 H -2.425805 3.178144 -2.482977 0
M  V30 33 H -0.064392 3.703203 -3.105735 0
M  V30 34 H 2.267965 3.427170 -2.727397 0
M  V30 35 H 4.149940 2.475477 -1.500986 0
M  V30 36 H 3.703883 0.935636 0.385051 0
M  V30 37 H 1.365246 0.415669 0.987529 0
M  V30 38 H -3.171364 0.071183 3.686125 0
M  V30 39 H -1.059933 -4.141032 1.301620 0
M  V30 END ATOM
M  V30 BEGIN BOND
M  V30 1 3 1 2
M  V30 2 1 2 3
M  V30 3 2 3 4
M  V30 4 1 4 5
M  V30 5 2 5 6
M  V30 6 1 6 7
M  V30 7 1 7 8
M  V30 8 1 8 9
M  V30 9 2 9 10
M  V30 10 1 10 11
M  V30 11 2 11 12
M  V30 12 1 12 13
M  V30 13 2 13 14
M  V30 14 1 14 15
M  V30 15 2 15 16
M  V30 16 1 16 17
M  V30 17 2 17 18
M  V30 18 1 18 19
M  V30 19 2 19 20
M  V30 20 1 10 21
M  V30 21 2 21 22
M  V30 22 1 21 23
M  V30 23 1 23 24
M  V30 24 2 24 25
M  V30 25 2 7 26
M  V30 26 1 26 3
M  V30 27 1 24 9
M  V30 28 1 20 11
M  V30 29 1 20 15
M  V30 30 1 4 27
M  V30 31 1 5 28
M  V30 32 1 6 29
M  V30 33 1 8 30
M  V30 34 1 12 31
M  V30 35 1 13 32
M  V30 36 1 14 33
M  V30 37 1 16 34
M  V30 38 1 17 35
M  V30 39 1 18 36
M  V30 40 1 19 37
M  V30 41 1 23 38
M  V30 42 1 26 39
M  V30 END BOND
M  V30 END CTAB
M  END
>  <Dataset>  (819) 
ChEMBL_Kinases

>  <Ligand_Instance>  (819) 
nan

>  <PDB_ID>  (819) 
nan

>  <Standardized_SMILES>  (819) 
N#Cc1cccc(NC2=C(c3cccc4ccccc34)C(=O)NC2=O)c1

>  <Name>  (819) 
nan

>  <Pocket>  (819) 
nan

>  <ATP_Site>  (819) 
nan

>  <Peripheral>  (819) 
nan

>  <Num_H_Atoms_ProtBoundConf>  (819) 
nan

>  <Num_Resolved_Atoms>  (819) 
nan

>  <Num_Not_Resolved_Atoms>  (819) 
nan

$$$$
CHEMBL1582724
     RDKit          3D

  0  0  0  0  0  0  0  0  0  0999 V3000
M  V30 BEGIN CTAB
M  V30 COUNTS 28 29 0 0 0
M  V30 BEGIN ATOM
M  V30 1 C -0.823860 -3.452561 1.909962 0
M  V30 2 O -0.009175 -2.278925 2.052166 0
M  V30 3 C 0.982995 -2.208471 3.020006 0
M  V30 4 O 1.326990 -3.068504 3.872791 0
M  V30 5 C 1.727322 -0.951428 3.041885 0
M  V30 6 S 3.060104 -0.717801 4.260715 0
M  V30 7 C 3.457655 1.034023 3.640554 0
M  V30 8 C 2.557322 1.211733 2.620978 0
M  V30 9 C 1.676740 0.207948 2.312434 0
M  V30 10 N 0.694356 0.252531 1.287259 0
M  V30 11 C 0.839227 -0.148099 -0.069350 0
M  V30 12 O 1.985896 -0.588436 -0.358503 0
M  V30 13 C -0.281186 -0.033622 -0.995086 0
M  V30 14 C -1.532659 0.438583 -0.711631 0
M  V30 15 C -2.516559 0.495574 -1.691166 0
M  V30 16 N -2.251214 0.082587 -2.948351 0
M  V30 17 C -1.021416 -0.386598 -3.246633 0
M  V30 18 C -0.045182 -0.446820 -2.288787 0
M  V30 19 H -1.667213 -3.407307 2.608911 0
M  V30 20 H -0.220745 -4.360635 2.175887 0
M  V30 21 H -1.068138 -3.555750 0.851888 0
M  V30 22 H 4.212847 1.718423 4.008357 0
M  V30 23 H 2.566722 2.148836 2.082513 0
M  V30 24 H -0.196586 0.637719 1.676661 0
M  V30 25 H -1.705890 0.760632 0.309725 0
M  V30 26 H -3.497711 0.886939 -1.387992 0
M  V30 27 H -0.939736 -0.683251 -4.282247 0
M  V30 28 H 0.894697 -0.840307 -2.650339 0
M  V30 END ATOM
M  V30 BEGIN BOND
M  V30 1 1 1 2
M  V30 2 1 2 3
M  V30 3 2 3 4
M  V30 4 1 3 5
M  V30 5 1 5 6
M  V30 6 1 6 7
M  V30 7 2 7 8
M  V30 8 1 8 9
M  V30 9 1 9 10
M  V30 10 1 10 11
M  V30 11 2 11 12
M  V30 12 1 11 13
M  V30 13 2 13 14
M  V30 14 1 14 15
M  V30 15 2 15 16
M  V30 16 1 16 17
M  V30 17 2 17 18
M  V30 18 2 9 5
M  V30 19 1 18 13
M  V30 20 1 1 19
M  V30 21 1 1 20
M  V30 22 1 1 21
M  V30 23 1 7 22
M  V30 24 1 8 23
M  V30 25 1 10 24
M  V30 26 1 14 25
M  V30 27 1 15 26
M  V30 28 1 17 27
M  V30 29 1 18 28
M  V30 END BOND
M  V30 END CTAB
M  END
>  <Dataset>  (820) 
ChEMBL_Kinases

>  <Ligand_Instance>  (820) 
nan

>  <PDB_ID>  (820) 
nan

>  <Standardized_SMILES>  (820) 
COC(=O)c1sccc1NC(=O)c1ccncc1

>  <Name>  (820) 
nan

>  <Pocket>  (820) 
nan

>  <ATP_Site>  (820) 
nan

>  <Peripheral>  (820) 
nan

>  <Num_H_Atoms_ProtBoundConf>  (820) 
nan

>  <Num_Resolved_Atoms>  (820) 
nan

>  <Num_Not_Resolved_Atoms>  (820) 
nan

$$$$
CHEMBL4797055
     RDKit          3D

  0  0  0  0  0  0  0  0  0  0999 V3000
M  V30 BEGIN CTAB
M  V30 COUNTS 44 47 0 0 0
M  V30 BEGIN ATOM
M  V30 1 C 4.271117 -4.854139 -3.142498 0
M  V30 2 O 3.166028 -3.980259 -3.246957 0
M  V30 3 C 3.323568 -2.642893 -2.880368 0
M  V30 4 C 4.557113 -2.218586 -2.426955 0
M  V30 5 C 4.711217 -0.901225 -2.066485 0
M  V30 6 C 3.670774 -0.005385 -2.147262 0
M  V30 7 C 2.407908 -0.390767 -2.599451 0
M  V30 8 C 1.231786 0.519058 -2.710551 0
M  V30 9 N 0.477092 0.462314 -1.497558 0
M  V30 10 C 0.763642 1.061682 -0.246658 0
M  V30 11 O 1.815259 1.741688 -0.162034 0
M  V30 12 C -0.063084 0.951702 0.947173 0
M  V30 13 C 0.381798 1.602724 2.085964 0
M  V30 14 C -0.361357 1.542586 3.275665 0
M  V30 15 C -1.533654 0.820053 3.263221 0
M  V30 16 C -1.997231 0.164130 2.144077 0
M  V30 17 C -1.245607 0.239226 0.983981 0
M  V30 18 O -3.171475 -0.557677 2.138427 0
M  V30 19 C -4.026291 -0.700174 3.255436 0
M  V30 20 C -3.527491 -0.003961 4.448997 0
M  V30 21 C -4.318240 -0.110287 5.592364 0
M  V30 22 N -3.895068 0.520501 6.720281 0
M  V30 23 C -2.742210 1.230766 6.737320 0
M  V30 24 C -1.959445 1.341417 5.622571 0
M  V30 25 C -2.348879 0.722230 4.466770 0
M  V30 26 C 2.303915 -1.723496 -2.949628 0
M  V30 27 H 5.021299 -4.690149 -3.950477 0
M  V30 28 H 3.899949 -5.895368 -3.288182 0
M  V30 29 H 4.755097 -4.774366 -2.139537 0
M  V30 30 H 5.428674 -2.858901 -2.332818 0
M  V30 31 H 5.657618 -0.516933 -1.704890 0
M  V30 32 H 3.815187 1.006511 -1.865703 0
M  V30 33 H 0.608588 0.148828 -3.550325 0
M  V30 34 H 1.577031 1.553738 -2.931439 0
M  V30 35 H -0.424040 -0.093680 -1.491225 0
M  V30 36 H 1.312672 2.180731 2.111537 0
M  V30 37 H 0.022898 2.054948 4.110692 0
M  V30 38 H -1.613479 -0.272108 0.123367 0
M  V30 39 H -5.073915 -0.386132 2.994295 0
M  V30 40 H -4.035054 -1.801703 3.470471 0
M  V30 41 H -5.252313 -0.676534 5.608483 0
M  V30 42 H -2.473055 1.706304 7.681090 0
M  V30 43 H -1.080938 1.915619 5.736241 0
M  V30 44 H 1.360480 -2.102855 -3.309835 0
M  V30 END ATOM
M  V30 BEGIN BOND
M  V30 1 1 1 2
M  V30 2 1 2 3
M  V30 3 2 3 4
M  V30 4 1 4 5
M  V30 5 2 5 6
M  V30 6 1 6 7
M  V30 7 1 7 8
M  V30 8 1 8 9
M  V30 9 1 9 10
M  V30 10 2 10 11
M  V30 11 1 10 12
M  V30 12 2 12 13
M  V30 13 1 13 14
M  V30 14 2 14 15
M  V30 15 1 15 16
M  V30 16 2 16 17
M  V30 17 1 16 18
M  V30 18 1 18 19
M  V30 19 1 19 20
M  V30 20 2 20 21
M  V30 21 1 21 22
M  V30 22 2 22 23
M  V30 23 1 23 24
M  V30 24 2 24 25
M  V30 25 2 7 26
M  V30 26 1 26 3
M  V30 27 1 17 12
M  V30 28 1 25 20
M  V30 29 1 25 15
M  V30 30 1 1 27
M  V30 31 1 1 28
M  V30 32 1 1 29
M  V30 33 1 4 30
M  V30 34 1 5 31
M  V30 35 1 6 32
M  V30 36 1 8 33
M  V30 37 1 8 34
M  V30 38 1 9 35
M  V30 39 1 13 36
M  V30 40 1 14 37
M  V30 41 1 17 38
M  V30 42 1 19 39
M  V30 43 1 19 40
M  V30 44 1 21 41
M  V30 45 1 23 42
M  V30 46 1 24 43
M  V30 47 1 26 44
M  V30 END BOND
M  V30 END CTAB
M  END
>  <Dataset>  (821) 
ChEMBL_Kinases

>  <Ligand_Instance>  (821) 
nan

>  <PDB_ID>  (821) 
nan

>  <Standardized_SMILES>  (821) 
COc1cccc(CNC(=O)c2ccc3c(c2)OCc2cnccc2-3)c1

>  <Name>  (821) 
nan

>  <Pocket>  (821) 
nan

>  <ATP_Site>  (821) 
nan

>  <Peripheral>  (821) 
nan

>  <Num_H_Atoms_ProtBoundConf>  (821) 
nan

>  <Num_Resolved_Atoms>  (821) 
nan

>  <Num_Not_Resolved_Atoms>  (821) 
nan

$$$$
CHEMBL4797074
     RDKit          3D

  0  0  0  0  0  0  0  0  0  0999 V3000
M  V30 BEGIN CTAB
M  V30 COUNTS 48 51 0 0 0
M  V30 BEGIN ATOM
M  V30 1 C -0.984080 -7.051697 -3.469425 0
M  V30 2 C 0.015671 -6.205335 -3.316821 0
M  V30 3 C -0.331238 -4.799593 -3.524872 0
M  V30 4 O -1.552898 -4.725513 -3.812153 0
M  V30 5 N 0.808514 -3.934910 -3.342192 0
M  V30 6 C 2.212195 -4.181916 -2.996968 0
M  V30 7 C 2.455155 -3.082836 -2.016854 0
M  V30 8 C 1.638771 -2.082207 -2.296379 0
M  V30 9 C 1.602814 -0.835166 -1.536329 0
M  V30 10 C 2.477353 -0.716374 -0.469307 0
M  V30 11 C 2.512862 0.445058 0.317057 0
M  V30 12 C 1.613287 1.454442 -0.053677 0
M  V30 13 C 1.647300 2.685897 0.777726 0
M  V30 14 C 0.678257 2.532062 1.907347 0
M  V30 15 O 0.062447 1.450770 1.925771 0
M  V30 16 N 0.473481 3.539348 2.885380 0
M  V30 17 C -0.445632 3.393745 3.956449 0
M  V30 18 C -1.278443 2.350252 4.278774 0
M  V30 19 C -2.007897 2.658776 5.429108 0
M  V30 20 C -3.015498 1.730677 6.055241 0
M  V30 21 C -2.665790 0.227500 6.021115 0
M  V30 22 C -3.736005 0.777396 5.135732 0
M  V30 23 N -1.591740 3.888847 5.771233 0
M  V30 24 N -0.690245 4.302232 4.913877 0
M  V30 25 C 0.744298 1.325659 -1.120902 0
M  V30 26 N 0.758022 0.167799 -1.849126 0
M  V30 27 C 0.823169 -2.482161 -3.472866 0
M  V30 28 H -1.746140 -7.826591 -3.573896 0
M  V30 29 H -1.869257 -7.670005 -3.617863 0
M  V30 30 H 0.911353 -6.764166 -3.059921 0
M  V30 31 H 2.222469 -5.166599 -2.483137 0
M  V30 32 H 2.864666 -4.136295 -3.882241 0
M  V30 33 H 3.217820 -3.210124 -1.237165 0
M  V30 34 H 3.193777 -1.481378 -0.148968 0
M  V30 35 H 3.181371 0.578357 1.160001 0
M  V30 36 H 1.424335 3.607021 0.204943 0
M  V30 37 H 2.637852 2.851352 1.243476 0
M  V30 38 H 1.030956 4.415204 2.795827 0
M  V30 39 H -1.378111 1.422453 3.747350 0
M  V30 40 H -3.519981 2.099045 6.961683 0
M  V30 41 H -2.947183 -0.381161 6.914372 0
M  V30 42 H -1.667092 0.006844 5.552359 0
M  V30 43 H -3.503031 0.842185 4.036651 0
M  V30 44 H -4.796650 0.584080 5.377410 0
M  V30 45 H -1.971032 4.372078 6.598609 0
M  V30 46 H 0.069496 2.149079 -1.356522 0
M  V30 47 H 1.369218 -2.225431 -4.384648 0
M  V30 48 H -0.204942 -2.065913 -3.450535 0
M  V30 END ATOM
M  V30 BEGIN BOND
M  V30 1 2 1 2
M  V30 2 1 2 3
M  V30 3 2 3 4
M  V30 4 1 3 5
M  V30 5 1 5 6
M  V30 6 1 6 7
M  V30 7 2 7 8
M  V30 8 1 8 9
M  V30 9 2 9 10
M  V30 10 1 10 11
M  V30 11 2 11 12
M  V30 12 1 12 13
M  V30 13 1 13 14
M  V30 14 2 14 15
M  V30 15 1 14 16
M  V30 16 1 16 17
M  V30 17 1 17 18
M  V30 18 2 18 19
M  V30 19 1 19 20
M  V30 20 1 20 21
M  V30 21 1 21 22
M  V30 22 1 19 23
M  V30 23 1 23 24
M  V30 24 1 12 25
M  V30 25 2 25 26
M  V30 26 1 8 27
M  V30 27 1 27 5
M  V30 28 1 26 9
M  V30 29 2 24 17
M  V30 30 1 22 20
M  V30 31 1 1 28
M  V30 32 1 1 29
M  V30 33 1 2 30
M  V30 34 1 6 31
M  V30 35 1 6 32
M  V30 36 1 7 33
M  V30 37 1 10 34
M  V30 38 1 11 35
M  V30 39 1 13 36
M  V30 40 1 13 37
M  V30 41 1 16 38
M  V30 42 1 18 39
M  V30 43 1 20 40
M  V30 44 1 21 41
M  V30 45 1 21 42
M  V30 46 1 22 43
M  V30 47 1 22 44
M  V30 48 1 23 45
M  V30 49 1 25 46
M  V30 50 1 27 47
M  V30 51 1 27 48
M  V30 END BOND
M  V30 END CTAB
M  END
>  <Dataset>  (822) 
ChEMBL_Kinases

>  <Ligand_Instance>  (822) 
nan

>  <PDB_ID>  (822) 
nan

>  <Standardized_SMILES>  (822) 
C=CC(=O)N1CC=C(c2ccc(CC(=O)Nc3cc(C4CC4)[nH]n3)cn2)C1

>  <Name>  (822) 
nan

>  <Pocket>  (822) 
nan

>  <ATP_Site>  (822) 
nan

>  <Peripheral>  (822) 
nan

>  <Num_H_Atoms_ProtBoundConf>  (822) 
nan

>  <Num_Resolved_Atoms>  (822) 
nan

>  <Num_Not_Resolved_Atoms>  (822) 
nan

$$$$
CHEMBL4876785
     RDKit          3D

  0  0  0  0  0  0  0  0  0  0999 V3000
M  V30 BEGIN CTAB
M  V30 COUNTS 48 52 0 0 0
M  V30 BEGIN ATOM
M  V30 1 C -2.570990 -0.347278 0.972692 0
M  V30 2 C -1.429688 -0.854864 0.158806 0
M  V30 3 N -0.327468 -0.118008 -0.120509 0
M  V30 4 C 0.698496 -0.579323 -0.854274 0
M  V30 5 C 0.701268 -1.871814 -1.389434 0
M  V30 6 C 1.893382 -2.035452 -2.088272 0
M  V30 7 N 2.553097 -0.878769 -1.960002 0
M  V30 8 N 1.874351 0.000719 -1.237424 0
M  V30 9 C 2.218295 1.334265 -0.868918 0
M  V30 10 C 2.537839 2.212767 -1.892999 0
M  V30 11 S 2.915723 3.819302 -0.952059 0
M  V30 12 C 2.607180 3.118390 0.595366 0
M  V30 13 C 2.719585 3.863179 1.887033 0
M  V30 14 O 3.063351 5.068157 1.770400 0
M  V30 15 N 2.443962 3.186992 3.079693 0
M  V30 16 C 2.546007 3.885489 4.336952 0
M  V30 17 C 1.566429 3.507322 5.399430 0
M  V30 18 O 2.520167 2.780124 6.113746 0
M  V30 19 C 3.536721 3.141179 5.230811 0
M  V30 20 C 2.270099 1.854896 0.398913 0
M  V30 21 C -0.410418 -2.643386 -1.119348 0
M  V30 22 C -1.440047 -2.129636 -0.362171 0
M  V30 23 N -2.589243 -2.911323 -0.082378 0
M  V30 24 C -3.024038 -4.205573 -0.410094 0
M  V30 25 C -3.301089 -5.232019 0.468352 0
M  V30 26 C -3.731608 -6.482284 0.077361 0
M  V30 27 C -3.901419 -6.743406 -1.258015 0
M  V30 28 C -3.633349 -5.736390 -2.175705 0
M  V30 29 F -3.834649 -6.103478 -3.465721 0
M  V30 30 C -3.208121 -4.508620 -1.751549 0
M  V30 31 Cl -2.937572 -3.382843 -3.077315 0
M  V30 32 H -3.553773 -0.551607 0.473727 0
M  V30 33 H -2.558598 -0.857092 1.979701 0
M  V30 34 H -2.472436 0.722821 1.165340 0
M  V30 35 H 2.163940 -2.945702 -2.607403 0
M  V30 36 H 2.572737 2.048242 -2.992297 0
M  V30 37 H 2.161329 2.183448 3.127016 0
M  V30 38 H 2.846793 4.949267 4.269849 0
M  V30 39 H 1.245953 4.377440 5.984849 0
M  V30 40 H 0.761063 2.806156 5.098017 0
M  V30 41 H 4.311041 3.802295 5.702718 0
M  V30 42 H 4.026658 2.266765 4.776828 0
M  V30 43 H 2.027660 1.211007 1.261702 0
M  V30 44 H -0.405367 -3.642679 -1.530351 0
M  V30 45 H -3.388328 -2.584481 0.489578 0
M  V30 46 H -3.159814 -5.004933 1.529769 0
M  V30 47 H -3.921249 -7.222265 0.868590 0
M  V30 48 H -4.239838 -7.734208 -1.526271 0
M  V30 END ATOM
M  V30 BEGIN BOND
M  V30 1 1 1 2
M  V30 2 2 2 3
M  V30 3 1 3 4
M  V30 4 2 4 5
M  V30 5 1 5 6
M  V30 6 2 6 7
M  V30 7 1 7 8
M  V30 8 1 8 9
M  V30 9 2 9 10
M  V30 10 1 10 11
M  V30 11 1 11 12
M  V30 12 1 12 13
M  V30 13 2 13 14
M  V30 14 1 13 15
M  V30 15 1 15 16
M  V30 16 1 16 17
M  V30 17 1 17 18
M  V30 18 1 18 19
M  V30 19 2 12 20
M  V30 20 1 5 21
M  V30 21 2 21 22
M  V30 22 1 22 23
M  V30 23 1 23 24
M  V30 24 2 24 25
M  V30 25 1 25 26
M  V30 26 2 26 27
M  V30 27 1 27 28
M  V30 28 1 28 29
M  V30 29 2 28 30
M  V30 30 1 30 31
M  V30 31 1 22 2
M  V30 32 1 30 24
M  V30 33 1 8 4
M  V30 34 1 20 9
M  V30 35 1 19 16
M  V30 36 1 1 32
M  V30 37 1 1 33
M  V30 38 1 1 34
M  V30 39 1 6 35
M  V30 40 1 10 36
M  V30 41 1 15 37
M  V30 42 1 16 38
M  V30 43 1 17 39
M  V30 44 1 17 40
M  V30 45 1 19 41
M  V30 46 1 19 42
M  V30 47 1 20 43
M  V30 48 1 21 44
M  V30 49 1 23 45
M  V30 50 1 25 46
M  V30 51 1 26 47
M  V30 52 1 27 48
M  V30 END BOND
M  V30 END CTAB
M  END
>  <Dataset>  (823) 
ChEMBL_Kinases

>  <Ligand_Instance>  (823) 
nan

>  <PDB_ID>  (823) 
nan

>  <Standardized_SMILES>  (823) 
Cc1nc2c(cnn2-c2csc(C(=O)NC3COC3)c2)cc1Nc1cccc(F)c1Cl

>  <Name>  (823) 
nan

>  <Pocket>  (823) 
nan

>  <ATP_Site>  (823) 
nan

>  <Peripheral>  (823) 
nan

>  <Num_H_Atoms_ProtBoundConf>  (823) 
nan

>  <Num_Resolved_Atoms>  (823) 
nan

>  <Num_Not_Resolved_Atoms>  (823) 
nan

$$$$
CHEMBL4797329
     RDKit          3D

  0  0  0  0  0  0  0  0  0  0999 V3000
M  V30 BEGIN CTAB
M  V30 COUNTS 64 69 0 0 0
M  V30 BEGIN ATOM
M  V30 1 O 2.225949 -2.148225 6.277168 0
M  V30 2 C 2.217651 -1.036013 5.412526 0
M  V30 3 C 1.849375 -1.451734 4.035997 0
M  V30 4 C 2.538107 -1.440538 2.864444 0
M  V30 5 C 1.934610 -1.891601 1.709751 0
M  V30 6 N 2.695137 -1.861409 0.509019 0
M  V30 7 C 2.086955 -2.311151 -0.703037 0
M  V30 8 C 1.418135 -1.372879 -1.495143 0
M  V30 9 C 0.778529 -1.671597 -2.701691 0
M  V30 10 O 0.163055 -0.656523 -3.374520 0
M  V30 11 C -1.125010 -0.218668 -3.253274 0
M  V30 12 C -1.256605 1.120075 -2.864281 0
M  V30 13 N -2.571930 1.419248 -2.783661 0
M  V30 14 C -3.236202 2.660253 -2.426193 0
M  V30 15 C -4.613705 2.913064 -2.912557 0
M  V30 16 C -4.366257 2.657217 -1.454171 0
M  V30 17 N -3.262745 0.325621 -3.105381 0
M  V30 18 C -2.413945 -0.679250 -3.393634 0
M  V30 19 C -2.593752 -2.094558 -3.805845 0
M  V30 20 C -2.643387 -2.280765 -5.295289 0
M  V30 21 C -4.151262 -2.161754 -5.216211 0
M  V30 22 F -4.597533 -0.874228 -5.442052 0
M  V30 23 F -4.808150 -3.111251 -5.962614 0
M  V30 24 C -4.072422 -2.493481 -3.736816 0
M  V30 25 C 0.872250 -3.023736 -3.048870 0
M  V30 26 C 1.519205 -3.944473 -2.287761 0
M  V30 27 N 2.124190 -3.591957 -1.120313 0
M  V30 28 C 0.636776 -2.358533 1.713760 0
M  V30 29 C -0.031422 -2.357194 2.911376 0
M  V30 30 N 0.562794 -1.911943 4.053904 0
M  V30 31 C 3.619029 -0.473071 5.465810 0
M  V30 32 C 3.636044 0.496861 6.658548 0
M  V30 33 C 2.970319 1.767593 6.110904 0
M  V30 34 F 2.977861 2.725085 7.089503 0
M  V30 35 F 3.699791 2.191295 5.007225 0
M  V30 36 C 1.603484 1.386195 5.628277 0
M  V30 37 C 1.201108 -0.025715 5.934919 0
M  V30 38 H 2.489687 -1.805515 7.164702 0
M  V30 39 H 3.523784 -1.067050 2.963102 0
M  V30 40 H 3.666016 -1.529557 0.472792 0
M  V30 41 H 1.398623 -0.348354 -1.144011 0
M  V30 42 H -0.556334 1.922307 -2.627485 0
M  V30 43 H -2.558631 3.541828 -2.388542 0
M  V30 44 H -5.205450 2.120162 -3.444359 0
M  V30 45 H -4.915657 3.946043 -3.197991 0
M  V30 46 H -4.504085 3.526543 -0.767677 0
M  V30 47 H -4.698367 1.678652 -1.048836 0
M  V30 48 H -2.006405 -2.842275 -3.274086 0
M  V30 49 H -2.358283 -3.284067 -5.672636 0
M  V30 50 H -2.184384 -1.486690 -5.891730 0
M  V30 51 H -4.682094 -1.813168 -3.139627 0
M  V30 52 H -4.216955 -3.581386 -3.525964 0
M  V30 53 H 0.371394 -3.264533 -3.995913 0
M  V30 54 H 1.524064 -4.954947 -2.658664 0
M  V30 55 H 0.219796 -2.697388 0.780632 0
M  V30 56 H -1.044799 -2.731882 2.866153 0
M  V30 57 H 4.390235 -1.264747 5.590577 0
M  V30 58 H 3.826378 0.141512 4.545426 0
M  V30 59 H 4.649893 0.692972 7.026478 0
M  V30 60 H 2.937842 0.149651 7.447078 0
M  V30 61 H 0.847098 2.036754 6.134889 0
M  V30 62 H 1.484221 1.530744 4.530173 0
M  V30 63 H 0.259093 -0.224023 5.382239 0
M  V30 64 H 0.967757 -0.197224 7.007181 0
M  V30 END ATOM
M  V30 BEGIN BOND
M  V30 1 1 1 2
M  V30 2 1 2 3
M  V30 3 2 3 4
M  V30 4 1 4 5
M  V30 5 1 5 6
M  V30 6 1 6 7
M  V30 7 2 7 8
M  V30 8 1 8 9
M  V30 9 1 9 10
M  V30 10 1 10 11
M  V30 11 2 11 12
M  V30 12 1 12 13
M  V30 13 1 13 14
M  V30 14 1 14 15
M  V30 15 1 15 16
M  V30 16 1 13 17
M  V30 17 2 17 18
M  V30 18 1 18 19
M  V30 19 1 19 20
M  V30 20 1 20 21
M  V30 21 1 21 22
M  V30 22 1 21 23
M  V30 23 1 21 24
M  V30 24 2 9 25
M  V30 25 1 25 26
M  V30 26 2 26 27
M  V30 27 2 5 28
M  V30 28 1 28 29
M  V30 29 2 29 30
M  V30 30 1 2 31
M  V30 31 1 31 32
M  V30 32 1 32 33
M  V30 33 1 33 34
M  V30 34 1 33 35
M  V30 35 1 33 36
M  V30 36 1 36 37
M  V30 37 1 37 2
M  V30 38 1 30 3
M  V30 39 1 27 7
M  V30 40 1 18 11
M  V30 41 1 24 19
M  V30 42 1 16 14
M  V30 43 1 1 38
M  V30 44 1 4 39
M  V30 45 1 6 40
M  V30 46 1 8 41
M  V30 47 1 12 42
M  V30 48 1 14 43
M  V30 49 1 15 44
M  V30 50 1 15 45
M  V30 51 1 16 46
M  V30 52 1 16 47
M  V30 53 1 19 48
M  V30 54 1 20 49
M  V30 55 1 20 50
M  V30 56 1 24 51
M  V30 57 1 24 52
M  V30 58 1 25 53
M  V30 59 1 26 54
M  V30 60 1 28 55
M  V30 61 1 29 56
M  V30 62 1 31 57
M  V30 63 1 31 58
M  V30 64 1 32 59
M  V30 65 1 32 60
M  V30 66 1 36 61
M  V30 67 1 36 62
M  V30 68 1 37 63
M  V30 69 1 37 64
M  V30 END BOND
M  V30 END CTAB
M  END
>  <Dataset>  (824) 
ChEMBL_Kinases

>  <Ligand_Instance>  (824) 
nan

>  <PDB_ID>  (824) 
nan

>  <Standardized_SMILES>  (824) 
OC1(c2cc(Nc3cc(Oc4cn(C5CC5)nc4C4CC(F)(F)C4)ccn3)ccn2)CCC(F)(F)CC1

>  <Name>  (824) 
nan

>  <Pocket>  (824) 
nan

>  <ATP_Site>  (824) 
nan

>  <Peripheral>  (824) 
nan

>  <Num_H_Atoms_ProtBoundConf>  (824) 
nan

>  <Num_Resolved_Atoms>  (824) 
nan

>  <Num_Not_Resolved_Atoms>  (824) 
nan

$$$$
CHEMBL4797403
     RDKit          3D

  0  0  0  0  0  0  0  0  0  0999 V3000
M  V30 BEGIN CTAB
M  V30 COUNTS 46 49 0 0 0
M  V30 BEGIN ATOM
M  V30 1 C 6.299720 -3.632132 0.411639 0
M  V30 2 O 5.235585 -4.380650 -0.148108 0
M  V30 3 C 4.058824 -3.789727 -0.588477 0
M  V30 4 C 3.063090 -4.577341 -1.123939 0
M  V30 5 C 1.913192 -3.947428 -1.547593 0
M  V30 6 C 1.793561 -2.578037 -1.426751 0
M  V30 7 C 2.793662 -1.788380 -0.889174 0
M  V30 8 C 2.671344 -0.294228 -0.754253 0 CFG=1
M  V30 9 C 2.925803 0.321719 -2.090588 0
M  V30 10 N 1.345416 -0.040511 -0.229340 0
M  V30 11 C 1.064671 0.541814 1.036685 0
M  V30 12 O 2.027992 0.869745 1.772977 0
M  V30 13 C -0.283676 0.782786 1.535061 0
M  V30 14 C -0.396248 1.355464 2.786366 0
M  V30 15 C -1.651431 1.622690 3.347339 0
M  V30 16 C -2.766484 1.305784 2.632579 0
M  V30 17 C -2.692993 0.725628 1.364106 0
M  V30 18 C -1.432364 0.474045 0.837398 0
M  V30 19 C -3.826846 0.340167 0.495297 0
M  V30 20 O -5.054203 0.629871 1.120386 0
M  V30 21 C -5.200378 1.195287 2.355365 0
M  V30 22 C -6.417790 1.470483 2.940406 0
M  V30 23 N -6.480009 2.024816 4.152610 0
M  V30 24 C -5.406572 2.355451 4.891664 0
M  V30 25 N -4.202160 2.100784 4.351496 0
M  V30 26 C -4.115269 1.543033 3.131853 0
M  V30 27 C 3.949056 -2.429817 -0.464603 0
M  V30 28 H 6.605464 -2.881824 -0.366039 0
M  V30 29 H 7.155595 -4.321509 0.559737 0
M  V30 30 H 6.066469 -3.152886 1.364686 0
M  V30 31 H 3.187444 -5.642799 -1.204083 0
M  V30 32 H 1.077470 -4.504467 -1.983778 0
M  V30 33 H 0.880469 -2.111549 -1.767805 0
M  V30 34 H 3.461810 0.033800 -0.047464 0
M  V30 35 H 3.019596 1.422543 -1.941727 0
M  V30 36 H 2.184372 0.052475 -2.849162 0
M  V30 37 H 3.911486 -0.042443 -2.444259 0
M  V30 38 H 0.562126 -0.318168 -0.853235 0
M  V30 39 H 0.435114 1.633764 3.411029 0
M  V30 40 H -1.775255 2.076538 4.337536 0
M  V30 41 H -1.299758 0.035721 -0.119644 0
M  V30 42 H -3.741620 -0.698253 0.119674 0
M  V30 43 H -3.792997 1.020762 -0.405495 0
M  V30 44 H -7.327856 1.218887 2.376074 0
M  V30 45 H -5.701594 2.789048 5.836807 0
M  V30 46 H 4.764469 -1.857426 -0.035352 0
M  V30 END ATOM
M  V30 BEGIN BOND
M  V30 1 1 1 2
M  V30 2 1 2 3
M  V30 3 2 3 4
M  V30 4 1 4 5
M  V30 5 2 5 6
M  V30 6 1 6 7
M  V30 7 1 7 8
M  V30 8 1 8 9
M  V30 9 1 8 10
M  V30 10 1 10 11
M  V30 11 2 11 12
M  V30 12 1 11 13
M  V30 13 2 13 14
M  V30 14 1 14 15
M  V30 15 2 15 16
M  V30 16 1 16 17
M  V30 17 2 17 18
M  V30 18 1 17 19
M  V30 19 1 19 20
M  V30 20 1 20 21
M  V30 21 2 21 22
M  V30 22 1 22 23
M  V30 23 2 23 24
M  V30 24 1 24 25
M  V30 25 2 25 26
M  V30 26 2 7 27
M  V30 27 1 27 3
M  V30 28 1 18 13
M  V30 29 1 26 21
M  V30 30 1 26 16
M  V30 31 1 1 28
M  V30 32 1 1 29
M  V30 33 1 1 30
M  V30 34 1 4 31
M  V30 35 1 5 32
M  V30 36 1 6 33
M  V30 37 1 8 34 CFG=1
M  V30 38 1 9 35
M  V30 39 1 9 36
M  V30 40 1 9 37
M  V30 41 1 10 38
M  V30 42 1 14 39
M  V30 43 1 15 40
M  V30 44 1 18 41
M  V30 45 1 19 42
M  V30 46 1 19 43
M  V30 47 1 22 44
M  V30 48 1 24 45
M  V30 49 1 27 46
M  V30 END BOND
M  V30 END CTAB
M  END
>  <Dataset>  (825) 
ChEMBL_Kinases

>  <Ligand_Instance>  (825) 
nan

>  <PDB_ID>  (825) 
nan

>  <Standardized_SMILES>  (825) 
COc1cccc([C@@H](C)NC(=O)c2ccc3c(c2)COc2cncnc2-3)c1

>  <Name>  (825) 
nan

>  <Pocket>  (825) 
nan

>  <ATP_Site>  (825) 
nan

>  <Peripheral>  (825) 
nan

>  <Num_H_Atoms_ProtBoundConf>  (825) 
nan

>  <Num_Resolved_Atoms>  (825) 
nan

>  <Num_Not_Resolved_Atoms>  (825) 
nan

$$$$
CHEMBL4797447
     RDKit          3D

  0  0  0  0  0  0  0  0  0  0999 V3000
M  V30 BEGIN CTAB
M  V30 COUNTS 67 71 0 0 0
M  V30 BEGIN ATOM
M  V30 1 C 4.979241 0.771318 4.440309 0
M  V30 2 C 4.352610 1.793384 3.524672 0
M  V30 3 O 4.840819 3.037303 3.841981 0
M  V30 4 C 4.743096 1.452097 2.095725 0
M  V30 5 C 4.368980 2.625174 1.252034 0
M  V30 6 C 2.963670 3.111833 1.400758 0
M  V30 7 C 2.178391 2.655926 0.218354 0
M  V30 8 N 2.081171 3.359414 -0.948802 0
M  V30 9 N 1.331128 2.706225 -1.796437 0
M  V30 10 C 1.008235 3.166434 -3.155770 0
M  V30 11 C 1.518385 2.219176 -4.252817 0
M  V30 12 C 0.069203 2.350450 -3.978342 0
M  V30 13 C 0.872397 1.545833 -1.294178 0
M  V30 14 C 1.417184 1.535830 -0.028343 0
M  V30 15 O 1.228121 0.521575 0.898748 0
M  V30 16 C 0.456746 -0.600859 0.629361 0
M  V30 17 C 1.043770 -1.722759 0.086280 0
M  V30 18 C 0.241081 -2.813824 -0.165159 0
M  V30 19 N -1.045994 -2.738375 0.122597 0
M  V30 20 C -1.699302 -1.694889 0.649245 0
M  V30 21 N -3.080852 -1.615138 0.955348 0
M  V30 22 C -4.068865 -2.614195 0.775108 0
M  V30 23 C -5.406200 -2.361269 1.088569 0
M  V30 24 C -6.392764 -3.305481 0.927989 0
M  V30 25 N -6.090391 -4.528565 0.453071 0
M  V30 26 C -4.807605 -4.855238 0.123284 0
M  V30 27 C -4.461709 -6.217677 -0.406959 0
M  V30 28 C -4.557643 -6.233231 -1.896812 0
M  V30 29 C -5.266702 -7.290687 0.256595 0
M  V30 30 O -3.108846 -6.432777 -0.063942 0
M  V30 31 C -3.855817 -3.883396 0.299302 0
M  V30 32 C -0.884202 -0.613010 0.894854 0
M  V30 33 C 2.321375 2.872741 2.709461 0
M  V30 34 C 2.839306 1.765437 3.553575 0
M  V30 35 H 6.023445 1.094450 4.667633 0
M  V30 36 H 5.061235 -0.200164 3.913916 0
M  V30 37 H 4.433922 0.608144 5.371838 0
M  V30 38 H 5.348475 3.056901 4.704632 0
M  V30 39 H 5.842562 1.366026 2.073150 0
M  V30 40 H 4.232519 0.526300 1.812434 0
M  V30 41 H 4.512893 2.302471 0.185242 0
M  V30 42 H 5.126627 3.426931 1.406421 0
M  V30 43 H 3.048500 4.249982 1.301925 0
M  V30 44 H 1.107766 4.246371 -3.332741 0
M  V30 45 H 2.058174 1.317152 -3.944629 0
M  V30 46 H 1.935869 2.691237 -5.171831 0
M  V30 47 H -0.510309 2.938466 -4.718009 0
M  V30 48 H -0.464803 1.547243 -3.454053 0
M  V30 49 H 0.243643 0.770150 -1.698298 0
M  V30 50 H 2.102544 -1.776177 -0.147237 0
M  V30 51 H 0.670984 -3.719229 -0.594661 0
M  V30 52 H -3.424410 -0.708200 1.367061 0
M  V30 53 H -5.672347 -1.372148 1.476356 0
M  V30 54 H -7.413705 -3.056051 1.186900 0
M  V30 55 H -4.331148 -5.187933 -2.259713 0
M  V30 56 H -5.574138 -6.469177 -2.289364 0
M  V30 57 H -3.760915 -6.871061 -2.331290 0
M  V30 58 H -6.180905 -7.563612 -0.308514 0
M  V30 59 H -4.627015 -8.190071 0.362144 0
M  V30 60 H -5.496350 -6.934730 1.291291 0
M  V30 61 H -2.970688 -6.056937 0.861160 0
M  V30 62 H -2.871728 -4.184314 0.029575 0
M  V30 63 H -1.292247 0.296604 1.321802 0
M  V30 64 H 1.216443 2.826839 2.554616 0
M  V30 65 H 2.441687 3.811235 3.336941 0
M  V30 66 H 2.487862 0.747443 3.288097 0
M  V30 67 H 2.578306 1.996860 4.632318 0
M  V30 END ATOM
M  V30 BEGIN BOND
M  V30 1 1 1 2
M  V30 2 1 2 3
M  V30 3 1 2 4
M  V30 4 1 4 5
M  V30 5 1 5 6
M  V30 6 1 6 7
M  V30 7 2 7 8
M  V30 8 1 8 9
M  V30 9 1 9 10
M  V30 10 1 10 11
M  V30 11 1 11 12
M  V30 12 1 9 13
M  V30 13 2 13 14
M  V30 14 1 14 15
M  V30 15 1 15 16
M  V30 16 2 16 17
M  V30 17 1 17 18
M  V30 18 2 18 19
M  V30 19 1 19 20
M  V30 20 1 20 21
M  V30 21 1 21 22
M  V30 22 2 22 23
M  V30 23 1 23 24
M  V30 24 2 24 25
M  V30 25 1 25 26
M  V30 26 1 26 27
M  V30 27 1 27 28
M  V30 28 1 27 29
M  V30 29 1 27 30
M  V30 30 2 26 31
M  V30 31 2 20 32
M  V30 32 1 6 33
M  V30 33 1 33 34
M  V30 34 1 34 2
M  V30 35 1 14 7
M  V30 36 1 32 16
M  V30 37 1 12 10
M  V30 38 1 31 22
M  V30 39 1 1 35
M  V30 40 1 1 36
M  V30 41 1 1 37
M  V30 42 1 3 38
M  V30 43 1 4 39
M  V30 44 1 4 40
M  V30 45 1 5 41
M  V30 46 1 5 42
M  V30 47 1 6 43
M  V30 48 1 10 44
M  V30 49 1 11 45
M  V30 50 1 11 46
M  V30 51 1 12 47
M  V30 52 1 12 48
M  V30 53 1 13 49
M  V30 54 1 17 50
M  V30 55 1 18 51
M  V30 56 1 21 52
M  V30 57 1 23 53
M  V30 58 1 24 54
M  V30 59 1 28 55
M  V30 60 1 28 56
M  V30 61 1 28 57
M  V30 62 1 29 58
M  V30 63 1 29 59
M  V30 64 1 29 60
M  V30 65 1 30 61
M  V30 66 1 31 62
M  V30 67 1 32 63
M  V30 68 1 33 64
M  V30 69 1 33 65
M  V30 70 1 34 66
M  V30 71 1 34 67
M  V30 END BOND
M  V30 END CTAB
M  END
>  <Dataset>  (826) 
ChEMBL_Kinases

>  <Ligand_Instance>  (826) 
nan

>  <PDB_ID>  (826) 
nan

>  <Standardized_SMILES>  (826) 
CC1(O)CCC(c2nn(C3CC3)cc2Oc2ccnc(Nc3ccnc(C(C)(C)O)c3)c2)CC1

>  <Name>  (826) 
nan

>  <Pocket>  (826) 
nan

>  <ATP_Site>  (826) 
nan

>  <Peripheral>  (826) 
nan

>  <Num_H_Atoms_ProtBoundConf>  (826) 
nan

>  <Num_Resolved_Atoms>  (826) 
nan

>  <Num_Not_Resolved_Atoms>  (826) 
nan

$$$$
CHEMBL4877552
     RDKit          3D

  0  0  0  0  0  0  0  0  0  0999 V3000
M  V30 BEGIN CTAB
M  V30 COUNTS 50 54 0 0 0
M  V30 BEGIN ATOM
M  V30 1 O 3.820426 -5.056767 0.736709 0
M  V30 2 C 2.720295 -4.474120 0.544293 0
M  V30 3 O 2.089188 -5.683460 0.771970 0
M  V30 4 C 2.422734 -3.084643 0.222200 0
M  V30 5 C 3.591893 -2.358245 0.125631 0
M  V30 6 C 3.490744 -1.006658 -0.179819 0
M  V30 7 C 2.231926 -0.473032 -0.367907 0
M  V30 8 C 2.135447 0.949969 -0.690236 0
M  V30 9 C 2.946810 1.563684 -1.641564 0
M  V30 10 N 2.595042 2.882180 -1.692010 0
M  V30 11 N 1.622908 3.108856 -0.833374 0
M  V30 12 C 0.916231 4.205013 -0.480342 0
M  V30 13 C -0.068346 4.119146 0.482767 0
M  V30 14 C -0.375568 2.936657 1.120856 0
M  V30 15 C -1.402186 2.779369 2.147036 0
M  V30 16 C -1.543599 1.488404 2.660032 0
M  V30 17 C -2.539960 1.401163 3.640166 0
M  V30 18 C -3.331857 2.432787 4.097005 0
M  V30 19 C -3.123405 3.675201 3.533788 0
M  V30 20 C -2.168345 3.843766 2.569578 0
M  V30 21 N 0.350306 1.870165 0.740721 0
M  V30 22 C 1.320248 1.957632 -0.208982 0
M  V30 23 C 1.076976 -1.218908 -0.266246 0
M  V30 24 C 1.171706 -2.536323 0.031328 0
M  V30 25 C 0.083142 -3.503934 0.187603 0
M  V30 26 C -0.280189 -4.236186 -1.098342 0
M  V30 27 C -1.549898 -4.954847 -0.617857 0
M  V30 28 C -2.199341 -3.962827 0.346661 0
M  V30 29 C -1.248010 -2.772835 0.413917 0
M  V30 30 H 1.831556 -6.355243 0.053682 0
M  V30 31 H 4.602176 -2.701616 0.258258 0
M  V30 32 H 4.375152 -0.358874 -0.274571 0
M  V30 33 H 3.739929 1.137822 -2.271435 0
M  V30 34 H 1.108212 5.156491 -0.941286 0
M  V30 35 H -0.616757 4.999173 0.748281 0
M  V30 36 H -0.978897 0.633193 2.369477 0
M  V30 37 H -2.667070 0.391082 4.058143 0
M  V30 38 H -4.063057 2.203967 4.864439 0
M  V30 39 H -3.742212 4.487391 3.889347 0
M  V30 40 H -2.054755 4.825239 2.172758 0
M  V30 41 H 0.112605 -0.808072 -0.409906 0
M  V30 42 H 0.246268 -4.268431 0.962481 0
M  V30 43 H 0.491663 -4.915993 -1.451724 0
M  V30 44 H -0.653742 -3.533979 -1.873334 0
M  V30 45 H -1.220102 -5.818657 -0.036582 0
M  V30 46 H -2.199866 -5.231324 -1.458380 0
M  V30 47 H -2.273991 -4.378506 1.366676 0
M  V30 48 H -3.191860 -3.630955 -0.019071 0
M  V30 49 H -1.287848 -2.226662 1.352578 0
M  V30 50 H -1.411199 -2.138688 -0.486146 0
M  V30 END ATOM
M  V30 BEGIN BOND
M  V30 1 2 1 2
M  V30 2 1 2 3
M  V30 3 1 2 4
M  V30 4 2 4 5
M  V30 5 1 5 6
M  V30 6 2 6 7
M  V30 7 1 7 8
M  V30 8 1 8 9
M  V30 9 2 9 10
M  V30 10 1 10 11
M  V30 11 1 11 12
M  V30 12 2 12 13
M  V30 13 1 13 14
M  V30 14 1 14 15
M  V30 15 2 15 16
M  V30 16 1 16 17
M  V30 17 2 17 18
M  V30 18 1 18 19
M  V30 19 2 19 20
M  V30 20 2 14 21
M  V30 21 1 21 22
M  V30 22 1 7 23
M  V30 23 2 23 24
M  V30 24 1 24 25
M  V30 25 1 25 26
M  V30 26 1 26 27
M  V30 27 1 27 28
M  V30 28 1 28 29
M  V30 29 1 24 4
M  V30 30 1 29 25
M  V30 31 2 22 8
M  V30 32 1 22 11
M  V30 33 1 20 15
M  V30 34 1 3 30
M  V30 35 1 5 31
M  V30 36 1 6 32
M  V30 37 1 9 33
M  V30 38 1 12 34
M  V30 39 1 13 35
M  V30 40 1 16 36
M  V30 41 1 17 37
M  V30 42 1 18 38
M  V30 43 1 19 39
M  V30 44 1 20 40
M  V30 45 1 23 41
M  V30 46 1 25 42
M  V30 47 1 26 43
M  V30 48 1 26 44
M  V30 49 1 27 45
M  V30 50 1 27 46
M  V30 51 1 28 47
M  V30 52 1 28 48
M  V30 53 1 29 49
M  V30 54 1 29 50
M  V30 END BOND
M  V30 END CTAB
M  END
>  <Dataset>  (827) 
ChEMBL_Kinases

>  <Ligand_Instance>  (827) 
nan

>  <PDB_ID>  (827) 
nan

>  <Standardized_SMILES>  (827) 
O=C(O)c1ccc(-c2cnn3ccc(-c4ccccc4)nc23)cc1C1CCCC1

>  <Name>  (827) 
nan

>  <Pocket>  (827) 
nan

>  <ATP_Site>  (827) 
nan

>  <Peripheral>  (827) 
nan

>  <Num_H_Atoms_ProtBoundConf>  (827) 
nan

>  <Num_Resolved_Atoms>  (827) 
nan

>  <Num_Not_Resolved_Atoms>  (827) 
nan

$$$$
CHEMBL4876004
     RDKit          3D

  0  0  0  0  0  0  0  0  0  0999 V3000
M  V30 BEGIN CTAB
M  V30 COUNTS 44 46 0 0 0
M  V30 BEGIN ATOM
M  V30 1 C 0.249687 -5.035435 4.552161 0
M  V30 2 O 0.023581 -5.057560 3.182220 0
M  V30 3 C 0.146974 -3.958580 2.348167 0
M  V30 4 C 0.522248 -2.772712 2.971771 0
M  V30 5 C 0.653783 -1.660319 2.172837 0
M  V30 6 C 0.432453 -1.692412 0.819771 0
M  V30 7 N 0.547186 -0.587259 -0.063487 0
M  V30 8 C -0.447923 0.295541 -0.553899 0
M  V30 9 C -0.362509 1.596007 -0.743392 0
M  V30 10 C 0.652067 2.618149 -0.564153 0
M  V30 11 C 0.899357 3.468614 -1.641818 0
M  V30 12 C 1.803214 4.524734 -1.697871 0
M  V30 13 C 2.510750 4.710897 -0.529279 0
M  V30 14 C 2.318462 3.911032 0.570306 0
M  V30 15 C 1.410034 2.883359 0.563196 0
M  V30 16 O 1.216079 2.087804 1.658807 0
M  V30 17 C 1.880588 2.209510 2.880926 0
M  V30 18 C -1.673530 2.042286 -1.269447 0
M  V30 19 O -2.100549 3.205381 -1.612374 0
M  V30 20 N -2.564551 0.926077 -1.389099 0
M  V30 21 C -1.784668 -0.163041 -0.937191 0
M  V30 22 O -2.289942 -1.337990 -0.913801 0
M  V30 23 C 0.060202 -2.853326 0.176772 0
M  V30 24 C -0.075743 -3.981799 0.981647 0
M  V30 25 O -0.441130 -5.241541 0.544465 0
M  V30 26 C -0.734357 -5.568928 -0.795658 0
M  V30 27 H -0.177260 -5.964177 4.997622 0
M  V30 28 H 1.350709 -5.087335 4.736592 0
M  V30 29 H -0.207455 -4.112793 4.982565 0
M  V30 30 H 0.731986 -2.596302 4.020859 0
M  V30 31 H 0.928758 -0.666466 2.476416 0
M  V30 32 H 1.566772 -0.475892 -0.359598 0
M  V30 33 H 0.325703 3.302875 -2.558756 0
M  V30 34 H 1.893857 5.101644 -2.601221 0
M  V30 35 H 3.233366 5.540698 -0.552091 0
M  V30 36 H 2.927546 4.153719 1.422968 0
M  V30 37 H 2.045212 1.208154 3.320403 0
M  V30 38 H 1.256824 2.810063 3.582266 0
M  V30 39 H 2.863989 2.704022 2.798257 0
M  V30 40 H -3.563602 0.924504 -1.732605 0
M  V30 41 H -0.150203 -3.052572 -0.859472 0
M  V30 42 H 0.079200 -5.310122 -1.500649 0
M  V30 43 H -1.668141 -5.049570 -1.113954 0
M  V30 44 H -0.891138 -6.669760 -0.893592 0
M  V30 END ATOM
M  V30 BEGIN BOND
M  V30 1 1 1 2
M  V30 2 1 2 3
M  V30 3 2 3 4
M  V30 4 1 4 5
M  V30 5 2 5 6
M  V30 6 1 6 7
M  V30 7 1 7 8
M  V30 8 2 8 9
M  V30 9 1 9 10
M  V30 10 2 10 11
M  V30 11 1 11 12
M  V30 12 2 12 13
M  V30 13 1 13 14
M  V30 14 2 14 15
M  V30 15 1 15 16
M  V30 16 1 16 17
M  V30 17 1 9 18
M  V30 18 2 18 19
M  V30 19 1 18 20
M  V30 20 1 20 21
M  V30 21 2 21 22
M  V30 22 1 6 23
M  V30 23 2 23 24
M  V30 24 1 24 25
M  V30 25 1 25 26
M  V30 26 1 24 3
M  V30 27 1 21 8
M  V30 28 1 15 10
M  V30 29 1 1 27
M  V30 30 1 1 28
M  V30 31 1 1 29
M  V30 32 1 4 30
M  V30 33 1 5 31
M  V30 34 1 7 32
M  V30 35 1 11 33
M  V30 36 1 12 34
M  V30 37 1 13 35
M  V30 38 1 14 36
M  V30 39 1 17 37
M  V30 40 1 17 38
M  V30 41 1 17 39
M  V30 42 1 20 40
M  V30 43 1 23 41
M  V30 44 1 26 42
M  V30 45 1 26 43
M  V30 46 1 26 44
M  V30 END BOND
M  V30 END CTAB
M  END
>  <Dataset>  (828) 
ChEMBL_Kinases

>  <Ligand_Instance>  (828) 
nan

>  <PDB_ID>  (828) 
nan

>  <Standardized_SMILES>  (828) 
COc1ccc(NC2=C(c3ccccc3OC)C(=O)NC2=O)cc1OC

>  <Name>  (828) 
nan

>  <Pocket>  (828) 
nan

>  <ATP_Site>  (828) 
nan

>  <Peripheral>  (828) 
nan

>  <Num_H_Atoms_ProtBoundConf>  (828) 
nan

>  <Num_Resolved_Atoms>  (828) 
nan

>  <Num_Not_Resolved_Atoms>  (828) 
nan

$$$$
CHEMBL4875961
     RDKit          3D

  0  0  0  0  0  0  0  0  0  0999 V3000
M  V30 BEGIN CTAB
M  V30 COUNTS 50 53 0 0 0
M  V30 BEGIN ATOM
M  V30 1 C 1.546823 -4.744719 2.264222 0
M  V30 2 C 2.745655 -3.857671 1.921673 0
M  V30 3 C 3.892855 -4.836896 1.646879 0
M  V30 4 O 2.466807 -3.134393 0.764802 0
M  V30 5 C 2.551111 -1.761190 0.719525 0
M  V30 6 C 2.885175 -0.803298 1.652596 0
M  V30 7 C 2.879588 0.529757 1.302243 0
M  V30 8 C 2.548909 0.969323 0.034283 0
M  V30 9 N 2.596955 2.372702 -0.145528 0
M  V30 10 S 1.323461 3.201814 -0.972495 0
M  V30 11 O 1.196501 2.583714 -2.330296 0
M  V30 12 O 1.662824 4.661927 -1.068324 0
M  V30 13 C -0.171884 2.973053 -0.085500 0
M  V30 14 C -0.454272 3.923572 0.889389 0
M  V30 15 C -1.588241 3.898042 1.682222 0
M  V30 16 C -2.461628 2.849569 1.456966 0
M  V30 17 C -2.191994 1.900142 0.492116 0
M  V30 18 C -3.147970 0.814981 0.296277 0
M  V30 19 N -4.492733 1.021442 0.233501 0
M  V30 20 N -5.125984 -0.127237 0.051039 0
M  V30 21 C -4.208920 -1.110571 -0.009549 0
M  V30 22 C -4.256055 -2.497498 -0.182832 0
M  V30 23 C -3.081867 -3.229932 -0.195768 0
M  V30 24 F -3.159672 -4.589306 -0.367676 0
M  V30 25 C -1.854900 -2.616334 -0.040070 0
M  V30 26 C -1.786775 -1.240716 0.133200 0
M  V30 27 C -2.958173 -0.544190 0.141912 0
M  V30 28 C -1.056604 1.936402 -0.293018 0
M  V30 29 C 2.207939 0.013693 -0.923555 0
M  V30 30 C 2.216414 -1.334722 -0.559274 0
M  V30 31 H 1.605348 -5.626934 1.594380 0
M  V30 32 H 1.680942 -5.118739 3.300409 0
M  V30 33 H 0.595127 -4.191354 2.116894 0
M  V30 34 H 3.031122 -3.234991 2.767847 0
M  V30 35 H 4.845428 -4.399690 2.021827 0
M  V30 36 H 3.738892 -5.769003 2.203365 0
M  V30 37 H 3.957654 -5.057162 0.581042 0
M  V30 38 H 3.125078 -1.232231 2.599772 0
M  V30 39 H 3.166179 1.162295 2.149671 0
M  V30 40 H 3.422890 2.904805 0.233457 0
M  V30 41 H 0.220992 4.763848 1.087633 0
M  V30 42 H -1.788823 4.642379 2.430900 0
M  V30 43 H -3.360225 2.800107 2.061482 0
M  V30 44 H -6.154835 -0.304218 -0.038094 0
M  V30 45 H -5.241390 -2.942319 -0.301985 0
M  V30 46 H -0.935637 -3.181259 -0.049154 0
M  V30 47 H -0.810495 -0.793847 0.252014 0
M  V30 48 H -0.811722 1.223596 -1.047873 0
M  V30 49 H 1.966060 0.422776 -1.872751 0
M  V30 50 H 1.925592 -1.930955 -1.430533 0
M  V30 END ATOM
M  V30 BEGIN BOND
M  V30 1 1 1 2
M  V30 2 1 2 3
M  V30 3 1 2 4
M  V30 4 1 4 5
M  V30 5 2 5 6
M  V30 6 1 6 7
M  V30 7 2 7 8
M  V30 8 1 8 9
M  V30 9 1 9 10
M  V30 10 2 10 11
M  V30 11 2 10 12
M  V30 12 1 10 13
M  V30 13 2 13 14
M  V30 14 1 14 15
M  V30 15 2 15 16
M  V30 16 1 16 17
M  V30 17 1 17 18
M  V30 18 2 18 19
M  V30 19 1 19 20
M  V30 20 1 20 21
M  V30 21 2 21 22
M  V30 22 1 22 23
M  V30 23 1 23 24
M  V30 24 2 23 25
M  V30 25 1 25 26
M  V30 26 2 26 27
M  V30 27 2 17 28
M  V30 28 1 8 29
M  V30 29 2 29 30
M  V30 30 1 30 5
M  V30 31 1 28 13
M  V30 32 1 27 18
M  V30 33 1 27 21
M  V30 34 1 1 31
M  V30 35 1 1 32
M  V30 36 1 1 33
M  V30 37 1 2 34
M  V30 38 1 3 35
M  V30 39 1 3 36
M  V30 40 1 3 37
M  V30 41 1 6 38
M  V30 42 1 7 39
M  V30 43 1 9 40
M  V30 44 1 14 41
M  V30 45 1 15 42
M  V30 46 1 16 43
M  V30 47 1 20 44
M  V30 48 1 22 45
M  V30 49 1 25 46
M  V30 50 1 26 47
M  V30 51 1 28 48
M  V30 52 1 29 49
M  V30 53 1 30 50
M  V30 END BOND
M  V30 END CTAB
M  END
>  <Dataset>  (829) 
ChEMBL_Kinases

>  <Ligand_Instance>  (829) 
nan

>  <PDB_ID>  (829) 
nan

>  <Standardized_SMILES>  (829) 
CC(C)Oc1ccc(NS(=O)(=O)c2cccc(-c3n[nH]c4cc(F)ccc34)c2)cc1

>  <Name>  (829) 
nan

>  <Pocket>  (829) 
nan

>  <ATP_Site>  (829) 
nan

>  <Peripheral>  (829) 
nan

>  <Num_H_Atoms_ProtBoundConf>  (829) 
nan

>  <Num_Resolved_Atoms>  (829) 
nan

>  <Num_Not_Resolved_Atoms>  (829) 
nan

$$$$
CHEMBL480839
     RDKit          3D

  0  0  0  0  0  0  0  0  0  0999 V3000
M  V30 BEGIN CTAB
M  V30 COUNTS 48 52 0 0 0
M  V30 BEGIN ATOM
M  V30 1 C 3.674596 -5.869014 1.509069 0
M  V30 2 O 3.090630 -4.617613 1.318239 0
M  V30 3 C 3.303937 -3.479708 2.055753 0
M  V30 4 C 4.187203 -3.515497 3.121897 0
M  V30 5 C 4.417040 -2.383148 3.877313 0
M  V30 6 C 3.768889 -1.202393 3.578323 0
M  V30 7 C 2.878932 -1.145443 2.512867 0
M  V30 8 C 2.668448 -2.289785 1.776121 0
M  V30 9 C 1.775302 -2.245305 0.701941 0
M  V30 10 C 0.967645 -1.196924 0.151878 0
M  V30 11 C 0.184100 -1.496124 -0.931740 0
M  V30 12 C -0.653473 -0.620582 -1.590512 0
M  V30 13 N -0.779510 0.738439 -1.192390 0
M  V30 14 C -1.406339 1.527206 -0.198430 0
M  V30 15 C -0.415066 2.213959 0.487390 0
M  V30 16 C -0.712339 3.078259 1.539224 0
M  V30 17 C -2.050891 3.219432 1.868523 0
M  V30 18 N -2.707743 3.946640 2.803034 0
M  V30 19 C -4.033698 3.753252 2.737724 0
M  V30 20 C -4.303878 2.848581 1.707918 0
M  V30 21 C -3.055077 2.551721 1.206697 0
M  V30 22 C -2.716283 1.708128 0.174330 0
M  V30 23 C -3.669071 0.926405 -0.617729 0
M  V30 24 C -1.345255 -1.145764 -2.657540 0
M  V30 25 C -2.228465 -0.259406 -3.402452 0
M  V30 26 N -2.927746 0.468600 -3.993256 0
M  V30 27 C -1.309096 -2.429629 -3.149418 0
M  V30 28 N -0.476082 -3.225437 -2.462133 0
M  V30 29 C 0.220305 -2.814678 -1.438360 0
M  V30 30 S 1.389384 -3.655917 -0.359569 0
M  V30 31 H 3.885963 -6.396907 0.534532 0
M  V30 32 H 2.922831 -6.499350 2.059645 0
M  V30 33 H 4.615661 -5.887035 2.060505 0
M  V30 34 H 4.730825 -4.377609 3.426456 0
M  V30 35 H 5.101068 -2.364953 4.722214 0
M  V30 36 H 3.946524 -0.304941 4.171522 0
M  V30 37 H 2.371923 -0.219350 2.280072 0
M  V30 38 H 1.072618 -0.261738 0.670855 0
M  V30 39 H -0.184045 1.168609 -1.941762 0
M  V30 40 H 0.672040 2.204872 0.343966 0
M  V30 41 H -0.032267 3.649133 2.126947 0
M  V30 42 H -2.273827 4.590037 3.505892 0
M  V30 43 H -4.785543 4.213778 3.370608 0
M  V30 44 H -5.257837 2.457456 1.364911 0
M  V30 45 H -4.629144 0.926526 -0.038301 0
M  V30 46 H -3.342776 -0.129003 -0.736114 0
M  V30 47 H -3.918257 1.436308 -1.565277 0
M  V30 48 H -1.888133 -2.761300 -3.996653 0
M  V30 END ATOM
M  V30 BEGIN BOND
M  V30 1 1 1 2
M  V30 2 1 2 3
M  V30 3 2 3 4
M  V30 4 1 4 5
M  V30 5 2 5 6
M  V30 6 1 6 7
M  V30 7 2 7 8
M  V30 8 1 8 9
M  V30 9 2 9 10
M  V30 10 1 10 11
M  V30 11 2 11 12
M  V30 12 1 12 13
M  V30 13 1 13 14
M  V30 14 2 14 15
M  V30 15 1 15 16
M  V30 16 2 16 17
M  V30 17 1 17 18
M  V30 18 1 18 19
M  V30 19 2 19 20
M  V30 20 1 20 21
M  V30 21 2 21 22
M  V30 22 1 22 23
M  V30 23 1 12 24
M  V30 24 1 24 25
M  V30 25 3 25 26
M  V30 26 2 24 27
M  V30 27 1 27 28
M  V30 28 2 28 29
M  V30 29 1 29 30
M  V30 30 1 8 3
M  V30 31 1 30 9
M  V30 32 1 29 11
M  V30 33 1 22 14
M  V30 34 1 21 17
M  V30 35 1 1 31
M  V30 36 1 1 32
M  V30 37 1 1 33
M  V30 38 1 4 34
M  V30 39 1 5 35
M  V30 40 1 6 36
M  V30 41 1 7 37
M  V30 42 1 10 38
M  V30 43 1 13 39
M  V30 44 1 15 40
M  V30 45 1 16 41
M  V30 46 1 18 42
M  V30 47 1 19 43
M  V30 48 1 20 44
M  V30 49 1 23 45
M  V30 50 1 23 46
M  V30 51 1 23 47
M  V30 52 1 27 48
M  V30 END BOND
M  V30 END CTAB
M  END
>  <Dataset>  (830) 
ChEMBL_Kinases

>  <Ligand_Instance>  (830) 
nan

>  <PDB_ID>  (830) 
nan

>  <Standardized_SMILES>  (830) 
COc1ccccc1-c1cc2c(Nc3ccc4[nH]ccc4c3C)c(C#N)cnc2s1

>  <Name>  (830) 
nan

>  <Pocket>  (830) 
nan

>  <ATP_Site>  (830) 
nan

>  <Peripheral>  (830) 
nan

>  <Num_H_Atoms_ProtBoundConf>  (830) 
nan

>  <Num_Resolved_Atoms>  (830) 
nan

>  <Num_Not_Resolved_Atoms>  (830) 
nan

$$$$
CHEMBL4875929
     RDKit          3D

  0  0  0  0  0  0  0  0  0  0999 V3000
M  V30 BEGIN CTAB
M  V30 COUNTS 51 54 0 0 0
M  V30 BEGIN ATOM
M  V30 1 C -1.475414 -1.676543 4.690672 0
M  V30 2 C -0.070660 -1.201777 4.356977 0
M  V30 3 C 0.591042 -2.134268 3.409850 0
M  V30 4 C 0.536601 -2.034740 2.027390 0
M  V30 5 C 1.255274 -3.054977 1.393411 0
M  V30 6 N 1.436799 -3.288625 -0.026109 0
M  V30 7 C 0.739687 -2.274959 -0.743918 0
M  V30 8 N 1.562038 -1.185241 -0.827444 0
M  V30 9 C 1.142260 -0.051094 -1.432132 0
M  V30 10 N 1.858755 1.158547 -1.626313 0
M  V30 11 C 2.129245 2.082378 -0.559321 0 CFG=1
M  V30 12 C 2.829629 3.318063 -1.140657 0
M  V30 13 C 0.954768 2.418595 0.244362 0
M  V30 14 C 1.068329 2.390113 1.626558 0
M  V30 15 C 0.063661 2.685034 2.522996 0
M  V30 16 C -1.157375 3.037733 2.024301 0
M  V30 17 F -2.182378 3.338552 2.853321 0
M  V30 18 C -1.258988 3.062693 0.645498 0
M  V30 19 N -0.249504 2.766749 -0.213090 0
M  V30 20 N -0.108070 -0.036469 -1.945293 0
M  V30 21 C -0.927487 -1.084022 -1.877876 0
M  V30 22 C -2.200682 -1.069440 -2.404714 0
M  V30 23 C -3.006133 -2.181647 -2.311223 0
M  V30 24 C -2.503211 -3.298312 -1.680900 0
M  V30 25 C -1.222781 -3.409107 -1.114925 0
M  V30 26 C -0.757695 -4.653828 -0.476776 0
M  V30 27 C -0.514851 -2.244485 -1.266975 0
M  V30 28 N 1.733976 -3.757110 2.465952 0
M  V30 29 N 1.340196 -3.210749 3.597958 0
M  V30 30 H -1.864169 -1.100551 5.549586 0
M  V30 31 H -2.170089 -1.479914 3.835159 0
M  V30 32 H -1.464931 -2.762755 4.907504 0
M  V30 33 H -0.217864 -0.202407 3.848168 0
M  V30 34 H 0.502716 -1.063961 5.274723 0
M  V30 35 H -0.019068 -1.230068 1.536844 0
M  V30 36 H 2.058262 -4.142504 -0.175024 0
M  V30 37 H 2.183205 1.341114 -2.614655 0
M  V30 38 H 2.901567 1.584807 0.095945 0
M  V30 39 H 2.023701 3.991538 -1.504595 0
M  V30 40 H 3.462520 3.783771 -0.358583 0
M  V30 41 H 3.481532 2.954602 -1.940989 0
M  V30 42 H 2.037803 2.110300 2.051362 0
M  V30 43 H 0.280730 2.625221 3.591848 0
M  V30 44 H -2.224549 3.340999 0.224106 0
M  V30 45 H -2.523940 -0.156233 -2.884119 0
M  V30 46 H -3.998670 -2.172389 -2.722148 0
M  V30 47 H -3.186402 -4.154225 -1.634091 0
M  V30 48 H 0.166821 -5.082837 -0.917256 0
M  V30 49 H -0.851123 -4.704558 0.611522 0
M  V30 50 H -1.529948 -5.431145 -0.814322 0
M  V30 51 H 1.592564 -3.586576 4.552094 0
M  V30 END ATOM
M  V30 BEGIN BOND
M  V30 1 1 1 2
M  V30 2 1 2 3
M  V30 3 2 3 4
M  V30 4 1 4 5
M  V30 5 1 5 6
M  V30 6 1 6 7
M  V30 7 2 7 8
M  V30 8 1 8 9
M  V30 9 1 9 10
M  V30 10 1 10 11
M  V30 11 1 11 12
M  V30 12 1 11 13
M  V30 13 2 13 14
M  V30 14 1 14 15
M  V30 15 2 15 16
M  V30 16 1 16 17
M  V30 17 1 16 18
M  V30 18 2 18 19
M  V30 19 2 9 20
M  V30 20 1 20 21
M  V30 21 2 21 22
M  V30 22 1 22 23
M  V30 23 2 23 24
M  V30 24 1 24 25
M  V30 25 1 25 26
M  V30 26 2 25 27
M  V30 27 2 5 28
M  V30 28 1 28 29
M  V30 29 1 29 3
M  V30 30 1 27 7
M  V30 31 1 19 13
M  V30 32 1 27 21
M  V30 33 1 1 30
M  V30 34 1 1 31
M  V30 35 1 1 32
M  V30 36 1 2 33
M  V30 37 1 2 34
M  V30 38 1 4 35
M  V30 39 1 6 36
M  V30 40 1 10 37
M  V30 41 1 11 38 CFG=1
M  V30 42 1 12 39
M  V30 43 1 12 40
M  V30 44 1 12 41
M  V30 45 1 14 42
M  V30 46 1 15 43
M  V30 47 1 18 44
M  V30 48 1 22 45
M  V30 49 1 23 46
M  V30 50 1 24 47
M  V30 51 1 26 48
M  V30 52 1 26 49
M  V30 53 1 26 50
M  V30 54 1 29 51
M  V30 END BOND
M  V30 END CTAB
M  END
>  <Dataset>  (831) 
ChEMBL_Kinases

>  <Ligand_Instance>  (831) 
nan

>  <PDB_ID>  (831) 
nan

>  <Standardized_SMILES>  (831) 
CCc1cc(Nc2nc(N[C@@H](C)c3ccc(F)cn3)nc3cccc(C)c23)n[nH]1

>  <Name>  (831) 
nan

>  <Pocket>  (831) 
nan

>  <ATP_Site>  (831) 
nan

>  <Peripheral>  (831) 
nan

>  <Num_H_Atoms_ProtBoundConf>  (831) 
nan

>  <Num_Resolved_Atoms>  (831) 
nan

>  <Num_Not_Resolved_Atoms>  (831) 
nan

$$$$
CHEMBL4875806
     RDKit          3D

  0  0  0  0  0  0  0  0  0  0999 V3000
M  V30 BEGIN CTAB
M  V30 COUNTS 47 49 0 0 0
M  V30 BEGIN ATOM
M  V30 1 C 0.391282 -0.151901 4.077862 0
M  V30 2 C 1.422777 -1.248431 4.017325 0
M  V30 3 C 1.299853 -2.187924 5.175940 0
M  V30 4 C 2.837125 -0.792428 3.718565 0 CFG=2
M  V30 5 O 2.843176 0.305533 2.850999 0
M  V30 6 C 2.961731 -2.059331 2.880182 0
M  V30 7 C 1.464393 -1.975548 2.671074 0 CFG=2
M  V30 8 N 1.034833 -1.211751 1.536941 0
M  V30 9 C 0.926246 -1.474420 0.155365 0
M  V30 10 N 0.471215 -0.537641 -0.694190 0
M  V30 11 C 0.355501 -0.749076 -2.008099 0
M  V30 12 N -0.135420 0.301393 -2.825774 0
M  V30 13 C -0.512955 1.593754 -2.303371 0
M  V30 14 C -1.574036 1.570646 -1.299918 0
M  V30 15 C -1.292929 1.750571 0.060120 0
M  V30 16 N -2.163551 1.756563 1.079878 0
M  V30 17 C -3.473053 1.570094 0.796404 0
M  V30 18 C -3.825858 1.387144 -0.513568 0
M  V30 19 C -2.911562 1.383069 -1.562836 0
M  V30 20 C -3.351069 1.179035 -2.952956 0
M  V30 21 F -3.005183 2.278878 -3.746554 0
M  V30 22 F -4.734124 1.144304 -2.975483 0
M  V30 23 F -2.879903 0.002146 -3.453121 0
M  V30 24 N 0.698959 -1.935303 -2.537309 0
M  V30 25 C 1.169388 -2.950940 -1.773165 0
M  V30 26 C 1.267517 -2.675144 -0.423992 0
M  V30 27 C 1.769916 -3.754505 0.382524 0
M  V30 28 N 2.173303 -4.631797 1.013181 0
M  V30 29 H 0.213777 0.041736 5.156087 0
M  V30 30 H -0.538895 -0.533080 3.640918 0
M  V30 31 H 0.720063 0.802415 3.634848 0
M  V30 32 H 0.306068 -2.131481 5.674083 0
M  V30 33 H 1.429203 -3.222950 4.815617 0
M  V30 34 H 2.078446 -2.012455 5.950867 0
M  V30 35 H 3.502380 -0.729255 4.593646 0
M  V30 36 H 3.711090 0.767811 2.966395 0
M  V30 37 H 3.168511 -2.946317 3.526175 0
M  V30 38 H 3.568122 -1.963149 1.980040 0
M  V30 39 H 0.929665 -2.941936 2.797584 0
M  V30 40 H 0.738560 -0.238222 1.824737 0
M  V30 41 H -0.225415 0.129002 -3.852703 0
M  V30 42 H 0.427574 2.004176 -1.833193 0
M  V30 43 H -0.715040 2.304801 -3.139260 0
M  V30 44 H -0.275151 1.912076 0.413250 0
M  V30 45 H -4.218743 1.566409 1.584251 0
M  V30 46 H -4.888386 1.238559 -0.718763 0
M  V30 47 H 1.430686 -3.879401 -2.239007 0
M  V30 END ATOM
M  V30 BEGIN BOND
M  V30 1 1 1 2
M  V30 2 1 2 3
M  V30 3 1 2 4
M  V30 4 1 4 5
M  V30 5 1 4 6
M  V30 6 1 6 7
M  V30 7 1 7 8
M  V30 8 1 8 9
M  V30 9 2 9 10
M  V30 10 1 10 11
M  V30 11 1 11 12
M  V30 12 1 12 13
M  V30 13 1 13 14
M  V30 14 2 14 15
M  V30 15 1 15 16
M  V30 16 2 16 17
M  V30 17 1 17 18
M  V30 18 2 18 19
M  V30 19 1 19 20
M  V30 20 1 20 21
M  V30 21 1 20 22
M  V30 22 1 20 23
M  V30 23 2 11 24
M  V30 24 1 24 25
M  V30 25 2 25 26
M  V30 26 1 26 27
M  V30 27 3 27 28
M  V30 28 1 7 2
M  V30 29 1 26 9
M  V30 30 1 19 14
M  V30 31 1 1 29
M  V30 32 1 1 30
M  V30 33 1 1 31
M  V30 34 1 3 32
M  V30 35 1 3 33
M  V30 36 1 3 34
M  V30 37 1 4 35 CFG=1
M  V30 38 1 5 36
M  V30 39 1 6 37
M  V30 40 1 6 38
M  V30 41 1 7 39 CFG=1
M  V30 42 1 8 40
M  V30 43 1 12 41
M  V30 44 1 13 42
M  V30 45 1 13 43
M  V30 46 1 15 44
M  V30 47 1 17 45
M  V30 48 1 18 46
M  V30 49 1 25 47
M  V30 END BOND
M  V30 END CTAB
M  END
>  <Dataset>  (832) 
ChEMBL_Kinases

>  <Ligand_Instance>  (832) 
nan

>  <PDB_ID>  (832) 
nan

>  <Standardized_SMILES>  (832) 
CC1(C)[C@H](O)C[C@@H]1Nc1nc(NCc2cnccc2C(F)(F)F)ncc1C#N

>  <Name>  (832) 
nan

>  <Pocket>  (832) 
nan

>  <ATP_Site>  (832) 
nan

>  <Peripheral>  (832) 
nan

>  <Num_H_Atoms_ProtBoundConf>  (832) 
nan

>  <Num_Resolved_Atoms>  (832) 
nan

>  <Num_Not_Resolved_Atoms>  (832) 
nan

$$$$
CHEMBL1561888
     RDKit          3D

  0  0  0  0  0  0  0  0  0  0999 V3000
M  V30 BEGIN CTAB
M  V30 COUNTS 51 54 0 0 0
M  V30 BEGIN ATOM
M  V30 1 C -0.178558 -4.408960 1.142951 0
M  V30 2 N 0.356183 -3.437650 0.206885 0
M  V30 3 C -0.670632 -3.186546 -0.767517 0
M  V30 4 C -0.312204 -2.116720 -1.773021 0
M  V30 5 N 1.142607 -1.922918 -1.782279 0
M  V30 6 C 1.986941 -0.766722 -1.829026 0
M  V30 7 N 2.771493 -0.769607 -2.943168 0
M  V30 8 C 3.626264 0.265669 -3.130558 0
M  V30 9 N 3.733875 1.296493 -2.263965 0
M  V30 10 C 2.962147 1.307685 -1.159637 0
M  V30 11 C 2.979176 2.309456 -0.191231 0
M  V30 12 C 2.134438 2.219055 0.918268 0
M  V30 13 C 1.272091 1.170457 1.103409 0
M  V30 14 C 0.388421 1.072682 2.263283 0
M  V30 15 C 0.884997 1.628610 3.441841 0
M  V30 16 C 0.081308 1.558999 4.572065 0
M  V30 17 C -1.176420 0.956081 4.533105 0
M  V30 18 C -1.653755 0.405289 3.340007 0
M  V30 19 N -2.941330 -0.200680 3.341345 0
M  V30 20 S -4.048687 0.155018 2.039270 0
M  V30 21 C -4.423126 1.903856 2.023385 0
M  V30 22 O -5.329712 -0.579163 2.231969 0
M  V30 23 O -3.436423 -0.162888 0.704756 0
M  V30 24 C -0.850956 0.478352 2.224017 0
M  V30 25 C 1.245407 0.169829 0.149722 0
M  V30 26 C 2.079593 0.275150 -0.930153 0
M  V30 27 C 1.822174 -3.224666 -1.732579 0
M  V30 28 C 1.549790 -3.941465 -0.425075 0
M  V30 29 H 0.214515 -4.209429 2.177088 0
M  V30 30 H 0.110809 -5.445515 0.892584 0
M  V30 31 H -1.303946 -4.322940 1.162867 0
M  V30 32 H -1.585853 -2.890375 -0.175468 0
M  V30 33 H -0.966372 -4.096190 -1.325512 0
M  V30 34 H -0.871264 -1.212979 -1.526490 0
M  V30 35 H -0.644445 -2.426891 -2.799899 0
M  V30 36 H 4.259353 0.285212 -4.008011 0
M  V30 37 H 3.663587 3.127403 -0.352604 0
M  V30 38 H 2.174420 3.011160 1.647002 0
M  V30 39 H 1.840882 2.113274 3.567102 0
M  V30 40 H 0.413937 1.970363 5.504516 0
M  V30 41 H -1.790739 0.913698 5.437619 0
M  V30 42 H -3.114807 -0.838461 4.168287 0
M  V30 43 H -4.076218 2.375941 2.975767 0
M  V30 44 H -5.527691 2.078679 2.023053 0
M  V30 45 H -4.038444 2.409527 1.116793 0
M  V30 46 H -1.187551 0.065803 1.294539 0
M  V30 47 H 0.565759 -0.655401 0.298902 0
M  V30 48 H 2.907161 -3.119330 -1.841075 0
M  V30 49 H 1.387626 -3.850847 -2.542509 0
M  V30 50 H 1.415785 -5.033042 -0.574830 0
M  V30 51 H 2.406099 -3.831062 0.296870 0
M  V30 END ATOM
M  V30 BEGIN BOND
M  V30 1 1 1 2
M  V30 2 1 2 3
M  V30 3 1 3 4
M  V30 4 1 4 5
M  V30 5 1 5 6
M  V30 6 2 6 7
M  V30 7 1 7 8
M  V30 8 2 8 9
M  V30 9 1 9 10
M  V30 10 2 10 11
M  V30 11 1 11 12
M  V30 12 2 12 13
M  V30 13 1 13 14
M  V30 14 2 14 15
M  V30 15 1 15 16
M  V30 16 2 16 17
M  V30 17 1 17 18
M  V30 18 1 18 19
M  V30 19 1 19 20
M  V30 20 1 20 21
M  V30 21 2 20 22
M  V30 22 2 20 23
M  V30 23 2 18 24
M  V30 24 1 13 25
M  V30 25 2 25 26
M  V30 26 1 5 27
M  V30 27 1 27 28
M  V30 28 1 28 2
M  V30 29 1 26 6
M  V30 30 1 26 10
M  V30 31 1 24 14
M  V30 32 1 1 29
M  V30 33 1 1 30
M  V30 34 1 1 31
M  V30 35 1 3 32
M  V30 36 1 3 33
M  V30 37 1 4 34
M  V30 38 1 4 35
M  V30 39 1 8 36
M  V30 40 1 11 37
M  V30 41 1 12 38
M  V30 42 1 15 39
M  V30 43 1 16 40
M  V30 44 1 17 41
M  V30 45 1 19 42
M  V30 46 1 21 43
M  V30 47 1 21 44
M  V30 48 1 21 45
M  V30 49 1 24 46
M  V30 50 1 25 47
M  V30 51 1 27 48
M  V30 52 1 27 49
M  V30 53 1 28 50
M  V30 54 1 28 51
M  V30 END BOND
M  V30 END CTAB
M  END
>  <Dataset>  (833) 
ChEMBL_Kinases

>  <Ligand_Instance>  (833) 
nan

>  <PDB_ID>  (833) 
nan

>  <Standardized_SMILES>  (833) 
CN1CCN(c2ncnc3ccc(-c4cccc(NS(C)(=O)=O)c4)cc23)CC1

>  <Name>  (833) 
nan

>  <Pocket>  (833) 
nan

>  <ATP_Site>  (833) 
nan

>  <Peripheral>  (833) 
nan

>  <Num_H_Atoms_ProtBoundConf>  (833) 
nan

>  <Num_Resolved_Atoms>  (833) 
nan

>  <Num_Not_Resolved_Atoms>  (833) 
nan

$$$$
CHEMBL481333
     RDKit          3D

  0  0  0  0  0  0  0  0  0  0999 V3000
M  V30 BEGIN CTAB
M  V30 COUNTS 35 38 0 0 0
M  V30 BEGIN ATOM
M  V30 1 N 0.378656 -1.618325 4.859210 0
M  V30 2 C 0.450401 -1.893332 3.464460 0
M  V30 3 N 0.689867 -3.099835 3.074310 0
M  V30 4 C 0.728717 -3.205286 1.662720 0
M  V30 5 O 0.927178 -4.172111 0.896789 0
M  V30 6 C 0.473719 -1.862781 1.155314 0
M  V30 7 C 0.541929 -1.438889 -0.130124 0
M  V30 8 C 0.919153 -2.312995 -1.227694 0
M  V30 9 C 2.364316 -1.918637 -1.610335 0
M  V30 10 N 2.502258 -0.568596 -2.084904 0
M  V30 11 C 2.073719 0.768941 -1.713140 0
M  V30 12 O 2.641316 1.842958 -2.002487 0
M  V30 13 C 0.849147 0.991154 -0.907982 0
M  V30 14 N 0.141222 2.106738 -0.678776 0
M  V30 15 C -0.944913 1.837444 0.088530 0
M  V30 16 C -1.967452 2.642483 0.544663 0
M  V30 17 C -2.985208 2.053966 1.287609 0
M  V30 18 C -3.044510 0.693007 1.605832 0
M  V30 19 C -2.026645 -0.101258 1.152231 0
M  V30 20 C -1.017280 0.475438 0.421786 0
M  V30 21 C 0.129487 -0.010952 -0.220978 0
M  V30 22 N 0.307423 -1.073146 2.325247 0
M  V30 23 H 1.111083 -0.922010 5.126132 0
M  V30 24 H -0.303493 -2.048585 5.514180 0
M  V30 25 H 0.359175 -2.023714 -2.140937 0
M  V30 26 H 0.907759 -3.356649 -1.192815 0
M  V30 27 H 2.664393 -2.583365 -2.445958 0
M  V30 28 H 3.055259 -2.160329 -0.780094 0
M  V30 29 H 3.092305 -0.434802 -2.973975 0
M  V30 30 H 0.448699 3.010440 -1.069544 0
M  V30 31 H -1.970112 3.690896 0.328310 0
M  V30 32 H -3.798280 2.694493 1.650969 0
M  V30 33 H -3.888118 0.349812 2.189444 0
M  V30 34 H -2.071251 -1.155607 1.354872 0
M  V30 35 H 0.154243 -0.068019 2.506427 0
M  V30 END ATOM
M  V30 BEGIN BOND
M  V30 1 1 1 2
M  V30 2 2 2 3
M  V30 3 1 3 4
M  V30 4 2 4 5
M  V30 5 1 4 6
M  V30 6 2 6 7
M  V30 7 1 7 8
M  V30 8 1 8 9
M  V30 9 1 9 10
M  V30 10 1 10 11
M  V30 11 2 11 12
M  V30 12 1 11 13
M  V30 13 1 13 14
M  V30 14 1 14 15
M  V30 15 2 15 16
M  V30 16 1 16 17
M  V30 17 2 17 18
M  V30 18 1 18 19
M  V30 19 2 19 20
M  V30 20 1 20 21
M  V30 21 1 6 22
M  V30 22 1 22 2
M  V30 23 1 21 7
M  V30 24 2 21 13
M  V30 25 1 20 15
M  V30 26 1 1 23
M  V30 27 1 1 24
M  V30 28 1 8 25
M  V30 29 1 8 26
M  V30 30 1 9 27
M  V30 31 1 9 28
M  V30 32 1 10 29
M  V30 33 1 14 30
M  V30 34 1 16 31
M  V30 35 1 17 32
M  V30 36 1 18 33
M  V30 37 1 19 34
M  V30 38 1 22 35
M  V30 END BOND
M  V30 END CTAB
M  END
>  <Dataset>  (834) 
ChEMBL_Kinases

>  <Ligand_Instance>  (834) 
nan

>  <PDB_ID>  (834) 
nan

>  <Standardized_SMILES>  (834) 
NC1=NC(=O)/C(=C2\CCNC(=O)c3[nH]c4ccccc4c32)N1

>  <Name>  (834) 
nan

>  <Pocket>  (834) 
nan

>  <ATP_Site>  (834) 
nan

>  <Peripheral>  (834) 
nan

>  <Num_H_Atoms_ProtBoundConf>  (834) 
nan

>  <Num_Resolved_Atoms>  (834) 
nan

>  <Num_Not_Resolved_Atoms>  (834) 
nan

$$$$
CHEMBL4875758
     RDKit          3D

  0  0  0  0  0  0  0  0  0  0999 V3000
M  V30 BEGIN CTAB
M  V30 COUNTS 43 46 0 0 0
M  V30 BEGIN ATOM
M  V30 1 C 4.607449 -5.217857 2.339154 0
M  V30 2 C 4.055056 -3.819757 2.326546 0
M  V30 3 O 2.824508 -3.821728 2.065079 0
M  V30 4 N 4.746489 -2.594019 2.565070 0
M  V30 5 C 3.746153 -1.561452 2.430320 0
M  V30 6 C 3.060984 -1.211196 3.580562 0
M  V30 7 C 2.098362 -0.225100 3.471839 0
M  V30 8 C 1.883719 0.347847 2.214844 0
M  V30 9 C 2.592654 -0.031891 1.085326 0
M  V30 10 C 2.316802 0.609648 -0.204701 0
M  V30 11 N 3.196908 1.084441 -1.126483 0
M  V30 12 N 2.550765 1.589137 -2.156309 0
M  V30 13 C 1.204385 1.487005 -1.994663 0
M  V30 14 N 0.122219 1.833526 -2.723338 0
M  V30 15 C -1.134204 1.592442 -2.282828 0
M  V30 16 C -1.354304 0.977422 -1.060699 0
M  V30 17 C -2.691527 0.684074 -0.521133 0
M  V30 18 C -3.785624 0.381854 -1.276035 0
M  V30 19 C -4.998970 0.119652 -0.665839 0
M  V30 20 C -5.121493 0.159291 0.708337 0
M  V30 21 O -6.373531 -0.114525 1.275232 0
M  V30 22 C -4.025527 0.462789 1.479311 0
M  V30 23 O -4.185676 0.494453 2.877800 0
M  V30 24 C -2.826076 0.721160 0.859066 0
M  V30 25 C -0.222468 0.640905 -0.350102 0
M  V30 26 C 1.076679 0.864305 -0.753414 0
M  V30 27 C 3.555915 -1.014956 1.181168 0
M  V30 28 H 4.727923 -5.608516 1.298903 0
M  V30 29 H 5.561545 -5.234252 2.909489 0
M  V30 30 H 3.923620 -5.915201 2.850304 0
M  V30 31 H 5.756482 -2.769017 2.766165 0
M  V30 32 H 3.245663 -1.666826 4.534319 0
M  V30 33 H 1.530185 0.090349 4.337648 0
M  V30 34 H 1.117052 1.115182 2.196424 0
M  V30 35 H 2.990349 2.021177 -3.006165 0
M  V30 36 H -1.988506 1.874282 -2.874341 0
M  V30 37 H -3.605500 0.371963 -2.338875 0
M  V30 38 H -5.843469 -0.115074 -1.286112 0
M  V30 39 H -6.335402 -0.509938 2.227062 0
M  V30 40 H -3.745060 -0.232315 3.430371 0
M  V30 41 H -2.018587 0.951560 1.560279 0
M  V30 42 H -0.399015 0.159975 0.604822 0
M  V30 43 H 4.138040 -1.350203 0.334387 0
M  V30 END ATOM
M  V30 BEGIN BOND
M  V30 1 1 1 2
M  V30 2 2 2 3
M  V30 3 1 2 4
M  V30 4 1 4 5
M  V30 5 2 5 6
M  V30 6 1 6 7
M  V30 7 2 7 8
M  V30 8 1 8 9
M  V30 9 1 9 10
M  V30 10 2 10 11
M  V30 11 1 11 12
M  V30 12 1 12 13
M  V30 13 2 13 14
M  V30 14 1 14 15
M  V30 15 2 15 16
M  V30 16 1 16 17
M  V30 17 2 17 18
M  V30 18 1 18 19
M  V30 19 2 19 20
M  V30 20 1 20 21
M  V30 21 1 20 22
M  V30 22 1 22 23
M  V30 23 2 22 24
M  V30 24 1 16 25
M  V30 25 2 25 26
M  V30 26 2 9 27
M  V30 27 1 27 5
M  V30 28 1 26 10
M  V30 29 1 26 13
M  V30 30 1 24 17
M  V30 31 1 1 28
M  V30 32 1 1 29
M  V30 33 1 1 30
M  V30 34 1 4 31
M  V30 35 1 6 32
M  V30 36 1 7 33
M  V30 37 1 8 34
M  V30 38 1 12 35
M  V30 39 1 15 36
M  V30 40 1 18 37
M  V30 41 1 19 38
M  V30 42 1 21 39
M  V30 43 1 23 40
M  V30 44 1 24 41
M  V30 45 1 25 42
M  V30 46 1 27 43
M  V30 END BOND
M  V30 END CTAB
M  END
>  <Dataset>  (835) 
ChEMBL_Kinases

>  <Ligand_Instance>  (835) 
nan

>  <PDB_ID>  (835) 
nan

>  <Standardized_SMILES>  (835) 
CC(=O)Nc1cccc(-c2n[nH]c3ncc(-c4ccc(O)c(O)c4)cc23)c1

>  <Name>  (835) 
nan

>  <Pocket>  (835) 
nan

>  <ATP_Site>  (835) 
nan

>  <Peripheral>  (835) 
nan

>  <Num_H_Atoms_ProtBoundConf>  (835) 
nan

>  <Num_Resolved_Atoms>  (835) 
nan

>  <Num_Not_Resolved_Atoms>  (835) 
nan

$$$$
CHEMBL4875743
     RDKit          3D

  0  0  0  0  0  0  0  0  0  0999 V3000
M  V30 BEGIN CTAB
M  V30 COUNTS 47 50 0 0 0
M  V30 BEGIN ATOM
M  V30 1 C -1.904386 -2.345850 5.762289 0
M  V30 2 C -1.653710 -1.131920 4.897885 0
M  V30 3 C -0.613406 -1.469808 3.860093 0
M  V30 4 C -1.023620 -1.976275 2.647611 0
M  V30 5 C 0.096177 -2.203660 1.882477 0
M  V30 6 N 0.615947 -2.680453 0.635664 0
M  V30 7 C 0.458584 -1.784072 -0.477553 0
M  V30 8 N 1.176776 -0.647458 -0.599375 0
M  V30 9 C 1.041605 0.171134 -1.636337 0
M  V30 10 N 1.791631 1.372270 -1.766113 0
M  V30 11 C 2.702179 1.745866 -0.700051 0 CFG=1
M  V30 12 C 3.477637 2.994411 -0.981455 0
M  V30 13 C 1.870744 1.880793 0.540830 0
M  V30 14 N 2.209922 1.467092 1.779785 0
M  V30 15 C 1.371695 1.629547 2.828512 0
M  V30 16 C 0.142438 2.231377 2.628785 0
M  V30 17 F -0.705067 2.396599 3.672234 0
M  V30 18 C -0.213006 2.655883 1.372674 0
M  V30 19 N 0.674643 2.459654 0.379005 0
M  V30 20 N 0.146907 -0.147877 -2.609563 0
M  V30 21 C -0.590786 -1.266357 -2.535984 0
M  V30 22 C -1.483324 -1.522084 -3.580986 0
M  V30 23 C -2.224660 -2.678577 -3.480574 0
M  V30 24 C -2.104501 -3.557484 -2.404661 0
M  V30 25 C -1.199552 -3.267116 -1.378229 0
M  V30 26 F -1.090771 -4.135900 -0.334918 0
M  V30 27 C -0.448469 -2.115252 -1.458471 0
M  V30 28 N 1.155194 -1.824460 2.662965 0
M  V30 29 N 0.722455 -1.388899 3.839066 0
M  V30 30 H -2.007796 -3.235248 5.114449 0
M  V30 31 H -2.865941 -2.194891 6.280207 0
M  V30 32 H -1.060266 -2.426633 6.464620 0
M  V30 33 H -2.591006 -0.792856 4.427590 0
M  V30 34 H -1.297928 -0.278040 5.539538 0
M  V30 35 H -1.920494 -2.243390 2.124779 0
M  V30 36 H 1.077570 -3.631952 0.600355 0
M  V30 37 H 1.682164 1.978170 -2.612267 0
M  V30 38 H 3.422729 0.888474 -0.566703 0
M  V30 39 H 3.659960 3.036805 -2.078932 0
M  V30 40 H 4.509555 2.948727 -0.517285 0
M  V30 41 H 3.024295 3.927950 -0.634580 0
M  V30 42 H 1.700953 1.277082 3.807499 0
M  V30 43 H -1.160341 3.136316 1.150286 0
M  V30 44 H -1.584193 -0.845133 -4.430325 0
M  V30 45 H -2.912605 -2.859394 -4.307435 0
M  V30 46 H -2.711653 -4.463228 -2.363578 0
M  V30 47 H 1.225808 -1.028152 4.677771 0
M  V30 END ATOM
M  V30 BEGIN BOND
M  V30 1 1 1 2
M  V30 2 1 2 3
M  V30 3 2 3 4
M  V30 4 1 4 5
M  V30 5 1 5 6
M  V30 6 1 6 7
M  V30 7 2 7 8
M  V30 8 1 8 9
M  V30 9 1 9 10
M  V30 10 1 10 11
M  V30 11 1 11 12
M  V30 12 1 11 13
M  V30 13 2 13 14
M  V30 14 1 14 15
M  V30 15 2 15 16
M  V30 16 1 16 17
M  V30 17 1 16 18
M  V30 18 2 18 19
M  V30 19 2 9 20
M  V30 20 1 20 21
M  V30 21 2 21 22
M  V30 22 1 22 23
M  V30 23 2 23 24
M  V30 24 1 24 25
M  V30 25 1 25 26
M  V30 26 2 25 27
M  V30 27 2 5 28
M  V30 28 1 28 29
M  V30 29 1 29 3
M  V30 30 1 27 7
M  V30 31 1 19 13
M  V30 32 1 27 21
M  V30 33 1 1 30
M  V30 34 1 1 31
M  V30 35 1 1 32
M  V30 36 1 2 33
M  V30 37 1 2 34
M  V30 38 1 4 35
M  V30 39 1 6 36
M  V30 40 1 10 37
M  V30 41 1 11 38 CFG=1
M  V30 42 1 12 39
M  V30 43 1 12 40
M  V30 44 1 12 41
M  V30 45 1 15 42
M  V30 46 1 18 43
M  V30 47 1 22 44
M  V30 48 1 23 45
M  V30 49 1 24 46
M  V30 50 1 29 47
M  V30 END BOND
M  V30 END CTAB
M  END
>  <Dataset>  (836) 
ChEMBL_Kinases

>  <Ligand_Instance>  (836) 
nan

>  <PDB_ID>  (836) 
nan

>  <Standardized_SMILES>  (836) 
CCc1cc(Nc2nc(N[C@@H](C)c3ncc(F)cn3)nc3cccc(F)c23)n[nH]1

>  <Name>  (836) 
nan

>  <Pocket>  (836) 
nan

>  <ATP_Site>  (836) 
nan

>  <Peripheral>  (836) 
nan

>  <Num_H_Atoms_ProtBoundConf>  (836) 
nan

>  <Num_Resolved_Atoms>  (836) 
nan

>  <Num_Not_Resolved_Atoms>  (836) 
nan

$$$$
CHEMBL4799704
     RDKit          3D

  0  0  0  0  0  0  0  0  0  0999 V3000
M  V30 BEGIN CTAB
M  V30 COUNTS 44 46 0 0 0
M  V30 BEGIN ATOM
M  V30 1 C -0.011550 -5.163528 -0.675951 0
M  V30 2 O -0.486525 -4.673547 0.539002 0
M  V30 3 C -0.293169 -3.403669 1.047898 0
M  V30 4 C 0.432402 -2.403512 0.385696 0
M  V30 5 C 0.580927 -1.159984 0.959646 0
M  V30 6 C 1.338418 -0.135887 0.254639 0
M  V30 7 O 1.811816 -0.505262 -0.875596 0
M  V30 8 N 1.571140 1.170779 0.715831 0
M  V30 9 C 2.348398 2.058029 -0.119283 0 CFG=2
M  V30 10 C 3.578044 2.586501 0.578288 0
M  V30 11 O 4.375890 1.500901 0.934502 0
M  V30 12 C 1.449859 3.126251 -0.617877 0
M  V30 13 C 0.436694 3.759656 0.069525 0
M  V30 14 F 0.225967 3.380598 1.351027 0
M  V30 15 C -0.349753 4.745262 -0.486210 0
M  V30 16 C -0.153443 5.152453 -1.787602 0
M  V30 17 C 0.841458 4.566862 -2.542373 0
M  V30 18 C 1.581362 3.598565 -1.929320 0
M  V30 19 F 2.571839 3.014545 -2.678341 0
M  V30 20 C -0.016098 -0.981274 2.188682 0
M  V30 21 C -0.735671 -1.943947 2.865350 0
M  V30 22 C -0.877443 -3.185872 2.279968 0
M  V30 23 C -1.637101 -4.214699 2.985810 0
M  V30 24 C -1.368660 -5.555616 3.206447 0
M  V30 25 N -2.399077 -6.071261 3.921055 0
M  V30 26 N -3.296440 -5.117570 4.156576 0
M  V30 27 C -2.864835 -3.963359 3.598535 0
M  V30 28 H 0.852232 -4.630542 -1.102248 0
M  V30 29 H -0.839173 -5.055907 -1.431117 0
M  V30 30 H 0.204615 -6.255130 -0.655034 0
M  V30 31 H 0.852433 -2.665171 -0.572219 0
M  V30 32 H 1.139962 1.333852 1.635735 0
M  V30 33 H 2.687941 1.508498 -1.030824 0
M  V30 34 H 4.191962 3.212277 -0.083404 0
M  V30 35 H 3.298304 3.104751 1.524207 0
M  V30 36 H 4.373674 0.784348 0.228700 0
M  V30 37 H -1.131325 5.196422 0.126290 0
M  V30 38 H -0.777300 5.925536 -2.209172 0
M  V30 39 H 1.043392 4.843803 -3.567986 0
M  V30 40 H 0.067772 -0.030359 2.682680 0
M  V30 41 H -1.179672 -1.737988 3.829291 0
M  V30 42 H -0.456715 -5.979655 2.816789 0
M  V30 43 H -4.160381 -5.360930 4.703619 0
M  V30 44 H -3.424285 -3.046038 3.656360 0
M  V30 END ATOM
M  V30 BEGIN BOND
M  V30 1 1 1 2
M  V30 2 1 2 3
M  V30 3 2 3 4
M  V30 4 1 4 5
M  V30 5 1 5 6
M  V30 6 2 6 7
M  V30 7 1 6 8
M  V30 8 1 8 9
M  V30 9 1 9 10
M  V30 10 1 10 11
M  V30 11 1 9 12
M  V30 12 2 12 13
M  V30 13 1 13 14
M  V30 14 1 13 15
M  V30 15 2 15 16
M  V30 16 1 16 17
M  V30 17 2 17 18
M  V30 18 1 18 19
M  V30 19 2 5 20
M  V30 20 1 20 21
M  V30 21 2 21 22
M  V30 22 1 22 23
M  V30 23 1 23 24
M  V30 24 2 24 25
M  V30 25 1 25 26
M  V30 26 1 26 27
M  V30 27 1 22 3
M  V30 28 2 27 23
M  V30 29 1 18 12
M  V30 30 1 1 28
M  V30 31 1 1 29
M  V30 32 1 1 30
M  V30 33 1 4 31
M  V30 34 1 8 32
M  V30 35 1 9 33 CFG=3
M  V30 36 1 10 34
M  V30 37 1 10 35
M  V30 38 1 11 36
M  V30 39 1 15 37
M  V30 40 1 16 38
M  V30 41 1 17 39
M  V30 42 1 20 40
M  V30 43 1 21 41
M  V30 44 1 24 42
M  V30 45 1 26 43
M  V30 46 1 27 44
M  V30 END BOND
M  V30 END CTAB
M  END
>  <Dataset>  (837) 
ChEMBL_Kinases

>  <Ligand_Instance>  (837) 
nan

>  <PDB_ID>  (837) 
nan

>  <Standardized_SMILES>  (837) 
COc1cc(C(=O)N[C@H](CO)c2c(F)cccc2F)ccc1-c1cn[nH]c1

>  <Name>  (837) 
nan

>  <Pocket>  (837) 
nan

>  <ATP_Site>  (837) 
nan

>  <Peripheral>  (837) 
nan

>  <Num_H_Atoms_ProtBoundConf>  (837) 
nan

>  <Num_Resolved_Atoms>  (837) 
nan

>  <Num_Not_Resolved_Atoms>  (837) 
nan

$$$$
CHEMBL4875657
     RDKit          3D

  0  0  0  0  0  0  0  0  0  0999 V3000
M  V30 BEGIN CTAB
M  V30 COUNTS 46 49 0 0 0
M  V30 BEGIN ATOM
M  V30 1 C 3.116332 -5.636766 1.092368 0
M  V30 2 O 3.348692 -4.968704 -0.111471 0
M  V30 3 C 3.246307 -3.575507 -0.243661 0
M  V30 4 C 2.900825 -2.752528 0.833289 0
M  V30 5 C 2.815314 -1.388784 0.644264 0
M  V30 6 C 3.058484 -0.791696 -0.575897 0
M  V30 7 C 2.985191 0.641553 -0.844148 0
M  V30 8 N 3.885029 1.347172 -1.533642 0
M  V30 9 N 3.523714 2.627502 -1.597564 0
M  V30 10 C 2.362619 2.759254 -0.935078 0
M  V30 11 N 1.539960 3.778309 -0.667626 0
M  V30 12 C 0.404960 3.652109 0.035081 0
M  V30 13 C -0.019359 2.432906 0.552956 0
M  V30 14 N -1.217263 2.334160 1.305374 0
M  V30 15 C -2.064406 1.234667 1.587754 0
M  V30 16 C -2.156325 0.071805 0.854235 0
M  V30 17 C -2.971752 -0.994416 1.153456 0
M  V30 18 C -3.000181 -2.213744 0.294915 0
M  V30 19 F -4.140401 -2.914146 0.620625 0
M  V30 20 F -1.866366 -2.937702 0.607123 0
M  V30 21 F -3.052238 -1.866451 -1.039054 0
M  V30 22 C -3.760269 -0.894086 2.274432 0
M  V30 23 C -3.709060 0.246580 3.044816 0
M  V30 24 C -4.560887 0.381246 4.274953 0
M  V30 25 F -5.234160 1.587132 4.291004 0
M  V30 26 F -5.517726 -0.610811 4.246372 0
M  V30 27 F -3.807373 0.190480 5.416676 0
M  V30 28 C -2.875932 1.284054 2.701302 0
M  V30 29 C 0.835267 1.390039 0.272241 0
M  V30 30 C 2.000761 1.526818 -0.451069 0
M  V30 31 C 3.402791 -1.633411 -1.640744 0
M  V30 32 C 3.497862 -3.019250 -1.481716 0
M  V30 33 H 4.075240 -5.672004 1.655547 0
M  V30 34 H 2.313777 -5.201615 1.721706 0
M  V30 35 H 2.844111 -6.686164 0.858687 0
M  V30 36 H 2.704622 -3.197802 1.803575 0
M  V30 37 H 2.549699 -0.742895 1.469166 0
M  V30 38 H 4.014588 3.422954 -2.063176 0
M  V30 39 H -0.214861 4.530627 0.212573 0
M  V30 40 H -1.521540 3.265975 1.727938 0
M  V30 41 H -1.567126 -0.038642 -0.029786 0
M  V30 42 H -4.417402 -1.702073 2.553234 0
M  V30 43 H -2.871281 2.172735 3.348197 0
M  V30 44 H 0.627298 0.410815 0.621489 0
M  V30 45 H 3.613676 -1.243457 -2.648660 0
M  V30 46 H 3.767087 -3.652708 -2.324155 0
M  V30 END ATOM
M  V30 BEGIN BOND
M  V30 1 1 1 2
M  V30 2 1 2 3
M  V30 3 2 3 4
M  V30 4 1 4 5
M  V30 5 2 5 6
M  V30 6 1 6 7
M  V30 7 2 7 8
M  V30 8 1 8 9
M  V30 9 1 9 10
M  V30 10 2 10 11
M  V30 11 1 11 12
M  V30 12 2 12 13
M  V30 13 1 13 14
M  V30 14 1 14 15
M  V30 15 2 15 16
M  V30 16 1 16 17
M  V30 17 1 17 18
M  V30 18 1 18 19
M  V30 19 1 18 20
M  V30 20 1 18 21
M  V30 21 2 17 22
M  V30 22 1 22 23
M  V30 23 1 23 24
M  V30 24 1 24 25
M  V30 25 1 24 26
M  V30 26 1 24 27
M  V30 27 2 23 28
M  V30 28 1 13 29
M  V30 29 2 29 30
M  V30 30 1 6 31
M  V30 31 2 31 32
M  V30 32 1 32 3
M  V30 33 1 30 7
M  V30 34 1 30 10
M  V30 35 1 28 15
M  V30 36 1 1 33
M  V30 37 1 1 34
M  V30 38 1 1 35
M  V30 39 1 4 36
M  V30 40 1 5 37
M  V30 41 1 9 38
M  V30 42 1 12 39
M  V30 43 1 14 40
M  V30 44 1 16 41
M  V30 45 1 22 42
M  V30 46 1 28 43
M  V30 47 1 29 44
M  V30 48 1 31 45
M  V30 49 1 32 46
M  V30 END BOND
M  V30 END CTAB
M  END
>  <Dataset>  (838) 
ChEMBL_Kinases

>  <Ligand_Instance>  (838) 
nan

>  <PDB_ID>  (838) 
nan

>  <Standardized_SMILES>  (838) 
COc1ccc(-c2n[nH]c3ncc(Nc4cc(C(F)(F)F)cc(C(F)(F)F)c4)cc23)cc1

>  <Name>  (838) 
nan

>  <Pocket>  (838) 
nan

>  <ATP_Site>  (838) 
nan

>  <Peripheral>  (838) 
nan

>  <Num_H_Atoms_ProtBoundConf>  (838) 
nan

>  <Num_Resolved_Atoms>  (838) 
nan

>  <Num_Not_Resolved_Atoms>  (838) 
nan

$$$$
CHEMBL4875604
     RDKit          3D

  0  0  0  0  0  0  0  0  0  0999 V3000
M  V30 BEGIN CTAB
M  V30 COUNTS 63 67 0 0 0
M  V30 BEGIN ATOM
M  V30 1 C 2.499392 -2.503526 5.251615 0
M  V30 2 C 2.831274 -2.174959 3.796693 0
M  V30 3 C 2.606591 -3.405307 3.007435 0
M  V30 4 N 2.193482 -0.987285 3.350536 0
M  V30 5 C 2.313208 0.118692 4.132214 0
M  V30 6 O 2.903440 0.333444 5.235537 0
M  V30 7 C 1.615360 1.136397 3.495327 0
M  V30 8 C 1.368904 2.443549 3.767456 0
M  V30 9 N 0.634830 3.167352 2.914871 0
M  V30 10 C 0.111098 2.679270 1.779500 0
M  V30 11 N -0.651210 3.550753 0.956358 0
M  V30 12 C -1.296271 3.270364 -0.275679 0
M  V30 13 C -2.002033 4.241162 -0.956539 0
M  V30 14 C -2.639571 4.029673 -2.140156 0
M  V30 15 C -2.615228 2.805760 -2.738544 0
M  V30 16 C -1.926767 1.795213 -2.107571 0
M  V30 17 C -1.295072 2.047978 -0.912189 0
M  V30 18 C -1.911817 0.469238 -2.775213 0
M  V30 19 N -3.152047 0.130499 -3.385821 0
M  V30 20 C -3.911550 1.171820 -3.965222 0
M  V30 21 C -3.293281 2.520696 -4.029132 0
M  V30 22 N 0.354240 1.391996 1.512264 0
M  V30 23 C 1.081622 0.629634 2.333420 0
M  V30 24 N 1.471093 -0.677097 2.301042 0
M  V30 25 C 1.135586 -1.566948 1.271364 0
M  V30 26 N 0.240365 -2.572747 1.210271 0
M  V30 27 C 0.108411 -3.279340 0.095936 0
M  V30 28 C -0.913148 -4.352673 0.175806 0
M  V30 29 C -0.972926 -5.082177 -1.150070 0
M  V30 30 C -0.562500 -5.389812 1.216004 0
M  V30 31 C -2.213319 -3.753377 0.444896 0
M  V30 32 N -3.253572 -3.295670 0.659140 0
M  V30 33 C 0.833743 -3.074117 -1.061609 0
M  V30 34 C 1.762903 -2.053431 -1.044136 0
M  V30 35 C 1.903483 -1.307975 0.128601 0
M  V30 36 F 2.860294 -0.328455 0.004955 0
M  V30 37 H 2.307908 -3.574461 5.403679 0
M  V30 38 H 1.506062 -1.996387 5.429308 0
M  V30 39 H 3.211170 -2.052044 5.957884 0
M  V30 40 H 3.943861 -1.983988 3.812261 0
M  V30 41 H 3.332940 -4.174846 3.411956 0
M  V30 42 H 2.817572 -3.370731 1.940418 0
M  V30 43 H 1.614296 -3.840676 3.284110 0
M  V30 44 H 1.762469 2.889340 4.662014 0
M  V30 45 H -0.765489 4.543048 1.286521 0
M  V30 46 H -2.063944 5.242690 -0.537756 0
M  V30 47 H -3.175141 4.829259 -2.623942 0
M  V30 48 H -0.788275 1.216065 -0.493437 0
M  V30 49 H -1.657155 -0.278157 -1.998478 0
M  V30 50 H -1.106029 0.499582 -3.539513 0
M  V30 51 H -3.704433 -0.586538 -2.868332 0
M  V30 52 H -4.234382 0.917906 -5.016965 0
M  V30 53 H -4.878403 1.277005 -3.391147 0
M  V30 54 H -4.102135 3.267352 -4.190407 0
M  V30 55 H -2.562065 2.545786 -4.868317 0
M  V30 56 H -1.275094 -4.370431 -1.965411 0
M  V30 57 H -0.006634 -5.520885 -1.430867 0
M  V30 58 H -1.703696 -5.915415 -1.105240 0
M  V30 59 H 0.412943 -5.849109 0.884680 0
M  V30 60 H -1.302712 -6.209481 1.120300 0
M  V30 61 H -0.473213 -4.998753 2.236643 0
M  V30 62 H 0.691862 -3.675779 -1.947263 0
M  V30 63 H 2.323244 -1.891513 -1.931765 0
M  V30 END ATOM
M  V30 BEGIN BOND
M  V30 1 1 1 2
M  V30 2 1 2 3
M  V30 3 1 2 4
M  V30 4 1 4 5
M  V30 5 2 5 6
M  V30 6 1 5 7
M  V30 7 2 7 8
M  V30 8 1 8 9
M  V30 9 2 9 10
M  V30 10 1 10 11
M  V30 11 1 11 12
M  V30 12 2 12 13
M  V30 13 1 13 14
M  V30 14 2 14 15
M  V30 15 1 15 16
M  V30 16 2 16 17
M  V30 17 1 16 18
M  V30 18 1 18 19
M  V30 19 1 19 20
M  V30 20 1 20 21
M  V30 21 1 10 22
M  V30 22 2 22 23
M  V30 23 1 23 24
M  V30 24 1 24 25
M  V30 25 2 25 26
M  V30 26 1 26 27
M  V30 27 1 27 28
M  V30 28 1 28 29
M  V30 29 1 28 30
M  V30 30 1 28 31
M  V30 31 3 31 32
M  V30 32 2 27 33
M  V30 33 1 33 34
M  V30 34 2 34 35
M  V30 35 1 35 36
M  V30 36 1 24 4
M  V30 37 1 35 25
M  V30 38 1 23 7
M  V30 39 1 17 12
M  V30 40 1 21 15
M  V30 41 1 1 37
M  V30 42 1 1 38
M  V30 43 1 1 39
M  V30 44 1 2 40
M  V30 45 1 3 41
M  V30 46 1 3 42
M  V30 47 1 3 43
M  V30 48 1 8 44
M  V30 49 1 11 45
M  V30 50 1 13 46
M  V30 51 1 14 47
M  V30 52 1 17 48
M  V30 53 1 18 49
M  V30 54 1 18 50
M  V30 55 1 19 51
M  V30 56 1 20 52
M  V30 57 1 20 53
M  V30 58 1 21 54
M  V30 59 1 21 55
M  V30 60 1 29 56
M  V30 61 1 29 57
M  V30 62 1 29 58
M  V30 63 1 30 59
M  V30 64 1 30 60
M  V30 65 1 30 61
M  V30 66 1 33 62
M  V30 67 1 34 63
M  V30 END BOND
M  V30 END CTAB
M  END
>  <Dataset>  (839) 
ChEMBL_Kinases

>  <Ligand_Instance>  (839) 
nan

>  <PDB_ID>  (839) 
nan

>  <Standardized_SMILES>  (839) 
CC(C)n1c(=O)c2cnc(Nc3ccc4c(c3)CNCC4)nc2n1-c1nc(C(C)(C)C#N)ccc1F

>  <Name>  (839) 
nan

>  <Pocket>  (839) 
nan

>  <ATP_Site>  (839) 
nan

>  <Peripheral>  (839) 
nan

>  <Num_H_Atoms_ProtBoundConf>  (839) 
nan

>  <Num_Resolved_Atoms>  (839) 
nan

>  <Num_Not_Resolved_Atoms>  (839) 
nan

$$$$
CHEMBL482336
     RDKit          3D

  0  0  0  0  0  0  0  0  0  0999 V3000
M  V30 BEGIN CTAB
M  V30 COUNTS 60 63 0 0 0
M  V30 BEGIN ATOM
M  V30 1 C 1.516979 0.993582 5.736976 0
M  V30 2 O 2.029093 -0.259285 5.326306 0
M  V30 3 C 2.590495 -0.475335 4.077212 0
M  V30 4 C 3.029734 -1.758486 3.869330 0
M  V30 5 C 3.608322 -2.090772 2.657327 0
M  V30 6 C 3.758625 -1.150318 1.633110 0
M  V30 7 C 3.310343 0.126604 1.868447 0
M  V30 8 C 2.723536 0.475725 3.089080 0
M  V30 9 C 3.466279 1.121918 0.808041 0
M  V30 10 C 3.375730 0.598917 -0.590411 0
M  V30 11 C 1.971007 0.900045 -1.054114 0
M  V30 12 O 1.715128 1.625490 -2.051420 0
M  V30 13 N 0.968644 0.291018 -0.263441 0
M  V30 14 C -0.465589 0.364036 -0.417301 0
M  V30 15 C -0.965515 1.441590 0.307635 0
M  V30 16 C -2.323965 1.694252 0.297814 0
M  V30 17 C -3.151700 0.885927 -0.420430 0
M  V30 18 C -4.589096 1.039106 -0.516091 0
M  V30 19 C -5.439920 0.723897 -1.568669 0
M  V30 20 N -6.712055 1.026856 -1.242921 0
M  V30 21 N -6.740721 1.533252 -0.009909 0
M  V30 22 C -5.454644 1.543296 0.436823 0
M  V30 23 C -2.644911 -0.172588 -1.130438 0
M  V30 24 C -1.303795 -0.483091 -1.165474 0
M  V30 25 O -0.513115 -1.425448 -1.749030 0
M  V30 26 C -0.832616 -2.492919 -2.575475 0
M  V30 27 C -1.736836 -3.531311 -1.959627 0
M  V30 28 N -1.023667 -4.041673 -0.792261 0
M  V30 29 C -1.760446 -5.055600 -0.085270 0
M  V30 30 C 0.321044 -4.420194 -1.124368 0
M  V30 31 C 3.681155 -0.847122 -0.762143 0
M  V30 32 O 4.309553 -1.351118 0.398518 0
M  V30 33 H 1.108788 1.581581 4.903014 0
M  V30 34 H 2.315265 1.614803 6.230790 0
M  V30 35 H 0.718310 0.880965 6.501589 0
M  V30 36 H 2.965928 -2.549856 4.575050 0
M  V30 37 H 3.964670 -3.083456 2.458845 0
M  V30 38 H 2.363015 1.472765 3.298258 0
M  V30 39 H 2.688311 1.920814 0.992540 0
M  V30 40 H 4.433196 1.692954 0.945121 0
M  V30 41 H 4.059446 1.200886 -1.226535 0
M  V30 42 H 1.127259 -0.316552 0.569410 0
M  V30 43 H -0.397306 2.138208 0.905247 0
M  V30 44 H -2.824924 2.506799 0.826544 0
M  V30 45 H -5.059554 0.292273 -2.502807 0
M  V30 46 H -7.573652 1.862700 0.525109 0
M  V30 47 H -5.180062 1.912783 1.433683 0
M  V30 48 H -3.205540 -0.860421 -1.730920 0
M  V30 49 H -1.266803 -2.082937 -3.516721 0
M  V30 50 H 0.122828 -2.984309 -2.891501 0
M  V30 51 H -2.722349 -3.140192 -1.715015 0
M  V30 52 H -1.878061 -4.331730 -2.721580 0
M  V30 53 H -2.593620 -5.493646 -0.644086 0
M  V30 54 H -2.110405 -4.584649 0.875652 0
M  V30 55 H -1.058720 -5.881799 0.197879 0
M  V30 56 H 0.945128 -3.494903 -1.066760 0
M  V30 57 H 0.418083 -4.940240 -2.086589 0
M  V30 58 H 0.709039 -5.082467 -0.306042 0
M  V30 59 H 4.387991 -0.954005 -1.631073 0
M  V30 60 H 2.783337 -1.471583 -0.962064 0
M  V30 END ATOM
M  V30 BEGIN BOND
M  V30 1 1 1 2
M  V30 2 1 2 3
M  V30 3 2 3 4
M  V30 4 1 4 5
M  V30 5 2 5 6
M  V30 6 1 6 7
M  V30 7 2 7 8
M  V30 8 1 7 9
M  V30 9 1 9 10
M  V30 10 1 10 11
M  V30 11 2 11 12
M  V30 12 1 11 13
M  V30 13 1 13 14
M  V30 14 2 14 15
M  V30 15 1 15 16
M  V30 16 2 16 17
M  V30 17 1 17 18
M  V30 18 1 18 19
M  V30 19 2 19 20
M  V30 20 1 20 21
M  V30 21 1 21 22
M  V30 22 1 17 23
M  V30 23 2 23 24
M  V30 24 1 24 25
M  V30 25 1 25 26
M  V30 26 1 26 27
M  V30 27 1 27 28
M  V30 28 1 28 29
M  V30 29 1 28 30
M  V30 30 1 10 31
M  V30 31 1 31 32
M  V30 32 1 8 3
M  V30 33 1 24 14
M  V30 34 1 32 6
M  V30 35 2 22 18
M  V30 36 1 1 33
M  V30 37 1 1 34
M  V30 38 1 1 35
M  V30 39 1 4 36
M  V30 40 1 5 37
M  V30 41 1 8 38
M  V30 42 1 9 39
M  V30 43 1 9 40
M  V30 44 1 10 41
M  V30 45 1 13 42
M  V30 46 1 15 43
M  V30 47 1 16 44
M  V30 48 1 19 45
M  V30 49 1 21 46
M  V30 50 1 22 47
M  V30 51 1 23 48
M  V30 52 1 26 49
M  V30 53 1 26 50
M  V30 54 1 27 51
M  V30 55 1 27 52
M  V30 56 1 29 53
M  V30 57 1 29 54
M  V30 58 1 29 55
M  V30 59 1 30 56
M  V30 60 1 30 57
M  V30 61 1 30 58
M  V30 62 1 31 59
M  V30 63 1 31 60
M  V30 END BOND
M  V30 END CTAB
M  END
>  <Dataset>  (840) 
ChEMBL_Kinases

>  <Ligand_Instance>  (840) 
nan

>  <PDB_ID>  (840) 
nan

>  <Standardized_SMILES>  (840) 
COc1ccc2c(c1)CC(C(=O)Nc1ccc(-c3cn[nH]c3)cc1OCCN(C)C)CO2

>  <Name>  (840) 
nan

>  <Pocket>  (840) 
nan

>  <ATP_Site>  (840) 
nan

>  <Peripheral>  (840) 
nan

>  <Num_H_Atoms_ProtBoundConf>  (840) 
nan

>  <Num_Resolved_Atoms>  (840) 
nan

>  <Num_Not_Resolved_Atoms>  (840) 
nan

$$$$
CHEMBL1446323
     RDKit          3D

  0  0  0  0  0  0  0  0  0  0999 V3000
M  V30 BEGIN CTAB
M  V30 COUNTS 41 43 0 0 0
M  V30 BEGIN ATOM
M  V30 1 C 1.042566 -5.664044 1.992464 0
M  V30 2 O 1.526771 -4.639926 1.176320 0
M  V30 3 C 0.906026 -4.807824 -0.072325 0
M  V30 4 C 1.402148 -3.717213 -0.990305 0
M  V30 5 N 1.060937 -2.422338 -0.430709 0
M  V30 6 C 1.456354 -1.273997 -1.171961 0
M  V30 7 N 2.108903 -1.373426 -2.325713 0
M  V30 8 C 2.517769 -0.344113 -3.086856 0
M  V30 9 N 2.252870 0.896080 -2.660550 0
M  V30 10 C 1.593585 1.136564 -1.499783 0
M  V30 11 C 1.336497 2.426616 -1.088941 0
M  V30 12 C 0.668961 2.629071 0.087854 0
M  V30 13 C 0.260989 1.532885 0.849706 0
M  V30 14 C -0.434599 1.911590 2.074884 0
M  V30 15 C 0.131123 2.921325 2.856814 0
M  V30 16 C -0.378601 3.412156 4.047622 0
M  V30 17 C -1.549544 2.821788 4.458501 0
M  V30 18 C -2.168232 1.819349 3.741072 0
M  V30 19 C -1.608012 1.377479 2.564214 0
M  V30 20 C -2.235662 0.309017 1.760351 0
M  V30 21 C 0.542794 0.262986 0.394483 0
M  V30 22 C 1.209470 0.026360 -0.779666 0
M  V30 23 H -0.064766 -5.607426 2.102614 0
M  V30 24 H 1.464586 -5.629779 3.012379 0
M  V30 25 H 1.269019 -6.636011 1.513865 0
M  V30 26 H -0.174660 -4.552150 0.131363 0
M  V30 27 H 1.025592 -5.808767 -0.478629 0
M  V30 28 H 2.518977 -3.789127 -0.959480 0
M  V30 29 H 1.000420 -3.849974 -2.013115 0
M  V30 30 H 0.550391 -2.404073 0.473770 0
M  V30 31 H 3.039064 -0.584392 -4.002782 0
M  V30 32 H 1.676123 3.240567 -1.719779 0
M  V30 33 H 0.509846 3.682711 0.333244 0
M  V30 34 H 1.067781 3.377946 2.507094 0
M  V30 35 H 0.146965 4.196872 4.566493 0
M  V30 36 H -1.974705 3.192607 5.399664 0
M  V30 37 H -3.084866 1.365673 4.074209 0
M  V30 38 H -3.354309 0.311392 1.887879 0
M  V30 39 H -1.925690 -0.691354 2.122889 0
M  V30 40 H -1.980421 0.384278 0.672564 0
M  V30 41 H 0.200374 -0.535430 1.033365 0
M  V30 END ATOM
M  V30 BEGIN BOND
M  V30 1 1 1 2
M  V30 2 1 2 3
M  V30 3 1 3 4
M  V30 4 1 4 5
M  V30 5 1 5 6
M  V30 6 2 6 7
M  V30 7 1 7 8
M  V30 8 2 8 9
M  V30 9 1 9 10
M  V30 10 2 10 11
M  V30 11 1 11 12
M  V30 12 2 12 13
M  V30 13 1 13 14
M  V30 14 2 14 15
M  V30 15 1 15 16
M  V30 16 2 16 17
M  V30 17 1 17 18
M  V30 18 2 18 19
M  V30 19 1 19 20
M  V30 20 1 13 21
M  V30 21 2 21 22
M  V30 22 1 22 6
M  V30 23 1 22 10
M  V30 24 1 19 14
M  V30 25 1 1 23
M  V30 26 1 1 24
M  V30 27 1 1 25
M  V30 28 1 3 26
M  V30 29 1 3 27
M  V30 30 1 4 28
M  V30 31 1 4 29
M  V30 32 1 5 30
M  V30 33 1 8 31
M  V30 34 1 11 32
M  V30 35 1 12 33
M  V30 36 1 15 34
M  V30 37 1 16 35
M  V30 38 1 17 36
M  V30 39 1 18 37
M  V30 40 1 20 38
M  V30 41 1 20 39
M  V30 42 1 20 40
M  V30 43 1 21 41
M  V30 END BOND
M  V30 END CTAB
M  END
>  <Dataset>  (841) 
ChEMBL_Kinases

>  <Ligand_Instance>  (841) 
nan

>  <PDB_ID>  (841) 
nan

>  <Standardized_SMILES>  (841) 
COCCNc1ncnc2ccc(-c3ccccc3C)cc12

>  <Name>  (841) 
nan

>  <Pocket>  (841) 
nan

>  <ATP_Site>  (841) 
nan

>  <Peripheral>  (841) 
nan

>  <Num_H_Atoms_ProtBoundConf>  (841) 
nan

>  <Num_Resolved_Atoms>  (841) 
nan

>  <Num_Not_Resolved_Atoms>  (841) 
nan

$$$$
CHEMBL482368
     RDKit          3D

  0  0  0  0  0  0  0  0  0  0999 V3000
M  V30 BEGIN CTAB
M  V30 COUNTS 61 66 0 0 0
M  V30 BEGIN ATOM
M  V30 1 C 6.115999 -5.149401 3.774181 0
M  V30 2 O 5.353320 -4.630830 4.846898 0
M  V30 3 C 4.368188 -3.718882 4.565405 0
M  V30 4 C 3.965138 -3.185376 3.345542 0
M  V30 5 C 2.949936 -2.284925 3.325910 0
M  V30 6 C 2.553552 -1.743766 2.016952 0
M  V30 7 C 1.225588 -1.376254 1.788248 0
M  V30 8 C 0.843917 -0.863389 0.552288 0
M  V30 9 C 1.802078 -0.728617 -0.431818 0
M  V30 10 C 1.773668 -0.269300 -1.733136 0
M  V30 11 C 0.615080 0.238335 -2.468889 0
M  V30 12 N -0.648510 0.353911 -2.015889 0
M  V30 13 C -1.457339 0.855052 -2.951491 0
M  V30 14 C -2.803431 1.157380 -2.980048 0
M  V30 15 N -3.658725 0.947186 -1.861563 0
M  V30 16 C -5.046302 1.356935 -1.976667 0
M  V30 17 C -5.786366 1.475340 -0.701154 0
M  V30 18 N -5.191547 0.868072 0.435559 0
M  V30 19 C -6.246847 0.258193 1.238407 0
M  V30 20 C -4.240290 -0.154320 0.161675 0
M  V30 21 C -3.070905 0.328082 -0.680836 0
M  V30 22 C -3.232340 1.670297 -4.181835 0
M  V30 23 C -2.443883 1.884630 -5.285701 0
M  V30 24 C -1.105009 1.567344 -5.209983 0
M  V30 25 C -0.615260 1.047455 -4.026401 0
M  V30 26 N 0.646385 0.674771 -3.740494 0
M  V30 27 N 3.006498 -0.352475 -2.261631 0
M  V30 28 N 3.854216 -0.849012 -1.363480 0
M  V30 29 C 3.137734 -1.082470 -0.247227 0
M  V30 30 C 3.494630 -1.592795 0.996776 0
M  V30 31 C 2.269953 -1.848417 4.460114 0
M  V30 32 C 2.670402 -2.377786 5.667392 0
M  V30 33 C 3.709391 -3.303690 5.717795 0
M  V30 34 N 3.995504 -3.750496 7.052237 0
M  V30 35 H 6.322215 -4.382544 3.019678 0
M  V30 36 H 5.541337 -5.995490 3.336716 0
M  V30 37 H 7.072618 -5.490254 4.222501 0
M  V30 38 H 4.524653 -3.560506 2.521999 0
M  V30 39 H 0.459626 -1.478696 2.558961 0
M  V30 40 H -0.174065 -0.565510 0.330371 0
M  V30 41 H -5.103133 2.338980 -2.530995 0
M  V30 42 H -5.589500 0.627147 -2.618033 0
M  V30 43 H -5.887323 2.570671 -0.450988 0
M  V30 44 H -6.849406 1.143634 -0.820731 0
M  V30 45 H -6.341473 -0.833636 1.008315 0
M  V30 46 H -6.107098 0.365726 2.315811 0
M  V30 47 H -7.256040 0.680229 0.991077 0
M  V30 48 H -4.729814 -0.961243 -0.412710 0
M  V30 49 H -3.902781 -0.570896 1.142253 0
M  V30 50 H -2.527039 -0.619733 -0.972277 0
M  V30 51 H -2.418988 1.040130 -0.160862 0
M  V30 52 H -4.266442 1.943107 -4.324786 0
M  V30 53 H -2.802467 2.285332 -6.210592 0
M  V30 54 H -0.463842 1.725377 -6.061358 0
M  V30 55 H 1.464222 0.722967 -4.386672 0
M  V30 56 H 4.877590 -1.023569 -1.498977 0
M  V30 57 H 4.516497 -1.881456 1.188691 0
M  V30 58 H 1.467532 -1.128050 4.385450 0
M  V30 59 H 2.131916 -2.028415 6.539091 0
M  V30 60 H 4.763872 -3.694074 7.753141 0
M  V30 61 H 3.445094 -4.310624 7.743221 0
M  V30 END ATOM
M  V30 BEGIN BOND
M  V30 1 1 1 2
M  V30 2 1 2 3
M  V30 3 2 3 4
M  V30 4 1 4 5
M  V30 5 1 5 6
M  V30 6 2 6 7
M  V30 7 1 7 8
M  V30 8 2 8 9
M  V30 9 1 9 10
M  V30 10 1 10 11
M  V30 11 2 11 12
M  V30 12 1 12 13
M  V30 13 2 13 14
M  V30 14 1 14 15
M  V30 15 1 15 16
M  V30 16 1 16 17
M  V30 17 1 17 18
M  V30 18 1 18 19
M  V30 19 1 18 20
M  V30 20 1 20 21
M  V30 21 1 14 22
M  V30 22 2 22 23
M  V30 23 1 23 24
M  V30 24 2 24 25
M  V30 25 1 25 26
M  V30 26 2 10 27
M  V30 27 1 27 28
M  V30 28 1 28 29
M  V30 29 2 29 30
M  V30 30 2 5 31
M  V30 31 1 31 32
M  V30 32 2 32 33
M  V30 33 1 33 34
M  V30 34 1 33 3
M  V30 35 1 30 6
M  V30 36 1 29 9
M  V30 37 1 26 11
M  V30 38 1 25 13
M  V30 39 1 21 15
M  V30 40 1 1 35
M  V30 41 1 1 36
M  V30 42 1 1 37
M  V30 43 1 4 38
M  V30 44 1 7 39
M  V30 45 1 8 40
M  V30 46 1 16 41
M  V30 47 1 16 42
M  V30 48 1 17 43
M  V30 49 1 17 44
M  V30 50 1 19 45
M  V30 51 1 19 46
M  V30 52 1 19 47
M  V30 53 1 20 48
M  V30 54 1 20 49
M  V30 55 1 21 50
M  V30 56 1 21 51
M  V30 57 1 22 52
M  V30 58 1 23 53
M  V30 59 1 24 54
M  V30 60 1 26 55
M  V30 61 1 28 56
M  V30 62 1 30 57
M  V30 63 1 31 58
M  V30 64 1 32 59
M  V30 65 1 34 60
M  V30 66 1 34 61
M  V30 END BOND
M  V30 END CTAB
M  END
>  <Dataset>  (842) 
ChEMBL_Kinases

>  <Ligand_Instance>  (842) 
nan

>  <PDB_ID>  (842) 
nan

>  <Standardized_SMILES>  (842) 
COc1cc(-c2ccc3c(-c4nc5c(N6CCN(C)CC6)cccc5[nH]4)n[nH]c3c2)ccc1N

>  <Name>  (842) 
nan

>  <Pocket>  (842) 
nan

>  <ATP_Site>  (842) 
nan

>  <Peripheral>  (842) 
nan

>  <Num_H_Atoms_ProtBoundConf>  (842) 
nan

>  <Num_Resolved_Atoms>  (842) 
nan

>  <Num_Not_Resolved_Atoms>  (842) 
nan

$$$$
CHEMBL482538
     RDKit          3D

  0  0  0  0  0  0  0  0  0  0999 V3000
M  V30 BEGIN CTAB
M  V30 COUNTS 25 27 0 0 0
M  V30 BEGIN ATOM
M  V30 1 C 0.418870 -1.601345 4.382658 0
M  V30 2 C -0.175444 -2.391916 3.422220 0
M  V30 3 C -0.109914 -1.991552 2.099449 0
M  V30 4 C 0.533915 -0.817888 1.692834 0
M  V30 5 C 0.478959 -0.595023 0.252913 0
M  V30 6 C 0.745227 -1.661810 -0.585549 0
M  V30 7 C 0.721214 -1.562594 -1.961898 0
M  V30 8 N 0.425393 -0.374319 -2.530426 0
M  V30 9 C 0.158676 0.694385 -1.751576 0
M  V30 10 N -0.159808 1.972790 -2.009746 0
M  V30 11 C -0.336566 2.679634 -0.878524 0
M  V30 12 C -0.121326 1.813784 0.189838 0
M  V30 13 C 0.181917 0.598297 -0.383517 0
M  V30 14 C 1.118330 -0.047144 2.667632 0
M  V30 15 C 1.055892 -0.442083 3.989435 0
M  V30 16 H 0.407021 -1.855410 5.450551 0
M  V30 17 H -0.679096 -3.305181 3.718108 0
M  V30 18 H -0.603968 -2.671223 1.403502 0
M  V30 19 H 0.992227 -2.653784 -0.222309 0
M  V30 20 H 0.930768 -2.402180 -2.624953 0
M  V30 21 H -0.257585 2.367150 -2.975974 0
M  V30 22 H -0.594382 3.713775 -0.735222 0
M  V30 23 H -0.184187 2.063640 1.239780 0
M  V30 24 H 1.596751 0.842285 2.285934 0
M  V30 25 H 1.542562 0.223079 4.694802 0
M  V30 END ATOM
M  V30 BEGIN BOND
M  V30 1 2 1 2
M  V30 2 1 2 3
M  V30 3 2 3 4
M  V30 4 1 4 5
M  V30 5 2 5 6
M  V30 6 1 6 7
M  V30 7 2 7 8
M  V30 8 1 8 9
M  V30 9 1 9 10
M  V30 10 1 10 11
M  V30 11 2 11 12
M  V30 12 1 12 13
M  V30 13 1 4 14
M  V30 14 2 14 15
M  V30 15 1 15 1
M  V30 16 1 13 5
M  V30 17 2 13 9
M  V30 18 1 1 16
M  V30 19 1 2 17
M  V30 20 1 3 18
M  V30 21 1 6 19
M  V30 22 1 7 20
M  V30 23 1 10 21
M  V30 24 1 11 22
M  V30 25 1 12 23
M  V30 26 1 14 24
M  V30 27 1 15 25
M  V30 END BOND
M  V30 END CTAB
M  END
>  <Dataset>  (843) 
ChEMBL_Kinases

>  <Ligand_Instance>  (843) 
nan

>  <PDB_ID>  (843) 
nan

>  <Standardized_SMILES>  (843) 
c1ccc(-c2ccnc3[nH]ccc23)cc1

>  <Name>  (843) 
nan

>  <Pocket>  (843) 
nan

>  <ATP_Site>  (843) 
nan

>  <Peripheral>  (843) 
nan

>  <Num_H_Atoms_ProtBoundConf>  (843) 
nan

>  <Num_Resolved_Atoms>  (843) 
nan

>  <Num_Not_Resolved_Atoms>  (843) 
nan

$$$$
CHEMBL482539
     RDKit          3D

  0  0  0  0  0  0  0  0  0  0999 V3000
M  V30 BEGIN CTAB
M  V30 COUNTS 41 43 0 0 0
M  V30 BEGIN ATOM
M  V30 1 C -1.113857 -4.336396 -0.444601 0
M  V30 2 N -0.045504 -5.224322 -0.848334 0
M  V30 3 C 1.164529 -4.952605 -0.100568 0
M  V30 4 C 1.755413 -3.608523 -0.459659 0
M  V30 5 N 2.968645 -3.341130 0.292981 0
M  V30 6 S 3.619460 -1.793851 -0.141129 0
M  V30 7 O 3.870897 -1.798887 -1.640973 0
M  V30 8 O 4.882715 -1.565960 0.617303 0
M  V30 9 C 2.429130 -0.549638 0.266385 0
M  V30 10 C 1.499304 -0.178116 -0.684938 0
M  V30 11 C 0.584890 0.793207 -0.332985 0
M  V30 12 C 0.616454 1.357388 0.925258 0
M  V30 13 C -0.416093 2.366587 1.126484 0
M  V30 14 C -0.603478 3.328178 0.153991 0
M  V30 15 C -1.594871 4.278724 0.383518 0
M  V30 16 N -2.327324 4.232720 1.525114 0
M  V30 17 C -2.120443 3.281649 2.455063 0
M  V30 18 N -2.746257 3.084131 3.633585 0
M  V30 19 C -2.207785 1.993473 4.252736 0
M  V30 20 C -1.220476 1.516457 3.415179 0
M  V30 21 C -1.154274 2.309738 2.290534 0
M  V30 22 C 1.551775 0.979129 1.871800 0
M  V30 23 C 2.471954 0.008326 1.531437 0
M  V30 24 H -0.766681 -3.630413 0.332845 0
M  V30 25 H -1.950532 -4.954875 -0.047758 0
M  V30 26 H -1.474490 -3.774000 -1.335097 0
M  V30 27 H -0.322222 -6.221767 -0.723101 0
M  V30 28 H 1.881166 -5.774278 -0.294704 0
M  V30 29 H 0.878483 -4.999351 0.982340 0
M  V30 30 H 2.017023 -3.681908 -1.553930 0
M  V30 31 H 0.996220 -2.825278 -0.301576 0
M  V30 32 H 2.723287 -3.294643 1.306503 0
M  V30 33 H 1.516842 -0.652850 -1.660595 0
M  V30 34 H -0.117716 1.041574 -1.121853 0
M  V30 35 H -0.021034 3.366741 -0.756848 0
M  V30 36 H -1.745400 5.046670 -0.390900 0
M  V30 37 H -3.530136 3.627531 4.085306 0
M  V30 38 H -2.522214 1.598389 5.227433 0
M  V30 39 H -0.601242 0.670618 3.594955 0
M  V30 40 H 1.519018 1.464821 2.835769 0
M  V30 41 H 3.207657 -0.283305 2.288111 0
M  V30 END ATOM
M  V30 BEGIN BOND
M  V30 1 1 1 2
M  V30 2 1 2 3
M  V30 3 1 3 4
M  V30 4 1 4 5
M  V30 5 1 5 6
M  V30 6 2 6 7
M  V30 7 2 6 8
M  V30 8 1 6 9
M  V30 9 2 9 10
M  V30 10 1 10 11
M  V30 11 2 11 12
M  V30 12 1 12 13
M  V30 13 2 13 14
M  V30 14 1 14 15
M  V30 15 2 15 16
M  V30 16 1 16 17
M  V30 17 1 17 18
M  V30 18 1 18 19
M  V30 19 2 19 20
M  V30 20 1 20 21
M  V30 21 1 12 22
M  V30 22 2 22 23
M  V30 23 1 23 9
M  V30 24 1 21 13
M  V30 25 2 21 17
M  V30 26 1 1 24
M  V30 27 1 1 25
M  V30 28 1 1 26
M  V30 29 1 2 27
M  V30 30 1 3 28
M  V30 31 1 3 29
M  V30 32 1 4 30
M  V30 33 1 4 31
M  V30 34 1 5 32
M  V30 35 1 10 33
M  V30 36 1 11 34
M  V30 37 1 14 35
M  V30 38 1 15 36
M  V30 39 1 18 37
M  V30 40 1 19 38
M  V30 41 1 20 39
M  V30 42 1 22 40
M  V30 43 1 23 41
M  V30 END BOND
M  V30 END CTAB
M  END
>  <Dataset>  (844) 
ChEMBL_Kinases

>  <Ligand_Instance>  (844) 
nan

>  <PDB_ID>  (844) 
nan

>  <Standardized_SMILES>  (844) 
CNCCNS(=O)(=O)c1ccc(-c2ccnc3[nH]ccc23)cc1

>  <Name>  (844) 
nan

>  <Pocket>  (844) 
nan

>  <ATP_Site>  (844) 
nan

>  <Peripheral>  (844) 
nan

>  <Num_H_Atoms_ProtBoundConf>  (844) 
nan

>  <Num_Resolved_Atoms>  (844) 
nan

>  <Num_Not_Resolved_Atoms>  (844) 
nan

$$$$
CHEMBL482540
     RDKit          3D

  0  0  0  0  0  0  0  0  0  0999 V3000
M  V30 BEGIN CTAB
M  V30 COUNTS 39 42 0 0 0
M  V30 BEGIN ATOM
M  V30 1 O 3.501219 -0.685941 3.743181 0
M  V30 2 S 2.464257 -1.662813 3.242228 0
M  V30 3 O 1.851309 -2.308151 4.426050 0
M  V30 4 N 3.185665 -2.655653 2.124673 0
M  V30 5 C 2.499678 -3.632831 1.414709 0
M  V30 6 C 3.042282 -5.036714 1.376865 0
M  V30 7 N 2.480368 -5.162953 0.041080 0
M  V30 8 C 2.607264 -3.719669 -0.071470 0
M  V30 9 C 1.225020 -0.699062 2.459260 0
M  V30 10 C -0.071812 -1.168459 2.383778 0
M  V30 11 C -0.996436 -0.360500 1.754854 0
M  V30 12 C -0.715252 0.879666 1.198250 0
M  V30 13 C -1.853686 1.557206 0.584302 0
M  V30 14 C -3.061345 1.577797 1.293345 0
M  V30 15 C -4.158200 2.218281 0.728050 0
M  V30 16 N -4.107087 2.825122 -0.483892 0
M  V30 17 C -2.939035 2.810262 -1.179573 0
M  V30 18 N -2.565771 3.304869 -2.373794 0
M  V30 19 C -1.276105 3.029383 -2.638554 0
M  V30 20 C -0.821314 2.322517 -1.545479 0
M  V30 21 C -1.836892 2.184172 -0.645559 0
M  V30 22 C 0.589860 1.320508 1.290123 0
M  V30 23 C 1.541325 0.538547 1.912401 0
M  V30 24 H 4.025657 -2.234000 1.699152 0
M  V30 25 H 1.420991 -3.661128 1.690020 0
M  V30 26 H 4.142768 -5.017120 1.417713 0
M  V30 27 H 2.541540 -5.701996 2.111235 0
M  V30 28 H 1.478205 -5.461043 0.126252 0
M  V30 29 H 3.586530 -3.497869 -0.521072 0
M  V30 30 H 1.810749 -3.291338 -0.684470 0
M  V30 31 H -0.340710 -2.128893 2.802547 0
M  V30 32 H -2.010819 -0.783953 1.724137 0
M  V30 33 H -3.185780 1.112017 2.276360 0
M  V30 34 H -5.096305 2.228936 1.289249 0
M  V30 35 H -3.181962 3.848456 -3.049011 0
M  V30 36 H -0.680630 3.284866 -3.505483 0
M  V30 37 H 0.190797 1.954460 -1.458390 0
M  V30 38 H 0.764068 2.289004 0.845092 0
M  V30 39 H 2.536552 0.943215 1.947952 0
M  V30 END ATOM
M  V30 BEGIN BOND
M  V30 1 2 1 2
M  V30 2 2 2 3
M  V30 3 1 2 4
M  V30 4 1 4 5
M  V30 5 1 5 6
M  V30 6 1 6 7
M  V30 7 1 7 8
M  V30 8 1 2 9
M  V30 9 2 9 10
M  V30 10 1 10 11
M  V30 11 2 11 12
M  V30 12 1 12 13
M  V30 13 2 13 14
M  V30 14 1 14 15
M  V30 15 2 15 16
M  V30 16 1 16 17
M  V30 17 1 17 18
M  V30 18 1 18 19
M  V30 19 2 19 20
M  V30 20 1 20 21
M  V30 21 1 12 22
M  V30 22 2 22 23
M  V30 23 1 8 5
M  V30 24 1 23 9
M  V30 25 1 21 13
M  V30 26 2 21 17
M  V30 27 1 4 24
M  V30 28 1 5 25
M  V30 29 1 6 26
M  V30 30 1 6 27
M  V30 31 1 7 28
M  V30 32 1 8 29
M  V30 33 1 8 30
M  V30 34 1 10 31
M  V30 35 1 11 32
M  V30 36 1 14 33
M  V30 37 1 15 34
M  V30 38 1 18 35
M  V30 39 1 19 36
M  V30 40 1 20 37
M  V30 41 1 22 38
M  V30 42 1 23 39
M  V30 END BOND
M  V30 END CTAB
M  END
>  <Dataset>  (845) 
ChEMBL_Kinases

>  <Ligand_Instance>  (845) 
nan

>  <PDB_ID>  (845) 
nan

>  <Standardized_SMILES>  (845) 
O=S(=O)(NC1CNC1)c1ccc(-c2ccnc3[nH]ccc23)cc1

>  <Name>  (845) 
nan

>  <Pocket>  (845) 
nan

>  <ATP_Site>  (845) 
nan

>  <Peripheral>  (845) 
nan

>  <Num_H_Atoms_ProtBoundConf>  (845) 
nan

>  <Num_Resolved_Atoms>  (845) 
nan

>  <Num_Not_Resolved_Atoms>  (845) 
nan

$$$$
CHEMBL482553
     RDKit          3D

  0  0  0  0  0  0  0  0  0  0999 V3000
M  V30 BEGIN CTAB
M  V30 COUNTS 30 32 0 0 0
M  V30 BEGIN ATOM
M  V30 1 N -1.470831 -4.105102 3.454083 0
M  V30 2 S -0.909714 -4.353048 1.823861 0
M  V30 3 O -0.255229 -5.702212 1.795382 0
M  V30 4 O -2.092776 -4.251021 0.933053 0
M  V30 5 C 0.260208 -3.120865 1.394751 0
M  V30 6 C 1.602138 -3.335726 1.637251 0
M  V30 7 C 2.506145 -2.352104 1.291425 0
M  V30 8 C 2.121693 -1.159117 0.711383 0
M  V30 9 C 0.783051 -0.923862 0.460058 0
M  V30 10 C 0.189526 0.274088 -0.144421 0
M  V30 11 C -0.775424 0.029961 -1.130916 0
M  V30 12 C -1.427201 1.069234 -1.796099 0
M  V30 13 N -1.094149 2.326896 -1.454489 0
M  V30 14 C -0.178764 2.602980 -0.518604 0
M  V30 15 N 0.344639 3.734301 0.017712 0
M  V30 16 C 1.266830 3.451101 0.960206 0
M  V30 17 C 1.371672 2.060137 1.065890 0
M  V30 18 C 0.462452 1.600024 0.135826 0
M  V30 19 C -0.124168 -1.928866 0.815172 0
M  V30 20 H -2.376394 -3.589779 3.468287 0
M  V30 21 H -0.746992 -3.680635 4.057431 0
M  V30 22 H 1.938822 -4.267746 2.094338 0
M  V30 23 H 3.566445 -2.486841 1.467219 0
M  V30 24 H 2.785232 -0.355482 0.420375 0
M  V30 25 H -1.083851 -0.966468 -1.447109 0
M  V30 26 H -2.171547 0.863399 -2.557088 0
M  V30 27 H 0.040937 4.698490 -0.291737 0
M  V30 28 H 1.844406 4.145135 1.551441 0
M  V30 29 H 2.020160 1.503259 1.728502 0
M  V30 30 H -1.194439 -1.797273 0.639722 0
M  V30 END ATOM
M  V30 BEGIN BOND
M  V30 1 1 1 2
M  V30 2 2 2 3
M  V30 3 2 2 4
M  V30 4 1 2 5
M  V30 5 2 5 6
M  V30 6 1 6 7
M  V30 7 2 7 8
M  V30 8 1 8 9
M  V30 9 1 9 10
M  V30 10 2 10 11
M  V30 11 1 11 12
M  V30 12 2 12 13
M  V30 13 1 13 14
M  V30 14 1 14 15
M  V30 15 1 15 16
M  V30 16 2 16 17
M  V30 17 1 17 18
M  V30 18 2 9 19
M  V30 19 1 19 5
M  V30 20 1 18 10
M  V30 21 2 18 14
M  V30 22 1 1 20
M  V30 23 1 1 21
M  V30 24 1 6 22
M  V30 25 1 7 23
M  V30 26 1 8 24
M  V30 27 1 11 25
M  V30 28 1 12 26
M  V30 29 1 15 27
M  V30 30 1 16 28
M  V30 31 1 17 29
M  V30 32 1 19 30
M  V30 END BOND
M  V30 END CTAB
M  END
>  <Dataset>  (846) 
ChEMBL_Kinases

>  <Ligand_Instance>  (846) 
nan

>  <PDB_ID>  (846) 
nan

>  <Standardized_SMILES>  (846) 
NS(=O)(=O)c1cccc(-c2ccnc3[nH]ccc23)c1

>  <Name>  (846) 
nan

>  <Pocket>  (846) 
nan

>  <ATP_Site>  (846) 
nan

>  <Peripheral>  (846) 
nan

>  <Num_H_Atoms_ProtBoundConf>  (846) 
nan

>  <Num_Resolved_Atoms>  (846) 
nan

>  <Num_Not_Resolved_Atoms>  (846) 
nan

$$$$
CHEMBL482193
     RDKit          3D

  0  0  0  0  0  0  0  0  0  0999 V3000
M  V30 BEGIN CTAB
M  V30 COUNTS 52 54 0 0 0
M  V30 BEGIN ATOM
M  V30 1 C 2.150150 -2.999153 2.822615 0
M  V30 2 C 1.582957 -2.916601 1.424192 0
M  V30 3 C 2.479609 -2.217837 0.453447 0 CFG=2
M  V30 4 C 2.782605 -0.801072 0.841772 0
M  V30 5 O 3.518241 -0.697362 2.032098 0
M  V30 6 N 1.716243 -2.152478 -0.806401 0
M  V30 7 C 0.463875 -1.480366 -0.731429 0
M  V30 8 N 0.476096 -0.142289 -0.923024 0
M  V30 9 C -0.624357 0.610977 -0.880590 0
M  V30 10 N -0.491457 1.993960 -1.088246 0
M  V30 11 C -0.444937 3.077165 -0.144474 0
M  V30 12 C 0.666022 2.868367 0.815846 0
M  V30 13 C 1.943245 3.341495 0.620361 0
M  V30 14 C 2.868840 3.084575 1.592781 0
M  V30 15 C 2.573459 2.380709 2.743490 0
M  V30 16 C 1.293930 1.899934 2.950872 0
M  V30 17 C 0.351904 2.153220 1.975906 0
M  V30 18 N -1.826920 0.060055 -0.638495 0
M  V30 19 N -3.054817 0.518415 -0.527968 0
M  V30 20 C -3.898357 -0.507417 -0.261597 0
M  V30 21 C -3.164028 -1.694610 -0.198139 0
M  V30 22 C -3.770142 -3.023130 0.063653 0
M  V30 23 C -4.330073 -3.563391 -1.242897 0
M  V30 24 C -2.640059 -3.962197 0.515929 0
M  V30 25 C -1.866494 -1.280079 -0.442446 0
M  V30 26 N -0.748575 -2.023882 -0.489126 0
M  V30 27 H 1.551814 -3.679327 3.458371 0
M  V30 28 H 3.211624 -3.250591 2.841662 0
M  V30 29 H 2.013404 -1.988028 3.263824 0
M  V30 30 H 1.414990 -3.952720 1.055579 0
M  V30 31 H 0.612120 -2.393718 1.419593 0
M  V30 32 H 3.444507 -2.734064 0.280709 0
M  V30 33 H 3.351167 -0.266926 0.057265 0
M  V30 34 H 1.863364 -0.196069 0.996215 0
M  V30 35 H 4.405141 -0.299322 1.879246 0
M  V30 36 H 2.031177 -2.554451 -1.709105 0
M  V30 37 H -0.432711 2.048664 -2.148748 0
M  V30 38 H -0.247099 4.024857 -0.694217 0
M  V30 39 H -1.425445 3.130936 0.396180 0
M  V30 40 H 2.178015 3.894368 -0.280543 0
M  V30 41 H 3.892167 3.425511 1.508317 0
M  V30 42 H 3.328495 2.186617 3.510207 0
M  V30 43 H 1.054879 1.343485 3.859590 0
M  V30 44 H -0.667737 1.777856 2.124685 0
M  V30 45 H -4.951405 -0.304067 -0.139671 0
M  V30 46 H -4.550768 -2.984880 0.827776 0
M  V30 47 H -3.726819 -3.257327 -2.097182 0
M  V30 48 H -4.437434 -4.671848 -1.196548 0
M  V30 49 H -5.376145 -3.162389 -1.378737 0
M  V30 50 H -2.071037 -3.544192 1.344283 0
M  V30 51 H -3.128664 -4.942233 0.721321 0
M  V30 52 H -1.980220 -4.073696 -0.394515 0
M  V30 END ATOM
M  V30 BEGIN BOND
M  V30 1 1 1 2
M  V30 2 1 2 3
M  V30 3 1 3 4
M  V30 4 1 4 5
M  V30 5 1 3 6
M  V30 6 1 6 7
M  V30 7 1 7 8
M  V30 8 2 8 9
M  V30 9 1 9 10
M  V30 10 1 10 11
M  V30 11 1 11 12
M  V30 12 2 12 13
M  V30 13 1 13 14
M  V30 14 2 14 15
M  V30 15 1 15 16
M  V30 16 2 16 17
M  V30 17 1 9 18
M  V30 18 1 18 19
M  V30 19 2 19 20
M  V30 20 1 20 21
M  V30 21 1 21 22
M  V30 22 1 22 23
M  V30 23 1 22 24
M  V30 24 2 21 25
M  V30 25 1 25 26
M  V30 26 2 26 7
M  V30 27 1 17 12
M  V30 28 1 25 18
M  V30 29 1 1 27
M  V30 30 1 1 28
M  V30 31 1 1 29
M  V30 32 1 2 30
M  V30 33 1 2 31
M  V30 34 1 3 32 CFG=3
M  V30 35 1 4 33
M  V30 36 1 4 34
M  V30 37 1 5 35
M  V30 38 1 6 36
M  V30 39 1 10 37
M  V30 40 1 11 38
M  V30 41 1 11 39
M  V30 42 1 13 40
M  V30 43 1 14 41
M  V30 44 1 15 42
M  V30 45 1 16 43
M  V30 46 1 17 44
M  V30 47 1 20 45
M  V30 48 1 22 46
M  V30 49 1 23 47
M  V30 50 1 23 48
M  V30 51 1 23 49
M  V30 52 1 24 50
M  V30 53 1 24 51
M  V30 54 1 24 52
M  V30 END BOND
M  V30 END CTAB
M  END
>  <Dataset>  (847) 
ChEMBL_Kinases

>  <Ligand_Instance>  (847) 
nan

>  <PDB_ID>  (847) 
nan

>  <Standardized_SMILES>  (847) 
CC[C@H](CO)Nc1nc(NCc2ccccc2)n2ncc(C(C)C)c2n1

>  <Name>  (847) 
nan

>  <Pocket>  (847) 
nan

>  <ATP_Site>  (847) 
nan

>  <Peripheral>  (847) 
nan

>  <Num_H_Atoms_ProtBoundConf>  (847) 
nan

>  <Num_Resolved_Atoms>  (847) 
nan

>  <Num_Not_Resolved_Atoms>  (847) 
nan

$$$$
CHEMBL4799736
     RDKit          3D

  0  0  0  0  0  0  0  0  0  0999 V3000
M  V30 BEGIN CTAB
M  V30 COUNTS 65 70 0 0 0
M  V30 BEGIN ATOM
M  V30 1 C 6.304231 1.410921 3.503251 0
M  V30 2 C 5.832606 1.155609 2.089845 0
M  V30 3 C 5.690910 -0.316921 1.818430 0
M  V30 4 O 6.673562 1.778489 1.199607 0
M  V30 5 C 4.469178 1.775964 1.935017 0
M  V30 6 C 3.823455 1.687037 0.735208 0
M  V30 7 C 2.575367 2.205110 0.450097 0
M  V30 8 N 1.959562 2.099739 -0.813985 0
M  V30 9 C 0.625572 1.992015 -1.250048 0
M  V30 10 C -0.504480 1.842406 -0.482355 0
M  V30 11 C -1.798968 1.755502 -0.953838 0
M  V30 12 O -2.845660 1.605523 -0.049509 0
M  V30 13 C -3.308487 0.375443 0.392067 0
M  V30 14 C -3.214957 0.172916 1.774410 0
M  V30 15 N -3.699096 -1.052674 2.039831 0
M  V30 16 C -3.800592 -1.695064 3.348232 0
M  V30 17 C -4.406947 -3.071209 3.376738 0
M  V30 18 C -2.935917 -2.963430 3.540299 0
M  V30 19 N -4.082003 -1.606081 0.890480 0
M  V30 20 C -3.861604 -0.767459 -0.144552 0
M  V30 21 C -4.078387 -0.835633 -1.590456 0
M  V30 22 C -2.969480 -1.412621 -2.432890 0
M  V30 23 N -3.380400 -2.724332 -1.920096 0
M  V30 24 C -2.871107 -3.987356 -1.542732 0
M  V30 25 O -3.561830 -4.968967 -1.108333 0
M  V30 26 C -1.407014 -4.203065 -1.656996 0
M  V30 27 C -0.883546 -5.589904 -1.846091 0
M  V30 28 C -0.794490 -4.991162 -0.477609 0
M  V30 29 C -4.743190 -2.173141 -1.939275 0
M  V30 30 C -1.963746 1.825356 -2.316996 0
M  V30 31 C -0.844009 1.973865 -3.092205 0
M  V30 32 N 0.385311 2.052134 -2.570882 0
M  V30 33 C 2.021574 2.846334 1.533017 0
M  V30 34 C 2.641947 2.956036 2.757788 0
M  V30 35 N 3.847289 2.420901 2.933130 0
M  V30 36 H 5.602892 1.013986 4.256320 0
M  V30 37 H 6.529686 2.480737 3.663439 0
M  V30 38 H 7.266541 0.848852 3.647820 0
M  V30 39 H 4.656023 -0.651143 2.110154 0
M  V30 40 H 5.839444 -0.485352 0.730970 0
M  V30 41 H 6.409314 -0.946812 2.357840 0
M  V30 42 H 7.419823 1.197134 0.870712 0
M  V30 43 H 4.346700 1.156770 -0.067469 0
M  V30 44 H 2.711959 2.110689 -1.558879 0
M  V30 45 H -0.382270 1.774861 0.574148 0
M  V30 46 H -2.843220 0.801388 2.598745 0
M  V30 47 H -3.913009 -1.052627 4.244414 0
M  V30 48 H -4.987768 -3.384049 4.275227 0
M  V30 49 H -4.817268 -3.489555 2.433934 0
M  V30 50 H -2.315158 -3.227452 2.660923 0
M  V30 51 H -2.453915 -3.097263 4.514969 0
M  V30 52 H -4.662382 -0.014838 -2.055067 0
M  V30 53 H -3.288915 -1.361222 -3.506794 0
M  V30 54 H -1.944441 -1.110906 -2.205655 0
M  V30 55 H -0.763032 -3.370188 -2.035097 0
M  V30 56 H 0.065392 -5.754455 -2.397825 0
M  V30 57 H -1.587892 -6.446939 -1.985704 0
M  V30 58 H -1.503382 -5.353120 0.303155 0
M  V30 59 H 0.211049 -4.669966 -0.126618 0
M  V30 60 H -5.212505 -2.195900 -2.930642 0
M  V30 61 H -5.374945 -2.527027 -1.097571 0
M  V30 62 H -2.949661 1.762521 -2.731147 0
M  V30 63 H -0.920148 2.034524 -4.185180 0
M  V30 64 H 1.058178 3.325867 1.500709 0
M  V30 65 H 2.227192 3.451395 3.616360 0
M  V30 END ATOM
M  V30 BEGIN BOND
M  V30 1 1 1 2
M  V30 2 1 2 3
M  V30 3 1 2 4
M  V30 4 1 2 5
M  V30 5 2 5 6
M  V30 6 1 6 7
M  V30 7 1 7 8
M  V30 8 1 8 9
M  V30 9 2 9 10
M  V30 10 1 10 11
M  V30 11 1 11 12
M  V30 12 1 12 13
M  V30 13 2 13 14
M  V30 14 1 14 15
M  V30 15 1 15 16
M  V30 16 1 16 17
M  V30 17 1 17 18
M  V30 18 1 15 19
M  V30 19 2 19 20
M  V30 20 1 20 21
M  V30 21 1 21 22
M  V30 22 1 22 23
M  V30 23 1 23 24
M  V30 24 2 24 25
M  V30 25 1 24 26
M  V30 26 1 26 27
M  V30 27 1 27 28
M  V30 28 1 23 29
M  V30 29 2 11 30
M  V30 30 1 30 31
M  V30 31 2 31 32
M  V30 32 2 7 33
M  V30 33 1 33 34
M  V30 34 2 34 35
M  V30 35 1 35 5
M  V30 36 1 32 9
M  V30 37 1 20 13
M  V30 38 1 29 21
M  V30 39 1 18 16
M  V30 40 1 28 26
M  V30 41 1 1 36
M  V30 42 1 1 37
M  V30 43 1 1 38
M  V30 44 1 3 39
M  V30 45 1 3 40
M  V30 46 1 3 41
M  V30 47 1 4 42
M  V30 48 1 6 43
M  V30 49 1 8 44
M  V30 50 1 10 45
M  V30 51 1 14 46
M  V30 52 1 16 47
M  V30 53 1 17 48
M  V30 54 1 17 49
M  V30 55 1 18 50
M  V30 56 1 18 51
M  V30 57 1 21 52
M  V30 58 1 22 53
M  V30 59 1 22 54
M  V30 60 1 26 55
M  V30 61 1 27 56
M  V30 62 1 27 57
M  V30 63 1 28 58
M  V30 64 1 28 59
M  V30 65 1 29 60
M  V30 66 1 29 61
M  V30 67 1 30 62
M  V30 68 1 31 63
M  V30 69 1 33 64
M  V30 70 1 34 65
M  V30 END BOND
M  V30 END CTAB
M  END
>  <Dataset>  (848) 
ChEMBL_Kinases

>  <Ligand_Instance>  (848) 
nan

>  <PDB_ID>  (848) 
nan

>  <Standardized_SMILES>  (848) 
CC(C)(O)c1cc(Nc2cc(Oc3cn(C4CC4)nc3C3CN(C(=O)C4CC4)C3)ccn2)ccn1

>  <Name>  (848) 
nan

>  <Pocket>  (848) 
nan

>  <ATP_Site>  (848) 
nan

>  <Peripheral>  (848) 
nan

>  <Num_H_Atoms_ProtBoundConf>  (848) 
nan

>  <Num_Resolved_Atoms>  (848) 
nan

>  <Num_Not_Resolved_Atoms>  (848) 
nan

$$$$
CHEMBL4799738
     RDKit          3D

  0  0  0  0  0  0  0  0  0  0999 V3000
M  V30 BEGIN CTAB
M  V30 COUNTS 54 58 0 0 0
M  V30 BEGIN ATOM
M  V30 1 C 1.347366 -3.499555 7.208159 0
M  V30 2 N 1.084164 -3.450137 5.773318 0
M  V30 3 C 1.716722 -2.617492 4.915211 0
M  V30 4 C 1.173529 -2.895825 3.677524 0
M  V30 5 C 1.560197 -2.226795 2.431081 0
M  V30 6 C 1.974129 -0.899279 2.424435 0
M  V30 7 C 2.332457 -0.283419 1.241910 0
M  V30 8 C 2.298052 -0.941047 0.033697 0
M  V30 9 C 2.659549 -0.301881 -1.137282 0
M  V30 10 N 3.085656 1.059730 -1.144603 0
M  V30 11 C 2.082876 2.081783 -1.261164 0
M  V30 12 C 2.455752 3.406867 -1.317199 0
M  V30 13 C 1.462704 4.342527 -1.423639 0
M  V30 14 C 0.133816 3.981600 -1.473702 0
M  V30 15 C -0.267938 2.669539 -1.419992 0
M  V30 16 N -1.654218 2.383849 -1.474779 0
M  V30 17 C -2.314558 1.149969 -1.437202 0
M  V30 18 O -1.649336 0.091678 -1.342209 0
M  V30 19 N -3.718839 0.952622 -1.497607 0
M  V30 20 C -4.020790 -0.457793 -1.431618 0
M  V30 21 C -4.212886 -0.998383 -0.174332 0
M  V30 22 C -4.505228 -2.348883 -0.053855 0
M  V30 23 C -4.599540 -3.131412 -1.192977 0
M  V30 24 C -4.407828 -2.592554 -2.447869 0
M  V30 25 F -4.503399 -3.369727 -3.551949 0
M  V30 26 C -4.113763 -1.238870 -2.587821 0
M  V30 27 C 0.743823 1.762077 -1.314259 0
M  V30 28 N 2.580363 -1.060505 -2.266111 0
M  V30 29 C 2.180124 -2.341926 -2.254508 0
M  V30 30 N 1.839273 -2.923226 -1.102046 0
M  V30 31 C 1.881212 -2.261515 0.077640 0
M  V30 32 C 1.516325 -2.918538 1.217536 0
M  V30 33 C 0.214645 -3.901082 3.816249 0
M  V30 34 N 0.199092 -4.210567 5.143368 0
M  V30 35 H 0.431353 -3.685254 7.776448 0
M  V30 36 H 2.025708 -4.390927 7.339074 0
M  V30 37 H 1.878982 -2.598067 7.555900 0
M  V30 38 H 2.482221 -1.881381 5.104965 0
M  V30 39 H 1.987651 -0.418527 3.389024 0
M  V30 40 H 2.650315 0.755833 1.279741 0
M  V30 41 H 4.070403 1.322732 -1.070450 0
M  V30 42 H 3.497929 3.697614 -1.278309 0
M  V30 43 H 1.681869 5.397784 -1.472621 0
M  V30 44 H -0.629346 4.772179 -1.559193 0
M  V30 45 H -2.340686 3.170546 -1.554918 0
M  V30 46 H -4.320571 1.826062 -1.578516 0
M  V30 47 H -4.135278 -0.369344 0.709266 0
M  V30 48 H -4.646590 -2.730975 0.942693 0
M  V30 49 H -4.832143 -4.200092 -1.091324 0
M  V30 50 H -3.952769 -0.763807 -3.568564 0
M  V30 51 H 0.528128 0.723175 -1.266463 0
M  V30 52 H 2.127484 -2.920945 -3.171317 0
M  V30 53 H 1.192025 -3.938474 1.269828 0
M  V30 54 H -0.359228 -4.303417 3.000028 0
M  V30 END ATOM
M  V30 BEGIN BOND
M  V30 1 1 1 2
M  V30 2 1 2 3
M  V30 3 2 3 4
M  V30 4 1 4 5
M  V30 5 2 5 6
M  V30 6 1 6 7
M  V30 7 2 7 8
M  V30 8 1 8 9
M  V30 9 1 9 10
M  V30 10 1 10 11
M  V30 11 2 11 12
M  V30 12 1 12 13
M  V30 13 2 13 14
M  V30 14 1 14 15
M  V30 15 1 15 16
M  V30 16 1 16 17
M  V30 17 2 17 18
M  V30 18 1 17 19
M  V30 19 1 19 20
M  V30 20 2 20 21
M  V30 21 1 21 22
M  V30 22 2 22 23
M  V30 23 1 23 24
M  V30 24 1 24 25
M  V30 25 2 24 26
M  V30 26 2 15 27
M  V30 27 2 9 28
M  V30 28 1 28 29
M  V30 29 2 29 30
M  V30 30 1 30 31
M  V30 31 2 31 32
M  V30 32 1 4 33
M  V30 33 2 33 34
M  V30 34 1 34 2
M  V30 35 1 32 5
M  V30 36 1 31 8
M  V30 37 1 27 11
M  V30 38 1 26 20
M  V30 39 1 1 35
M  V30 40 1 1 36
M  V30 41 1 1 37
M  V30 42 1 3 38
M  V30 43 1 6 39
M  V30 44 1 7 40
M  V30 45 1 10 41
M  V30 46 1 12 42
M  V30 47 1 13 43
M  V30 48 1 14 44
M  V30 49 1 16 45
M  V30 50 1 19 46
M  V30 51 1 21 47
M  V30 52 1 22 48
M  V30 53 1 23 49
M  V30 54 1 26 50
M  V30 55 1 27 51
M  V30 56 1 29 52
M  V30 57 1 32 53
M  V30 58 1 33 54
M  V30 END BOND
M  V30 END CTAB
M  END
>  <Dataset>  (849) 
ChEMBL_Kinases

>  <Ligand_Instance>  (849) 
nan

>  <PDB_ID>  (849) 
nan

>  <Standardized_SMILES>  (849) 
Cn1cc(-c2ccc3c(Nc4cccc(NC(=O)Nc5cccc(F)c5)c4)ncnc3c2)cn1

>  <Name>  (849) 
nan

>  <Pocket>  (849) 
nan

>  <ATP_Site>  (849) 
nan

>  <Peripheral>  (849) 
nan

>  <Num_H_Atoms_ProtBoundConf>  (849) 
nan

>  <Num_Resolved_Atoms>  (849) 
nan

>  <Num_Not_Resolved_Atoms>  (849) 
nan

$$$$
CHEMBL4876307
     RDKit          3D

  0  0  0  0  0  0  0  0  0  0999 V3000
M  V30 BEGIN CTAB
M  V30 COUNTS 53 57 0 0 0
M  V30 BEGIN ATOM
M  V30 1 O -1.301048 -3.909119 -2.921363 0
M  V30 2 C -1.903022 -3.236814 -2.024816 0
M  V30 3 C -0.894749 -2.202158 -1.817367 0
M  V30 4 C -0.382014 -1.292899 -2.712002 0
M  V30 5 C 0.588683 -0.380682 -2.339786 0
M  V30 6 C 1.101687 -0.322004 -1.063991 0
M  V30 7 C 2.133566 0.604017 -0.617843 0
M  V30 8 C 2.741006 1.491608 -1.475966 0
M  V30 9 C 3.750164 2.300147 -1.009040 0
M  V30 10 C 4.086873 2.157059 0.318066 0
M  V30 11 N 5.088681 2.930722 0.834977 0
M  V30 12 C 5.457849 2.825680 2.119596 0
M  V30 13 N 4.863510 1.955937 2.965188 0
M  V30 14 C 3.862083 1.148409 2.544704 0
M  V30 15 N 3.160227 0.201231 3.299476 0
M  V30 16 C 2.078372 0.552464 4.145747 0
M  V30 17 C 1.865192 1.912516 4.213154 0
M  V30 18 C 0.818163 2.339659 5.031264 0
M  V30 19 C 0.039632 1.447059 5.734125 0
M  V30 20 F -0.992737 1.762610 6.552415 0
M  V30 21 C 0.271766 0.071433 5.652710 0
M  V30 22 C 1.322578 -0.371682 4.832716 0
M  V30 23 C 3.498328 1.273070 1.219374 0
M  V30 24 N 2.507884 0.520286 0.652746 0
M  V30 25 C 0.559539 -1.252105 -0.195664 0
M  V30 26 C -0.408499 -2.181756 -0.514197 0
M  V30 27 N -3.181063 -3.443363 -1.412889 0
M  V30 28 C -3.717928 -2.563032 -0.404435 0
M  V30 29 C -5.191894 -2.367069 -0.610623 0
M  V30 30 N -5.715911 -2.970172 -1.804470 0
M  V30 31 C -5.358214 -4.343961 -1.986598 0
M  V30 32 C -3.894342 -4.612612 -1.877075 0
M  V30 33 H -0.803833 -1.369354 -3.694939 0
M  V30 34 H 0.957822 0.312815 -3.080400 0
M  V30 35 H 2.443677 1.573332 -2.515070 0
M  V30 36 H 4.287798 3.023680 -1.592135 0
M  V30 37 H 6.236218 3.396858 2.616058 0
M  V30 38 H 3.471382 -0.794362 3.211022 0
M  V30 39 H 2.407526 2.688446 3.713837 0
M  V30 40 H 0.580710 3.386778 5.143451 0
M  V30 41 H -0.281880 -0.697574 6.162281 0
M  V30 42 H 1.560063 -1.423461 4.722880 0
M  V30 43 H 0.932364 -1.247701 0.827841 0
M  V30 44 H -0.745057 -2.857782 0.273344 0
M  V30 45 H -3.142026 -1.626445 -0.311893 0
M  V30 46 H -3.602928 -3.125612 0.572471 0
M  V30 47 H -5.328114 -1.255626 -0.756837 0
M  V30 48 H -5.798688 -2.707421 0.251832 0
M  V30 49 H -5.578277 -2.377319 -2.654259 0
M  V30 50 H -5.646461 -4.599421 -3.049287 0
M  V30 51 H -5.984860 -4.941461 -1.265206 0
M  V30 52 H -3.460108 -5.052168 -2.794823 0
M  V30 53 H -3.773624 -5.364662 -1.040698 0
M  V30 END ATOM
M  V30 BEGIN BOND
M  V30 1 2 1 2
M  V30 2 1 2 3
M  V30 3 2 3 4
M  V30 4 1 4 5
M  V30 5 2 5 6
M  V30 6 1 6 7
M  V30 7 2 7 8
M  V30 8 1 8 9
M  V30 9 2 9 10
M  V30 10 1 10 11
M  V30 11 2 11 12
M  V30 12 1 12 13
M  V30 13 2 13 14
M  V30 14 1 14 15
M  V30 15 1 15 16
M  V30 16 2 16 17
M  V30 17 1 17 18
M  V30 18 2 18 19
M  V30 19 1 19 20
M  V30 20 1 19 21
M  V30 21 2 21 22
M  V30 22 1 14 23
M  V30 23 2 23 24
M  V30 24 1 6 25
M  V30 25 2 25 26
M  V30 26 1 2 27
M  V30 27 1 27 28
M  V30 28 1 28 29
M  V30 29 1 29 30
M  V30 30 1 30 31
M  V30 31 1 31 32
M  V30 32 1 26 3
M  V30 33 1 32 27
M  V30 34 1 24 7
M  V30 35 1 23 10
M  V30 36 1 22 16
M  V30 37 1 4 33
M  V30 38 1 5 34
M  V30 39 1 8 35
M  V30 40 1 9 36
M  V30 41 1 12 37
M  V30 42 1 15 38
M  V30 43 1 17 39
M  V30 44 1 18 40
M  V30 45 1 21 41
M  V30 46 1 22 42
M  V30 47 1 25 43
M  V30 48 1 26 44
M  V30 49 1 28 45
M  V30 50 1 28 46
M  V30 51 1 29 47
M  V30 52 1 29 48
M  V30 53 1 30 49
M  V30 54 1 31 50
M  V30 55 1 31 51
M  V30 56 1 32 52
M  V30 57 1 32 53
M  V30 END BOND
M  V30 END CTAB
M  END
>  <Dataset>  (850) 
ChEMBL_Kinases

>  <Ligand_Instance>  (850) 
nan

>  <PDB_ID>  (850) 
nan

>  <Standardized_SMILES>  (850) 
O=C(c1ccc(-c2ccc3ncnc(Nc4ccc(F)cc4)c3n2)cc1)N1CCNCC1

>  <Name>  (850) 
nan

>  <Pocket>  (850) 
nan

>  <ATP_Site>  (850) 
nan

>  <Peripheral>  (850) 
nan

>  <Num_H_Atoms_ProtBoundConf>  (850) 
nan

>  <Num_Resolved_Atoms>  (850) 
nan

>  <Num_Not_Resolved_Atoms>  (850) 
nan

$$$$
CHEMBL4799926
     RDKit          3D

  0  0  0  0  0  0  0  0  0  0999 V3000
M  V30 BEGIN CTAB
M  V30 COUNTS 51 54 0 0 0
M  V30 BEGIN ATOM
M  V30 1 H 5.860117 0.182331 3.923266 0 MASS=2
M  V30 2 C 6.391885 -0.530262 3.241005 0
M  V30 3 H 7.471762 -0.267441 3.260520 0 MASS=2
M  V30 4 H 6.214824 -1.568905 3.601884 0 MASS=2
M  V30 5 N 5.886931 -0.289245 1.911473 0
M  V30 6 C 6.726466 -0.783850 0.858734 0
M  V30 7 C 6.318229 0.024104 -0.341125 0
M  V30 8 C 5.754911 1.320677 0.183618 0 CFG=1
M  V30 9 N 4.334141 1.326571 -0.156468 0
M  V30 10 C 3.763232 2.384594 -0.909244 0
M  V30 11 O 4.386500 3.385570 -1.345785 0
M  V30 12 C 2.322577 2.329611 -1.218493 0
M  V30 13 C 1.421985 1.385156 -0.880595 0
M  V30 14 C 0.117900 1.544597 -1.282589 0
M  V30 15 N -0.948645 0.627894 -1.000186 0
M  V30 16 C -1.704060 0.702113 0.111660 0
M  V30 17 C -2.633619 -0.314504 0.083451 0
M  V30 18 N -3.630729 -0.611203 1.053614 0
M  V30 19 C -4.572241 -1.645255 1.019541 0
M  V30 20 O -4.559024 -2.411353 0.036227 0
M  V30 21 N -5.529224 -1.850998 2.050227 0
M  V30 22 C -6.418793 -2.967643 1.842062 0
M  V30 23 C -7.621142 -2.818761 1.176216 0
M  V30 24 C -8.419087 -3.942576 1.017833 0
M  V30 25 C -8.064550 -5.199653 1.495491 0
M  V30 26 C -6.862187 -5.337874 2.158873 0
M  V30 27 C -6.060823 -4.202713 2.316420 0
M  V30 28 Cl -4.552476 -4.462564 3.168675 0
M  V30 29 C -2.392359 -0.990820 -1.094140 0
M  V30 30 N -1.359669 -0.404617 -1.747417 0
M  V30 31 C -0.191734 2.682335 -2.019998 0
M  V30 32 S 1.491850 3.539790 -2.121630 0
M  V30 33 C 5.927383 1.150797 1.692300 0
M  V30 34 H 7.812255 -0.667909 1.094733 0
M  V30 35 H 6.557903 -1.873843 0.686961 0
M  V30 36 H 5.610638 -0.525771 -1.008168 0
M  V30 37 H 7.232368 0.209927 -0.958526 0
M  V30 38 H 6.293546 2.188859 -0.195405 0
M  V30 39 H 3.781060 0.511982 0.187914 0
M  V30 40 H 1.739835 0.527286 -0.304585 0
M  V30 41 H -1.624736 1.423857 0.914365 0
M  V30 42 H -3.679782 0.016234 1.910509 0
M  V30 43 H -5.526245 -1.192609 2.875964 0
M  V30 44 H -7.923954 -1.852182 0.793081 0
M  V30 45 H -9.383293 -3.868631 0.494400 0
M  V30 46 H -8.745723 -6.045433 1.333951 0
M  V30 47 H -6.610977 -6.315112 2.517389 0
M  V30 48 H -2.898536 -1.854350 -1.500108 0
M  V30 49 H -1.105972 3.013926 -2.430122 0
M  V30 50 H 6.843468 1.626287 2.074955 0
M  V30 51 H 5.005518 1.564874 2.151934 0
M  V30 END ATOM
M  V30 BEGIN BOND
M  V30 1 1 1 2
M  V30 2 1 2 3
M  V30 3 1 2 4
M  V30 4 1 2 5
M  V30 5 1 5 6
M  V30 6 1 6 7
M  V30 7 1 7 8
M  V30 8 1 8 9
M  V30 9 1 9 10
M  V30 10 2 10 11
M  V30 11 1 10 12
M  V30 12 2 12 13
M  V30 13 1 13 14
M  V30 14 1 14 15
M  V30 15 1 15 16
M  V30 16 2 16 17
M  V30 17 1 17 18
M  V30 18 1 18 19
M  V30 19 2 19 20
M  V30 20 1 19 21
M  V30 21 1 21 22
M  V30 22 2 22 23
M  V30 23 1 23 24
M  V30 24 2 24 25
M  V30 25 1 25 26
M  V30 26 2 26 27
M  V30 27 1 27 28
M  V30 28 1 17 29
M  V30 29 2 29 30
M  V30 30 2 14 31
M  V30 31 1 31 32
M  V30 32 1 8 33
M  V30 33 1 33 5
M  V30 34 1 32 12
M  V30 35 1 30 15
M  V30 36 1 27 22
M  V30 37 1 6 34
M  V30 38 1 6 35
M  V30 39 1 7 36
M  V30 40 1 7 37
M  V30 41 1 8 38 CFG=3
M  V30 42 1 9 39
M  V30 43 1 13 40
M  V30 44 1 16 41
M  V30 45 1 18 42
M  V30 46 1 21 43
M  V30 47 1 23 44
M  V30 48 1 24 45
M  V30 49 1 25 46
M  V30 50 1 26 47
M  V30 51 1 29 48
M  V30 52 1 31 49
M  V30 53 1 33 50
M  V30 54 1 33 51
M  V30 END BOND
M  V30 END CTAB
M  END
>  <Dataset>  (851) 
ChEMBL_Kinases

>  <Ligand_Instance>  (851) 
nan

>  <PDB_ID>  (851) 
nan

>  <Standardized_SMILES>  (851) 
[2H]C([2H])([2H])N1CC[C@@H](NC(=O)c2cc(-n3cc(NC(=O)Nc4ccccc4Cl)cn3)cs2)C1

>  <Name>  (851) 
nan

>  <Pocket>  (851) 
nan

>  <ATP_Site>  (851) 
nan

>  <Peripheral>  (851) 
nan

>  <Num_H_Atoms_ProtBoundConf>  (851) 
nan

>  <Num_Resolved_Atoms>  (851) 
nan

>  <Num_Not_Resolved_Atoms>  (851) 
nan

$$$$
CHEMBL4800057
     RDKit          3D

  0  0  0  0  0  0  0  0  0  0999 V3000
M  V30 BEGIN CTAB
M  V30 COUNTS 36 39 0 0 0
M  V30 BEGIN ATOM
M  V30 1 F -1.233850 -4.049480 3.607078 0
M  V30 2 C -1.113673 -4.512956 2.323027 0
M  V30 3 F -2.378269 -4.929188 1.891899 0
M  V30 4 F -0.343135 -5.652771 2.381835 0
M  V30 5 C -0.529496 -3.536933 1.376440 0
M  V30 6 C 0.621953 -3.750532 0.686303 0
M  V30 7 N 1.139320 -2.838010 -0.175147 0
M  V30 8 C 0.501241 -1.665169 -0.369202 0
M  V30 9 N 1.001577 -0.676077 -1.260570 0
M  V30 10 C 1.898293 0.374028 -0.921012 0
M  V30 11 C 2.325436 0.448187 0.382824 0
M  V30 12 C 3.197001 1.492476 0.649430 0
M  V30 13 C 3.609490 2.395368 -0.319876 0
M  V30 14 N 4.408760 3.467947 -0.383436 0
M  V30 15 C 4.423241 3.960425 -1.652686 0
M  V30 16 O 3.635150 3.196856 -2.378169 0
M  V30 17 C 3.129506 2.247107 -1.610949 0
M  V30 18 C 2.247097 1.216495 -1.952371 0
M  V30 19 N -0.628689 -1.490915 0.327294 0
M  V30 20 C -1.192770 -2.327561 1.179933 0
M  V30 21 N -2.415700 -1.959998 1.832491 0
M  V30 22 C -3.327772 -0.861531 1.871831 0
M  V30 23 C -2.950792 0.490120 2.326596 0
M  V30 24 C -3.042591 0.232556 0.834440 0
M  V30 25 H 1.077285 -4.712177 0.892954 0
M  V30 26 H 0.603483 -0.845796 -2.206124 0
M  V30 27 H 2.017661 -0.238167 1.140035 0
M  V30 28 H 3.581887 1.620599 1.659935 0
M  V30 29 H 4.991935 4.820239 -1.957018 0
M  V30 30 H 1.867761 1.090028 -2.947784 0
M  V30 31 H -2.725440 -2.738079 2.478140 0
M  V30 32 H -4.402391 -1.154269 1.963640 0
M  V30 33 H -1.983333 0.717030 2.782608 0
M  V30 34 H -3.775563 1.119921 2.716857 0
M  V30 35 H -3.934012 0.611578 0.288520 0
M  V30 36 H -2.086934 0.311777 0.335216 0
M  V30 END ATOM
M  V30 BEGIN BOND
M  V30 1 1 1 2
M  V30 2 1 2 3
M  V30 3 1 2 4
M  V30 4 1 2 5
M  V30 5 2 5 6
M  V30 6 1 6 7
M  V30 7 2 7 8
M  V30 8 1 8 9
M  V30 9 1 9 10
M  V30 10 2 10 11
M  V30 11 1 11 12
M  V30 12 2 12 13
M  V30 13 1 13 14
M  V30 14 2 14 15
M  V30 15 1 15 16
M  V30 16 1 16 17
M  V30 17 2 17 18
M  V30 18 1 8 19
M  V30 19 2 19 20
M  V30 20 1 20 21
M  V30 21 1 21 22
M  V30 22 1 22 23
M  V30 23 1 23 24
M  V30 24 1 20 5
M  V30 25 1 24 22
M  V30 26 1 18 10
M  V30 27 1 17 13
M  V30 28 1 6 25
M  V30 29 1 9 26
M  V30 30 1 11 27
M  V30 31 1 12 28
M  V30 32 1 15 29
M  V30 33 1 18 30
M  V30 34 1 21 31
M  V30 35 1 22 32
M  V30 36 1 23 33
M  V30 37 1 23 34
M  V30 38 1 24 35
M  V30 39 1 24 36
M  V30 END BOND
M  V30 END CTAB
M  END
>  <Dataset>  (852) 
ChEMBL_Kinases

>  <Ligand_Instance>  (852) 
nan

>  <PDB_ID>  (852) 
nan

>  <Standardized_SMILES>  (852) 
FC(F)(F)c1cnc(Nc2ccc3ncoc3c2)nc1NC1CC1

>  <Name>  (852) 
nan

>  <Pocket>  (852) 
nan

>  <ATP_Site>  (852) 
nan

>  <Peripheral>  (852) 
nan

>  <Num_H_Atoms_ProtBoundConf>  (852) 
nan

>  <Num_Resolved_Atoms>  (852) 
nan

>  <Num_Not_Resolved_Atoms>  (852) 
nan

$$$$
CHEMBL4800122
     RDKit          3D

  0  0  0  0  0  0  0  0  0  0999 V3000
M  V30 BEGIN CTAB
M  V30 COUNTS 57 60 0 0 0
M  V30 BEGIN ATOM
M  V30 1 C -4.260016 -2.836816 -4.930645 0
M  V30 2 C -4.166931 -3.574433 -3.834593 0
M  V30 3 C -3.991774 -2.726326 -2.683774 0
M  V30 4 O -3.952418 -1.463400 -2.862458 0
M  V30 5 N -3.838277 -2.906571 -1.299524 0
M  V30 6 C -3.704524 -1.598787 -0.690991 0
M  V30 7 C -3.472396 -1.732589 0.774516 0
M  V30 8 C -2.368324 -2.691706 1.158409 0
M  V30 9 C -1.011076 -2.171402 0.800940 0
M  V30 10 C -0.482470 -2.112750 -0.470195 0
M  V30 11 C 0.776989 -1.615792 -0.730137 0
M  V30 12 C 1.574414 -1.147836 0.294856 0
M  V30 13 C 2.908987 -0.648715 -0.113945 0 CFG=2
M  V30 14 C 4.034454 -1.214725 0.717678 0
M  V30 15 C 2.960461 0.857854 -0.179230 0
M  V30 16 O 3.216699 1.517315 -1.235548 0
M  V30 17 N 2.737178 1.751244 0.899206 0
M  V30 18 C 2.881417 3.074646 0.404032 0
M  V30 19 C 1.810496 3.769226 -0.108650 0
M  V30 20 C 2.263664 5.027076 -0.509843 0
M  V30 21 C 1.396643 6.064866 -1.115074 0
M  V30 22 C 0.012447 6.152161 -0.473415 0
M  V30 23 C 0.224175 5.699383 -1.928163 0
M  V30 24 N 3.580045 5.049382 -0.228588 0
M  V30 25 N 3.944904 3.905741 0.307405 0
M  V30 26 C 1.098150 -1.182571 1.584400 0
M  V30 27 C -0.168142 -1.686854 1.808263 0
M  V30 28 C -2.625549 -4.010745 0.527564 0
M  V30 29 C -3.790687 -4.056018 -0.418441 0
M  V30 30 H -4.187758 -1.773832 -4.747083 0
M  V30 31 H -4.393368 -3.456308 -5.814791 0
M  V30 32 H -4.206605 -4.650527 -3.735797 0
M  V30 33 H -4.708142 -1.106163 -0.847770 0
M  V30 34 H -2.935291 -0.976817 -1.198519 0
M  V30 35 H -3.176207 -0.704482 1.136954 0
M  V30 36 H -4.391055 -2.071457 1.280776 0
M  V30 37 H -2.426155 -2.748752 2.284559 0
M  V30 38 H -1.079670 -2.470888 -1.271659 0
M  V30 39 H 1.105889 -1.610542 -1.762228 0
M  V30 40 H 3.123576 -0.946060 -1.187143 0
M  V30 41 H 4.889399 -0.489158 0.788066 0
M  V30 42 H 4.482411 -2.127891 0.245778 0
M  V30 43 H 3.693330 -1.553548 1.720053 0
M  V30 44 H 2.515569 1.340820 1.838032 0
M  V30 45 H 0.788993 3.438722 -0.202325 0
M  V30 46 H 1.919797 7.001126 -1.364471 0
M  V30 47 H -0.296959 5.374552 0.227891 0
M  V30 48 H -0.332075 7.206113 -0.308870 0
M  V30 49 H -0.165787 6.415611 -2.663969 0
M  V30 50 H -0.035645 4.646328 -2.163092 0
M  V30 51 H 4.162968 5.891082 -0.435500 0
M  V30 52 H 1.721616 -0.822468 2.382555 0
M  V30 53 H -0.521722 -1.703736 2.833432 0
M  V30 54 H -2.890122 -4.734959 1.347217 0
M  V30 55 H -1.702890 -4.471545 0.079424 0
M  V30 56 H -4.755511 -4.075290 0.136809 0
M  V30 57 H -3.747407 -4.979825 -1.028822 0
M  V30 END ATOM
M  V30 BEGIN BOND
M  V30 1 2 1 2
M  V30 2 1 2 3
M  V30 3 2 3 4
M  V30 4 1 3 5
M  V30 5 1 5 6
M  V30 6 1 6 7
M  V30 7 1 7 8
M  V30 8 1 8 9
M  V30 9 2 9 10
M  V30 10 1 10 11
M  V30 11 2 11 12
M  V30 12 1 12 13
M  V30 13 1 13 14
M  V30 14 1 13 15
M  V30 15 2 15 16
M  V30 16 1 15 17
M  V30 17 1 17 18
M  V30 18 1 18 19
M  V30 19 2 19 20
M  V30 20 1 20 21
M  V30 21 1 21 22
M  V30 22 1 22 23
M  V30 23 1 20 24
M  V30 24 1 24 25
M  V30 25 1 12 26
M  V30 26 2 26 27
M  V30 27 1 8 28
M  V30 28 1 28 29
M  V30 29 1 29 5
M  V30 30 1 27 9
M  V30 31 2 25 18
M  V30 32 1 23 21
M  V30 33 1 1 30
M  V30 34 1 1 31
M  V30 35 1 2 32
M  V30 36 1 6 33
M  V30 37 1 6 34
M  V30 38 1 7 35
M  V30 39 1 7 36
M  V30 40 1 8 37
M  V30 41 1 10 38
M  V30 42 1 11 39
M  V30 43 1 13 40 CFG=3
M  V30 44 1 14 41
M  V30 45 1 14 42
M  V30 46 1 14 43
M  V30 47 1 17 44
M  V30 48 1 19 45
M  V30 49 1 21 46
M  V30 50 1 22 47
M  V30 51 1 22 48
M  V30 52 1 23 49
M  V30 53 1 23 50
M  V30 54 1 24 51
M  V30 55 1 26 52
M  V30 56 1 27 53
M  V30 57 1 28 54
M  V30 58 1 28 55
M  V30 59 1 29 56
M  V30 60 1 29 57
M  V30 END BOND
M  V30 END CTAB
M  END
>  <Dataset>  (853) 
ChEMBL_Kinases

>  <Ligand_Instance>  (853) 
nan

>  <PDB_ID>  (853) 
nan

>  <Standardized_SMILES>  (853) 
C=CC(=O)N1CCC(c2ccc([C@H](C)C(=O)Nc3cc(C4CC4)[nH]n3)cc2)CC1

>  <Name>  (853) 
nan

>  <Pocket>  (853) 
nan

>  <ATP_Site>  (853) 
nan

>  <Peripheral>  (853) 
nan

>  <Num_H_Atoms_ProtBoundConf>  (853) 
nan

>  <Num_Resolved_Atoms>  (853) 
nan

>  <Num_Not_Resolved_Atoms>  (853) 
nan

$$$$
CHEMBL4800500
     RDKit          3D

  0  0  0  0  0  0  0  0  0  0999 V3000
M  V30 BEGIN CTAB
M  V30 COUNTS 63 65 0 0 0
M  V30 BEGIN ATOM
M  V30 1 C 4.240110 1.820236 3.016170 0
M  V30 2 C 5.320704 1.718517 1.963953 0
M  V30 3 N 5.027946 0.681581 1.065825 0
M  V30 4 C 5.072339 -0.658490 1.452839 0
M  V30 5 C 4.032599 -1.161567 2.399272 0
M  V30 6 C 5.133758 0.922164 -0.323236 0
M  V30 7 C 4.088854 1.885923 -0.849902 0
M  V30 8 N 2.754917 1.407087 -0.649453 0
M  V30 9 C 1.560376 2.079036 -1.010894 0
M  V30 10 O 1.798493 3.194914 -1.540744 0
M  V30 11 C 0.197911 1.624894 -0.834098 0
M  V30 12 C -0.859172 2.470654 -1.081822 0
M  V30 13 C -0.828950 3.909751 -1.526693 0
M  V30 14 N -1.993297 1.787952 -0.850063 0
M  V30 15 C -1.796656 0.541713 -0.464521 0
M  V30 16 C -2.611984 -0.604001 -0.109014 0
M  V30 17 C -3.653729 -1.154573 -0.661830 0
M  V30 18 C -4.235075 -0.633147 -1.891143 0
M  V30 19 O -3.840481 0.344940 -2.567538 0
M  V30 20 N -5.349801 -1.463405 -2.174559 0
M  V30 21 C -5.433442 -2.448387 -1.152511 0
M  V30 22 C -6.291069 -3.509480 -0.899012 0
M  V30 23 C -6.167464 -4.359766 0.192434 0
M  V30 24 C -5.142288 -4.160398 1.090608 0
M  V30 25 C -4.857218 -4.972232 2.309228 0
M  V30 26 C -3.900883 -6.113773 1.995178 0
M  V30 27 O -3.624202 -6.886731 3.116196 0
M  V30 28 C -4.242931 -3.108154 0.892835 0
M  V30 29 C -4.433900 -2.309344 -0.213022 0
M  V30 30 C -0.393156 0.444024 -0.456459 0
M  V30 31 C 0.412333 -0.763027 -0.103226 0
M  V30 32 H 3.970151 2.907674 3.201003 0
M  V30 33 H 3.283006 1.370604 2.689329 0
M  V30 34 H 4.535173 1.343069 3.980887 0
M  V30 35 H 6.335462 1.655660 2.431595 0
M  V30 36 H 5.352066 2.730892 1.453404 0
M  V30 37 H 6.109844 -0.959143 1.804238 0
M  V30 38 H 4.957058 -1.287039 0.518444 0
M  V30 39 H 3.002939 -0.912199 2.094269 0
M  V30 40 H 4.168832 -0.927031 3.452006 0
M  V30 41 H 4.062055 -2.296425 2.354031 0
M  V30 42 H 6.108976 1.250950 -0.691868 0
M  V30 43 H 4.924816 -0.056508 -0.838914 0
M  V30 44 H 4.278801 1.915014 -1.965050 0
M  V30 45 H 4.235671 2.921255 -0.521454 0
M  V30 46 H 2.670575 0.477936 -0.186073 0
M  V30 47 H -0.218826 4.014617 -2.438297 0
M  V30 48 H -0.457838 4.564699 -0.709115 0
M  V30 49 H -1.851181 4.269862 -1.747460 0
M  V30 50 H -2.937575 2.208435 -0.948840 0
M  V30 51 H -2.281957 -1.108778 0.819988 0
M  V30 52 H -5.976086 -1.345043 -2.992047 0
M  V30 53 H -7.111529 -3.693193 -1.589141 0
M  V30 54 H -6.823422 -5.184503 0.400871 0
M  V30 55 H -5.816176 -5.459687 2.599149 0
M  V30 56 H -4.408185 -4.373269 3.108626 0
M  V30 57 H -2.957469 -5.700166 1.546338 0
M  V30 58 H -4.377609 -6.750381 1.225069 0
M  V30 59 H -2.677901 -6.739906 3.381966 0
M  V30 60 H -3.419267 -2.898942 1.561520 0
M  V30 61 H 0.891711 -0.705018 0.871115 0
M  V30 62 H -0.297954 -1.642522 -0.028184 0
M  V30 63 H 1.085732 -1.050392 -0.951910 0
M  V30 END ATOM
M  V30 BEGIN BOND
M  V30 1 1 1 2
M  V30 2 1 2 3
M  V30 3 1 3 4
M  V30 4 1 4 5
M  V30 5 1 3 6
M  V30 6 1 6 7
M  V30 7 1 7 8
M  V30 8 1 8 9
M  V30 9 2 9 10
M  V30 10 1 9 11
M  V30 11 2 11 12
M  V30 12 1 12 13
M  V30 13 1 12 14
M  V30 14 1 14 15
M  V30 15 1 15 16
M  V30 16 2 16 17
M  V30 17 1 17 18
M  V30 18 2 18 19
M  V30 19 1 18 20
M  V30 20 1 20 21
M  V30 21 2 21 22
M  V30 22 1 22 23
M  V30 23 2 23 24
M  V30 24 1 24 25
M  V30 25 1 25 26
M  V30 26 1 26 27
M  V30 27 1 24 28
M  V30 28 2 28 29
M  V30 29 2 15 30
M  V30 30 1 30 31
M  V30 31 1 30 11
M  V30 32 1 29 17
M  V30 33 1 29 21
M  V30 34 1 1 32
M  V30 35 1 1 33
M  V30 36 1 1 34
M  V30 37 1 2 35
M  V30 38 1 2 36
M  V30 39 1 4 37
M  V30 40 1 4 38
M  V30 41 1 5 39
M  V30 42 1 5 40
M  V30 43 1 5 41
M  V30 44 1 6 42
M  V30 45 1 6 43
M  V30 46 1 7 44
M  V30 47 1 7 45
M  V30 48 1 8 46
M  V30 49 1 13 47
M  V30 50 1 13 48
M  V30 51 1 13 49
M  V30 52 1 14 50
M  V30 53 1 16 51
M  V30 54 1 20 52
M  V30 55 1 22 53
M  V30 56 1 23 54
M  V30 57 1 25 55
M  V30 58 1 25 56
M  V30 59 1 26 57
M  V30 60 1 26 58
M  V30 61 1 27 59
M  V30 62 1 28 60
M  V30 63 1 31 61
M  V30 64 1 31 62
M  V30 65 1 31 63
M  V30 END BOND
M  V30 END CTAB
M  END
>  <Dataset>  (854) 
ChEMBL_Kinases

>  <Ligand_Instance>  (854) 
nan

>  <PDB_ID>  (854) 
nan

>  <Standardized_SMILES>  (854) 
CCN(CC)CCNC(=O)c1c(C)[nH]c(/C=C2\C(=O)Nc3ccc(CCO)cc32)c1C

>  <Name>  (854) 
nan

>  <Pocket>  (854) 
nan

>  <ATP_Site>  (854) 
nan

>  <Peripheral>  (854) 
nan

>  <Num_H_Atoms_ProtBoundConf>  (854) 
nan

>  <Num_Resolved_Atoms>  (854) 
nan

>  <Num_Not_Resolved_Atoms>  (854) 
nan

$$$$
CHEMBL4876254
     RDKit          3D

  0  0  0  0  0  0  0  0  0  0999 V3000
M  V30 BEGIN CTAB
M  V30 COUNTS 48 51 0 0 0
M  V30 BEGIN ATOM
M  V30 1 C 0.078695 -3.872432 1.808799 0
M  V30 2 O 0.851839 -3.084421 0.925434 0
M  V30 3 C 2.112730 -2.589839 1.230365 0
M  V30 4 C 2.800453 -2.790390 2.411942 0
M  V30 5 C 4.067870 -2.261661 2.657021 0
M  V30 6 C 4.651854 -1.498399 1.654259 0
M  V30 7 C 3.946567 -1.313900 0.487583 0
M  V30 8 C 2.679505 -1.837818 0.230213 0
M  V30 9 C 2.161101 -1.530259 -1.112324 0
M  V30 10 C 2.082418 -0.273751 -1.518985 0
M  V30 11 N 2.330552 1.092419 -1.122802 0
M  V30 12 C 1.276982 1.233674 -0.142489 0
M  V30 13 C 1.488354 1.173896 1.222602 0
M  V30 14 C 0.425800 1.277102 2.093603 0
M  V30 15 C -0.866214 1.441530 1.650761 0
M  V30 16 C -2.030840 1.565719 2.549121 0
M  V30 17 O -1.855653 2.103151 3.697831 0
M  V30 18 C -3.351240 1.084551 2.135395 0
M  V30 19 C -3.420648 0.074075 1.172329 0
M  V30 20 C -4.637183 -0.417068 0.717491 0
M  V30 21 C -5.825761 0.080646 1.208406 0
M  V30 22 C -5.756991 1.091056 2.173983 0
M  V30 23 C -4.535871 1.583570 2.628368 0
M  V30 24 C -1.135833 1.509128 0.285424 0
M  V30 25 C -0.025042 1.399294 -0.561963 0
M  V30 26 C 1.543709 -0.278283 -2.900741 0
M  V30 27 O 1.247586 0.570523 -3.794911 0
M  V30 28 N 1.299112 -1.639875 -3.309393 0
M  V30 29 C 1.691174 -2.412803 -2.174298 0
M  V30 30 O 1.651353 -3.676655 -2.070074 0
M  V30 31 H -0.990258 -3.844711 1.449775 0
M  V30 32 H 0.449996 -4.902641 1.947368 0
M  V30 33 H 0.090857 -3.393298 2.832519 0
M  V30 34 H 2.210481 -3.401578 3.089605 0
M  V30 35 H 4.479192 -2.510860 3.638208 0
M  V30 36 H 5.627220 -1.108124 1.872621 0
M  V30 37 H 4.500407 -0.700656 -0.223735 0
M  V30 38 H 3.058586 1.728481 -1.480302 0
M  V30 39 H 2.493725 1.049021 1.590719 0
M  V30 40 H 0.530449 1.235515 3.162172 0
M  V30 41 H -2.584771 -0.422028 0.711858 0
M  V30 42 H -4.727352 -1.196238 -0.027801 0
M  V30 43 H -6.771939 -0.304633 0.849250 0
M  V30 44 H -6.715104 1.446020 2.526358 0
M  V30 45 H -4.517781 2.352457 3.363770 0
M  V30 46 H -2.081725 1.640816 -0.216873 0
M  V30 47 H -0.185993 1.447897 -1.653363 0
M  V30 48 H 0.931658 -2.085431 -4.170372 0
M  V30 END ATOM
M  V30 BEGIN BOND
M  V30 1 1 1 2
M  V30 2 1 2 3
M  V30 3 2 3 4
M  V30 4 1 4 5
M  V30 5 2 5 6
M  V30 6 1 6 7
M  V30 7 2 7 8
M  V30 8 1 8 9
M  V30 9 2 9 10
M  V30 10 1 10 11
M  V30 11 1 11 12
M  V30 12 2 12 13
M  V30 13 1 13 14
M  V30 14 2 14 15
M  V30 15 1 15 16
M  V30 16 2 16 17
M  V30 17 1 16 18
M  V30 18 2 18 19
M  V30 19 1 19 20
M  V30 20 2 20 21
M  V30 21 1 21 22
M  V30 22 2 22 23
M  V30 23 1 15 24
M  V30 24 2 24 25
M  V30 25 1 10 26
M  V30 26 2 26 27
M  V30 27 1 26 28
M  V30 28 1 28 29
M  V30 29 2 29 30
M  V30 30 1 8 3
M  V30 31 1 29 9
M  V30 32 1 25 12
M  V30 33 1 23 18
M  V30 34 1 1 31
M  V30 35 1 1 32
M  V30 36 1 1 33
M  V30 37 1 4 34
M  V30 38 1 5 35
M  V30 39 1 6 36
M  V30 40 1 7 37
M  V30 41 1 11 38
M  V30 42 1 13 39
M  V30 43 1 14 40
M  V30 44 1 19 41
M  V30 45 1 20 42
M  V30 46 1 21 43
M  V30 47 1 22 44
M  V30 48 1 23 45
M  V30 49 1 24 46
M  V30 50 1 25 47
M  V30 51 1 28 48
M  V30 END BOND
M  V30 END CTAB
M  END
>  <Dataset>  (855) 
ChEMBL_Kinases

>  <Ligand_Instance>  (855) 
nan

>  <PDB_ID>  (855) 
nan

>  <Standardized_SMILES>  (855) 
COc1ccccc1C1=C(Nc2ccc(C(=O)c3ccccc3)cc2)C(=O)NC1=O

>  <Name>  (855) 
nan

>  <Pocket>  (855) 
nan

>  <ATP_Site>  (855) 
nan

>  <Peripheral>  (855) 
nan

>  <Num_H_Atoms_ProtBoundConf>  (855) 
nan

>  <Num_Resolved_Atoms>  (855) 
nan

>  <Num_Not_Resolved_Atoms>  (855) 
nan

$$$$
CHEMBL4876241
     RDKit          3D

  0  0  0  0  0  0  0  0  0  0999 V3000
M  V30 BEGIN CTAB
M  V30 COUNTS 36 38 0 0 0
M  V30 BEGIN ATOM
M  V30 1 O -2.527541 -2.439429 2.717257 0
M  V30 2 C -1.389679 -1.915101 2.788406 0
M  V30 3 N -0.885318 -1.369390 4.009714 0
M  V30 4 C 0.392859 -0.885871 3.693385 0
M  V30 5 O 1.134637 -0.340202 4.531636 0
M  V30 6 C 0.769089 -1.079042 2.322420 0
M  V30 7 C 1.840494 -0.891107 1.376982 0
M  V30 8 C 2.314535 -2.041041 0.723179 0
M  V30 9 C 3.296356 -2.093179 -0.249539 0
M  V30 10 C 3.842360 -0.876429 -0.588303 0
M  V30 11 C 3.414396 0.280298 0.020764 0
M  V30 12 C 2.418595 0.290582 1.001536 0
M  V30 13 C 2.054980 1.603983 1.561042 0
M  V30 14 F 2.328657 1.703216 2.897932 0
M  V30 15 F 0.697237 1.867881 1.395825 0
M  V30 16 F 2.715416 2.629565 0.935889 0
M  V30 17 C -0.316250 -1.697451 1.805688 0
M  V30 18 N -0.615530 -2.178220 0.472009 0
M  V30 19 C -1.256373 -1.207879 -0.376097 0
M  V30 20 C -2.633115 -1.129633 -0.404831 0
M  V30 21 C -3.265014 -0.194296 -1.220012 0
M  V30 22 C -2.539825 0.677558 -2.019059 0
M  V30 23 O -3.158285 1.614774 -2.836365 0
M  V30 24 C -1.168892 0.542386 -1.939183 0
M  V30 25 C -0.487281 -0.364358 -1.150859 0
M  V30 26 H -1.359328 -1.339168 4.922911 0
M  V30 27 H 1.876932 -3.012790 0.993849 0
M  V30 28 H 3.580445 -3.040153 -0.683407 0
M  V30 29 H 4.610181 -0.891708 -1.346521 0
M  V30 30 H 3.892257 1.204638 -0.298850 0
M  V30 31 H -0.420758 -3.130692 0.066346 0
M  V30 32 H -3.278464 -1.753289 0.170263 0
M  V30 33 H -4.360661 -0.111056 -1.260877 0
M  V30 34 H -3.274801 2.574421 -2.485580 0
M  V30 35 H -0.614474 1.241790 -2.578945 0
M  V30 36 H 0.585829 -0.376480 -1.173620 0
M  V30 END ATOM
M  V30 BEGIN BOND
M  V30 1 2 1 2
M  V30 2 1 2 3
M  V30 3 1 3 4
M  V30 4 2 4 5
M  V30 5 1 4 6
M  V30 6 1 6 7
M  V30 7 2 7 8
M  V30 8 1 8 9
M  V30 9 2 9 10
M  V30 10 1 10 11
M  V30 11 2 11 12
M  V30 12 1 12 13
M  V30 13 1 13 14
M  V30 14 1 13 15
M  V30 15 1 13 16
M  V30 16 2 6 17
M  V30 17 1 17 18
M  V30 18 1 18 19
M  V30 19 2 19 20
M  V30 20 1 20 21
M  V30 21 2 21 22
M  V30 22 1 22 23
M  V30 23 1 22 24
M  V30 24 2 24 25
M  V30 25 1 17 2
M  V30 26 1 25 19
M  V30 27 1 12 7
M  V30 28 1 3 26
M  V30 29 1 8 27
M  V30 30 1 9 28
M  V30 31 1 10 29
M  V30 32 1 11 30
M  V30 33 1 18 31
M  V30 34 1 20 32
M  V30 35 1 21 33
M  V30 36 1 23 34
M  V30 37 1 24 35
M  V30 38 1 25 36
M  V30 END BOND
M  V30 END CTAB
M  END
>  <Dataset>  (856) 
ChEMBL_Kinases

>  <Ligand_Instance>  (856) 
nan

>  <PDB_ID>  (856) 
nan

>  <Standardized_SMILES>  (856) 
O=C1NC(=O)C(c2ccccc2C(F)(F)F)=C1Nc1ccc(O)cc1

>  <Name>  (856) 
nan

>  <Pocket>  (856) 
nan

>  <ATP_Site>  (856) 
nan

>  <Peripheral>  (856) 
nan

>  <Num_H_Atoms_ProtBoundConf>  (856) 
nan

>  <Num_Resolved_Atoms>  (856) 
nan

>  <Num_Not_Resolved_Atoms>  (856) 
nan

$$$$
CHEMBL480838
     RDKit          3D

  0  0  0  0  0  0  0  0  0  0999 V3000
M  V30 BEGIN CTAB
M  V30 COUNTS 52 56 0 0 0
M  V30 BEGIN ATOM
M  V30 1 C -0.123887 -1.442979 -0.952530 0
M  V30 2 C 0.068422 -2.908725 -0.971331 0
M  V30 3 C 1.108486 -3.371072 -0.198615 0
M  V30 4 N 2.034616 -2.706107 0.610907 0
M  V30 5 C 3.055505 -1.719164 0.611080 0
M  V30 6 C 4.294813 -2.126338 0.175994 0
M  V30 7 C 4.494551 -3.504532 -0.257481 0
M  V30 8 N 4.653142 -4.609398 -0.620978 0
M  V30 9 C 5.433253 -1.354741 0.092527 0
M  V30 10 N 5.240178 -0.084949 0.493329 0
M  V30 11 C 4.056171 0.351376 0.922399 0
M  V30 12 S 3.470051 2.012552 1.539871 0
M  V30 13 C 1.853432 1.524998 1.828753 0
M  V30 14 C 0.818557 2.432038 2.354007 0
M  V30 15 C 1.141325 3.733153 2.632248 0
M  V30 16 S -0.488375 4.410447 3.250122 0
M  V30 17 C -1.359852 2.906972 3.059824 0
M  V30 18 C -2.795328 2.826671 3.415936 0
M  V30 19 N -3.550271 3.166474 2.223320 0
M  V30 20 C -3.244129 2.234575 1.154630 0
M  V30 21 C -4.962224 3.270726 2.456242 0
M  V30 22 C -0.464244 2.047819 2.584319 0
M  V30 23 C 1.765080 0.214642 1.486268 0
M  V30 24 C 2.884250 -0.413993 1.016425 0
M  V30 25 C 1.351123 -4.748355 -0.171484 0
M  V30 26 C 0.566487 -5.646302 -0.904898 0
M  V30 27 C -0.446558 -5.076145 -1.643048 0
M  V30 28 N -1.362177 -5.671798 -2.444301 0
M  V30 29 C -2.190810 -4.748697 -2.992939 0
M  V30 30 C -1.811097 -3.484550 -2.537892 0
M  V30 31 C -0.736572 -3.733723 -1.712044 0
M  V30 32 H 0.875668 -0.966324 -0.991200 0
M  V30 33 H -0.712604 -1.192341 -1.885580 0
M  V30 34 H -0.667084 -1.140366 -0.047901 0
M  V30 35 H 2.066762 -2.967174 1.640686 0
M  V30 36 H 6.415661 -1.591397 -0.228660 0
M  V30 37 H 2.027200 4.352515 2.571990 0
M  V30 38 H -3.043317 3.457151 4.267525 0
M  V30 39 H -3.007848 1.740178 3.593805 0
M  V30 40 H -2.249744 2.481360 0.734508 0
M  V30 41 H -4.059076 2.267320 0.381850 0
M  V30 42 H -3.168690 1.197342 1.536238 0
M  V30 43 H -5.506539 2.763517 1.620697 0
M  V30 44 H -5.235596 4.345303 2.385390 0
M  V30 45 H -5.301968 2.868071 3.433156 0
M  V30 46 H -0.843211 1.042409 2.403360 0
M  V30 47 H 0.811019 -0.277537 1.602956 0
M  V30 48 H 2.137822 -5.275918 0.393236 0
M  V30 49 H 0.721547 -6.709108 -0.909679 0
M  V30 50 H -1.432820 -6.690989 -2.623648 0
M  V30 51 H -3.020724 -4.891266 -3.671192 0
M  V30 52 H -2.196040 -2.490164 -2.724508 0
M  V30 END ATOM
M  V30 BEGIN BOND
M  V30 1 1 1 2
M  V30 2 2 2 3
M  V30 3 1 3 4
M  V30 4 1 4 5
M  V30 5 2 5 6
M  V30 6 1 6 7
M  V30 7 3 7 8
M  V30 8 1 6 9
M  V30 9 2 9 10
M  V30 10 1 10 11
M  V30 11 1 11 12
M  V30 12 1 12 13
M  V30 13 1 13 14
M  V30 14 2 14 15
M  V30 15 1 15 16
M  V30 16 1 16 17
M  V30 17 1 17 18
M  V30 18 1 18 19
M  V30 19 1 19 20
M  V30 20 1 19 21
M  V30 21 2 17 22
M  V30 22 2 13 23
M  V30 23 1 23 24
M  V30 24 1 3 25
M  V30 25 2 25 26
M  V30 26 1 26 27
M  V30 27 1 27 28
M  V30 28 1 28 29
M  V30 29 2 29 30
M  V30 30 1 30 31
M  V30 31 1 31 2
M  V30 32 1 24 5
M  V30 33 2 31 27
M  V30 34 2 24 11
M  V30 35 1 22 14
M  V30 36 1 1 32
M  V30 37 1 1 33
M  V30 38 1 1 34
M  V30 39 1 4 35
M  V30 40 1 9 36
M  V30 41 1 15 37
M  V30 42 1 18 38
M  V30 43 1 18 39
M  V30 44 1 20 40
M  V30 45 1 20 41
M  V30 46 1 20 42
M  V30 47 1 21 43
M  V30 48 1 21 44
M  V30 49 1 21 45
M  V30 50 1 22 46
M  V30 51 1 23 47
M  V30 52 1 25 48
M  V30 53 1 26 49
M  V30 54 1 28 50
M  V30 55 1 29 51
M  V30 56 1 30 52
M  V30 END BOND
M  V30 END CTAB
M  END
>  <Dataset>  (857) 
ChEMBL_Kinases

>  <Ligand_Instance>  (857) 
nan

>  <PDB_ID>  (857) 
nan

>  <Standardized_SMILES>  (857) 
Cc1c(Nc2c(C#N)cnc3sc(-c4csc(CN(C)C)c4)cc23)ccc2[nH]ccc12

>  <Name>  (857) 
nan

>  <Pocket>  (857) 
nan

>  <ATP_Site>  (857) 
nan

>  <Peripheral>  (857) 
nan

>  <Num_H_Atoms_ProtBoundConf>  (857) 
nan

>  <Num_Resolved_Atoms>  (857) 
nan

>  <Num_Not_Resolved_Atoms>  (857) 
nan

$$$$
CHEMBL4800665
     RDKit          3D

  0  0  0  0  0  0  0  0  0  0999 V3000
M  V30 BEGIN CTAB
M  V30 COUNTS 76 79 0 0 0
M  V30 BEGIN ATOM
M  V30 1 C 5.285220 -4.623668 4.235964 0
M  V30 2 C 6.018595 -4.463608 2.918840 0
M  V30 3 N 6.084850 -3.137107 2.455667 0
M  V30 4 C 6.804132 -3.015689 1.238219 0
M  V30 5 C 6.018001 -3.679721 0.104739 0
M  V30 6 C 6.174349 -2.130684 3.420630 0
M  V30 7 C 6.277883 -0.713360 2.920947 0
M  V30 8 N 5.194265 -0.278365 2.103138 0
M  V30 9 C 3.820894 -0.207707 2.425503 0
M  V30 10 O 3.659493 -0.612596 3.624244 0
M  V30 11 C 2.700334 0.229136 1.616734 0
M  V30 12 C 2.648467 0.807040 0.373958 0
M  V30 13 C 3.791533 1.176927 -0.485847 0
M  V30 14 N 1.355100 0.998005 0.053966 0
M  V30 15 C 0.544766 0.555847 1.066969 0
M  V30 16 C -0.887468 0.652963 0.854990 0
M  V30 17 C -1.848886 1.243798 1.536946 0
M  V30 18 C -1.587985 1.976233 2.739354 0
M  V30 19 O -0.510045 2.188336 3.299380 0
M  V30 20 N -2.846757 2.444330 3.200646 0
M  V30 21 C -3.833628 1.995551 2.283175 0
M  V30 22 C -5.223985 2.167990 2.245241 0
M  V30 23 C -5.957910 1.603574 1.194705 0
M  V30 24 C -5.358375 0.874064 0.180822 0
M  V30 25 C -6.244228 0.341444 -0.857091 0
M  V30 26 O -7.459569 0.548866 -0.748937 0
M  V30 27 N -5.728314 -0.390366 -1.955267 0
M  V30 28 C -6.474647 -0.972435 -3.045799 0 CFG=2
M  V30 29 C -6.275934 -2.466853 -3.164298 0
M  V30 30 C -6.098325 -0.378512 -4.368642 0
M  V30 31 C -4.763980 -0.163307 -4.694785 0
M  V30 32 C -4.440300 0.383369 -5.919098 0
M  V30 33 C -5.449429 0.710107 -6.806286 0
M  V30 34 C -6.785671 0.517314 -6.532504 0
M  V30 35 C -7.079651 -0.036161 -5.288459 0
M  V30 36 C -3.999151 0.700190 0.209837 0
M  V30 37 C -3.278177 1.257738 1.246742 0
M  V30 38 C 1.395224 0.078367 2.034133 0
M  V30 39 C 0.938386 -0.541458 3.304183 0
M  V30 40 H 4.344485 -4.072857 4.300041 0
M  V30 41 H 5.040768 -5.701874 4.337374 0
M  V30 42 H 5.994222 -4.422738 5.081477 0
M  V30 43 H 7.010249 -4.984534 3.052073 0
M  V30 44 H 5.456521 -5.140406 2.205253 0
M  V30 45 H 6.974505 -1.970352 0.900546 0
M  V30 46 H 7.786471 -3.569229 1.255062 0
M  V30 47 H 6.581021 -3.574022 -0.863616 0
M  V30 48 H 5.906439 -4.773550 0.257695 0
M  V30 49 H 5.036128 -3.192714 -0.054660 0
M  V30 50 H 5.299365 -2.176246 4.104872 0
M  V30 51 H 7.119537 -2.296851 4.019148 0
M  V30 52 H 6.365994 -0.078277 3.841260 0
M  V30 53 H 7.226027 -0.603290 2.391322 0
M  V30 54 H 5.446377 0.026432 1.138425 0
M  V30 55 H 3.432371 1.744800 -1.397353 0
M  V30 56 H 4.302528 0.282218 -0.871701 0
M  V30 57 H 4.527974 1.840629 -0.024260 0
M  V30 58 H 1.064525 1.437147 -0.873541 0
M  V30 59 H -1.250475 0.127633 -0.051994 0
M  V30 60 H -2.974031 3.012388 4.065346 0
M  V30 61 H -5.712543 2.736365 3.030696 0
M  V30 62 H -7.037525 1.789534 1.247325 0
M  V30 63 H -4.712962 -0.583376 -2.079135 0
M  V30 64 H -7.567191 -0.801441 -2.879632 0
M  V30 65 H -6.054174 -2.956363 -2.190070 0
M  V30 66 H -7.149910 -2.957456 -3.647290 0
M  V30 67 H -5.389518 -2.695159 -3.819531 0
M  V30 68 H -3.975784 -0.427691 -3.979142 0
M  V30 69 H -3.398831 0.572773 -6.222401 0
M  V30 70 H -5.201616 1.139259 -7.768765 0
M  V30 71 H -7.594344 0.764002 -7.209089 0
M  V30 72 H -8.125746 -0.197044 -5.052113 0
M  V30 73 H -3.535788 0.133972 -0.577728 0
M  V30 74 H 1.084680 0.139860 4.191937 0
M  V30 75 H 1.496179 -1.479936 3.523557 0
M  V30 76 H -0.162402 -0.711022 3.283406 0
M  V30 END ATOM
M  V30 BEGIN BOND
M  V30 1 1 1 2
M  V30 2 1 2 3
M  V30 3 1 3 4
M  V30 4 1 4 5
M  V30 5 1 3 6
M  V30 6 1 6 7
M  V30 7 1 7 8
M  V30 8 1 8 9
M  V30 9 2 9 10
M  V30 10 1 9 11
M  V30 11 2 11 12
M  V30 12 1 12 13
M  V30 13 1 12 14
M  V30 14 1 14 15
M  V30 15 1 15 16
M  V30 16 2 16 17
M  V30 17 1 17 18
M  V30 18 2 18 19
M  V30 19 1 18 20
M  V30 20 1 20 21
M  V30 21 2 21 22
M  V30 22 1 22 23
M  V30 23 2 23 24
M  V30 24 1 24 25
M  V30 25 2 25 26
M  V30 26 1 25 27
M  V30 27 1 27 28
M  V30 28 1 28 29
M  V30 29 1 28 30
M  V30 30 2 30 31
M  V30 31 1 31 32
M  V30 32 2 32 33
M  V30 33 1 33 34
M  V30 34 2 34 35
M  V30 35 1 24 36
M  V30 36 2 36 37
M  V30 37 2 15 38
M  V30 38 1 38 39
M  V30 39 1 38 11
M  V30 40 1 37 17
M  V30 41 1 37 21
M  V30 42 1 35 30
M  V30 43 1 1 40
M  V30 44 1 1 41
M  V30 45 1 1 42
M  V30 46 1 2 43
M  V30 47 1 2 44
M  V30 48 1 4 45
M  V30 49 1 4 46
M  V30 50 1 5 47
M  V30 51 1 5 48
M  V30 52 1 5 49
M  V30 53 1 6 50
M  V30 54 1 6 51
M  V30 55 1 7 52
M  V30 56 1 7 53
M  V30 57 1 8 54
M  V30 58 1 13 55
M  V30 59 1 13 56
M  V30 60 1 13 57
M  V30 61 1 14 58
M  V30 62 1 16 59
M  V30 63 1 20 60
M  V30 64 1 22 61
M  V30 65 1 23 62
M  V30 66 1 27 63
M  V30 67 1 28 64 CFG=1
M  V30 68 1 29 65
M  V30 69 1 29 66
M  V30 70 1 29 67
M  V30 71 1 31 68
M  V30 72 1 32 69
M  V30 73 1 33 70
M  V30 74 1 34 71
M  V30 75 1 35 72
M  V30 76 1 36 73
M  V30 77 1 39 74
M  V30 78 1 39 75
M  V30 79 1 39 76
M  V30 END BOND
M  V30 END CTAB
M  END
>  <Dataset>  (858) 
ChEMBL_Kinases

>  <Ligand_Instance>  (858) 
nan

>  <PDB_ID>  (858) 
nan

>  <Standardized_SMILES>  (858) 
CCN(CC)CCNC(=O)c1c(C)[nH]c(/C=C2\C(=O)Nc3ccc(C(=O)N[C@H](C)c4ccccc4)cc32)c1C

>  <Name>  (858) 
nan

>  <Pocket>  (858) 
nan

>  <ATP_Site>  (858) 
nan

>  <Peripheral>  (858) 
nan

>  <Num_H_Atoms_ProtBoundConf>  (858) 
nan

>  <Num_Resolved_Atoms>  (858) 
nan

>  <Num_Not_Resolved_Atoms>  (858) 
nan

$$$$
CHEMBL4876205
     RDKit          3D

  0  0  0  0  0  0  0  0  0  0999 V3000
M  V30 BEGIN CTAB
M  V30 COUNTS 29 31 0 0 0
M  V30 BEGIN ATOM
M  V30 1 N -2.103971 -3.097525 4.093568 0
M  V30 2 C -0.715623 -3.082169 3.831968 0
M  V30 3 O 0.062171 -3.780232 4.527229 0
M  V30 4 C -0.245655 -2.221713 2.724585 0
M  V30 5 C 1.106254 -2.188458 2.448057 0
M  V30 6 C 1.488157 -1.371294 1.407677 0
M  V30 7 C 0.622196 -0.629321 0.675545 0
M  V30 8 C -0.703613 -0.686350 0.975820 0
M  V30 9 C -1.157206 -1.482348 2.003550 0
M  V30 10 C -1.700914 0.022065 0.306686 0
M  V30 11 C -1.257116 0.822937 -0.725128 0
M  V30 12 Br -2.519706 1.841159 -1.716832 0
M  V30 13 C 0.082257 0.887614 -1.036891 0
M  V30 14 C 0.456875 1.707396 -2.079119 0
M  V30 15 C 1.807533 1.735220 -2.348968 0
M  V30 16 N 2.740780 1.016568 -1.656416 0
M  V30 17 C 2.352995 0.223214 -0.643362 0
M  V30 18 N 3.474013 -0.409309 -0.086326 0
M  V30 19 C 1.024649 0.169918 -0.347080 0
M  V30 20 H -2.385782 -2.214173 4.574535 0
M  V30 21 H -3.118718 -3.109083 4.284610 0
M  V30 22 H 1.701815 -2.818314 3.094010 0
M  V30 23 H 2.535767 -1.458752 1.328280 0
M  V30 24 H -2.217465 -1.544322 2.263175 0
M  V30 25 H -2.734248 -0.036534 0.557577 0
M  V30 26 H -0.271556 2.278093 -2.631310 0
M  V30 27 H 2.110937 2.375842 -3.165289 0
M  V30 28 H 3.761054 0.296187 0.663719 0
M  V30 29 H 3.527015 -1.298717 -0.675175 0
M  V30 END ATOM
M  V30 BEGIN BOND
M  V30 1 1 1 2
M  V30 2 2 2 3
M  V30 3 1 2 4
M  V30 4 2 4 5
M  V30 5 1 5 6
M  V30 6 2 6 7
M  V30 7 1 7 8
M  V30 8 2 8 9
M  V30 9 1 8 10
M  V30 10 2 10 11
M  V30 11 1 11 12
M  V30 12 1 11 13
M  V30 13 2 13 14
M  V30 14 1 14 15
M  V30 15 2 15 16
M  V30 16 1 16 17
M  V30 17 1 17 18
M  V30 18 2 17 19
M  V30 19 1 9 4
M  V30 20 1 19 13
M  V30 21 1 19 7
M  V30 22 1 1 20
M  V30 23 1 1 21
M  V30 24 1 5 22
M  V30 25 1 6 23
M  V30 26 1 9 24
M  V30 27 1 10 25
M  V30 28 1 14 26
M  V30 29 1 15 27
M  V30 30 1 18 28
M  V30 31 1 18 29
M  V30 END BOND
M  V30 END CTAB
M  END
>  <Dataset>  (859) 
ChEMBL_Kinases

>  <Ligand_Instance>  (859) 
nan

>  <PDB_ID>  (859) 
nan

>  <Standardized_SMILES>  (859) 
NC(=O)c1ccc2c(c1)cc(Br)c1ccnc(N)c12

>  <Name>  (859) 
nan

>  <Pocket>  (859) 
nan

>  <ATP_Site>  (859) 
nan

>  <Peripheral>  (859) 
nan

>  <Num_H_Atoms_ProtBoundConf>  (859) 
nan

>  <Num_Resolved_Atoms>  (859) 
nan

>  <Num_Not_Resolved_Atoms>  (859) 
nan

$$$$
CHEMBL480222
     RDKit          3D

  0  0  0  0  0  0  0  0  0  0999 V3000
M  V30 BEGIN CTAB
M  V30 COUNTS 58 62 0 0 0
M  V30 BEGIN ATOM
M  V30 1 C 4.332640 2.336629 -0.350926 0
M  V30 2 C 3.759053 1.555197 0.770178 0
M  V30 3 C 4.586306 1.260539 1.860678 0
M  V30 4 C 4.211111 0.547624 2.980400 0
M  V30 5 C 2.903041 0.111251 2.976464 0
M  V30 6 C 2.417582 -0.663056 4.142941 0
M  V30 7 N 2.592805 -2.074831 4.026946 0
M  V30 8 C 3.971871 -2.477508 3.871951 0
M  V30 9 C 1.715971 -2.744064 3.119555 0
M  V30 10 C 2.061227 0.383998 1.918510 0
M  V30 11 C 2.490492 1.100686 0.826300 0
M  V30 12 C 1.534662 1.359858 -0.281857 0
M  V30 13 C 0.266752 0.989614 -0.377871 0
M  V30 14 C -0.462768 1.321103 -1.480399 0
M  V30 15 C -1.795445 1.048131 -1.796065 0
M  V30 16 N -2.678419 0.318138 -0.983747 0
M  V30 17 C -3.252334 -0.934795 -0.761364 0
M  V30 18 C -4.650861 -0.860943 -0.847304 0
M  V30 19 C -5.450478 -1.995423 -0.665271 0
M  V30 20 C -4.774031 -3.167561 -0.400382 0
M  V30 21 N -5.269133 -4.414627 -0.180487 0
M  V30 22 C -4.252729 -5.283656 0.042321 0
M  V30 23 C -3.045849 -4.603237 -0.029793 0
M  V30 24 C -3.408319 -3.305237 -0.303536 0
M  V30 25 C -2.681955 -2.160998 -0.491333 0
M  V30 26 C -1.212193 -2.164318 -0.420451 0
M  V30 27 C -2.302419 1.506096 -2.991010 0
M  V30 28 C -3.689541 1.234042 -3.342991 0
M  V30 29 N -4.805596 1.021427 -3.622526 0
M  V30 30 C -1.622498 2.228356 -3.946159 0
M  V30 31 N -0.338762 2.476195 -3.613955 0
M  V30 32 C 0.185889 2.044660 -2.457980 0
M  V30 33 S 1.872125 2.237927 -1.755248 0
M  V30 34 H 5.400917 2.625991 -0.121807 0
M  V30 35 H 3.791890 3.273815 -0.511529 0
M  V30 36 H 4.293501 1.747947 -1.291515 0
M  V30 37 H 5.612720 1.622153 1.827118 0
M  V30 38 H 4.932671 0.378419 3.764848 0
M  V30 39 H 1.308005 -0.487471 4.208723 0
M  V30 40 H 2.932422 -0.315847 5.058992 0
M  V30 41 H 4.636941 -1.878286 4.516260 0
M  V30 42 H 4.245839 -2.370501 2.789984 0
M  V30 43 H 4.136618 -3.536431 4.138486 0
M  V30 44 H 1.388702 -3.744574 3.526011 0
M  V30 45 H 0.770034 -2.160971 3.005072 0
M  V30 46 H 2.136975 -2.939716 2.118446 0
M  V30 47 H 1.051511 0.000508 2.005155 0
M  V30 48 H -0.187248 0.412815 0.447687 0
M  V30 49 H -2.968960 1.095441 -0.315359 0
M  V30 50 H -5.241956 0.026165 -1.050517 0
M  V30 51 H -6.524122 -1.975287 -0.724108 0
M  V30 52 H -6.290260 -4.660269 -0.184426 0
M  V30 53 H -4.376893 -6.335218 0.242771 0
M  V30 54 H -2.038552 -4.994629 0.098577 0
M  V30 55 H -0.851959 -3.225062 -0.579925 0
M  V30 56 H -0.762637 -1.565104 -1.221764 0
M  V30 57 H -0.875920 -1.863775 0.590116 0
M  V30 58 H -1.983826 2.600820 -4.885620 0
M  V30 END ATOM
M  V30 BEGIN BOND
M  V30 1 1 1 2
M  V30 2 2 2 3
M  V30 3 1 3 4
M  V30 4 2 4 5
M  V30 5 1 5 6
M  V30 6 1 6 7
M  V30 7 1 7 8
M  V30 8 1 7 9
M  V30 9 1 5 10
M  V30 10 2 10 11
M  V30 11 1 11 12
M  V30 12 2 12 13
M  V30 13 1 13 14
M  V30 14 2 14 15
M  V30 15 1 15 16
M  V30 16 1 16 17
M  V30 17 2 17 18
M  V30 18 1 18 19
M  V30 19 2 19 20
M  V30 20 1 20 21
M  V30 21 1 21 22
M  V30 22 2 22 23
M  V30 23 1 23 24
M  V30 24 2 24 25
M  V30 25 1 25 26
M  V30 26 1 15 27
M  V30 27 1 27 28
M  V30 28 3 28 29
M  V30 29 2 27 30
M  V30 30 1 30 31
M  V30 31 2 31 32
M  V30 32 1 32 33
M  V30 33 1 11 2
M  V30 34 1 33 12
M  V30 35 1 32 14
M  V30 36 1 25 17
M  V30 37 1 24 20
M  V30 38 1 1 34
M  V30 39 1 1 35
M  V30 40 1 1 36
M  V30 41 1 3 37
M  V30 42 1 4 38
M  V30 43 1 6 39
M  V30 44 1 6 40
M  V30 45 1 8 41
M  V30 46 1 8 42
M  V30 47 1 8 43
M  V30 48 1 9 44
M  V30 49 1 9 45
M  V30 50 1 9 46
M  V30 51 1 10 47
M  V30 52 1 13 48
M  V30 53 1 16 49
M  V30 54 1 18 50
M  V30 55 1 19 51
M  V30 56 1 21 52
M  V30 57 1 22 53
M  V30 58 1 23 54
M  V30 59 1 26 55
M  V30 60 1 26 56
M  V30 61 1 26 57
M  V30 62 1 30 58
M  V30 END BOND
M  V30 END CTAB
M  END
>  <Dataset>  (860) 
ChEMBL_Kinases

>  <Ligand_Instance>  (860) 
nan

>  <PDB_ID>  (860) 
nan

>  <Standardized_SMILES>  (860) 
Cc1ccc(CN(C)C)cc1-c1cc2c(Nc3ccc4[nH]ccc4c3C)c(C#N)cnc2s1

>  <Name>  (860) 
nan

>  <Pocket>  (860) 
nan

>  <ATP_Site>  (860) 
nan

>  <Peripheral>  (860) 
nan

>  <Num_H_Atoms_ProtBoundConf>  (860) 
nan

>  <Num_Resolved_Atoms>  (860) 
nan

>  <Num_Not_Resolved_Atoms>  (860) 
nan

$$$$
CHEMBL480223
     RDKit          3D

  0  0  0  0  0  0  0  0  0  0999 V3000
M  V30 BEGIN CTAB
M  V30 COUNTS 59 63 0 0 0
M  V30 BEGIN ATOM
M  V30 1 C 2.973906 2.841004 1.229469 0
M  V30 2 O 3.093796 1.611719 1.876550 0
M  V30 3 C 3.173364 0.395332 1.230561 0
M  V30 4 C 4.400606 -0.117143 0.869568 0
M  V30 5 C 5.687309 0.574846 1.155183 0
M  V30 6 N 5.971289 0.398115 2.523580 0
M  V30 7 C 7.147685 0.943918 3.068840 0
M  V30 8 C 5.105423 -0.350230 3.333410 0
M  V30 9 C 4.524447 -1.341115 0.212961 0
M  V30 10 C 3.430395 -2.110348 -0.113318 0
M  V30 11 C 2.203804 -1.600158 0.247335 0
M  V30 12 C 2.108020 -0.412530 0.883022 0
M  V30 13 C 0.716727 0.081340 1.287519 0
M  V30 14 C -0.440911 -0.498450 1.027477 0
M  V30 15 C -1.580846 0.096547 1.473939 0
M  V30 16 C -2.900120 -0.296027 1.340561 0
M  V30 17 N -3.320189 -1.470384 0.662348 0
M  V30 18 C -3.705685 -1.727526 -0.669512 0
M  V30 19 C -3.715421 -0.717124 -1.595539 0
M  V30 20 C -4.091193 -0.920293 -2.901775 0
M  V30 21 C -4.460952 -2.230434 -3.210982 0
M  V30 22 N -4.878767 -2.763385 -4.387527 0
M  V30 23 C -5.136967 -4.073659 -4.252601 0
M  V30 24 C -4.874566 -4.410351 -2.924013 0
M  V30 25 C -4.454561 -3.248729 -2.291703 0
M  V30 26 C -4.068233 -3.020385 -0.967246 0
M  V30 27 C -4.077985 -4.154682 -0.012858 0
M  V30 28 C -3.927502 0.447812 1.868626 0
M  V30 29 C -5.319034 0.039341 1.730497 0
M  V30 30 N -6.430387 -0.283672 1.601231 0
M  V30 31 C -3.768739 1.624023 2.564791 0
M  V30 32 N -2.478943 2.019859 2.702659 0
M  V30 33 C -1.481435 1.280073 2.179082 0
M  V30 34 S 0.386462 1.504089 2.169777 0
M  V30 35 H 2.501749 3.563320 1.944759 0
M  V30 36 H 2.333789 2.780647 0.321929 0
M  V30 37 H 3.948966 3.274672 0.923785 0
M  V30 38 H 5.653181 1.650363 0.837237 0
M  V30 39 H 6.512216 0.149483 0.505889 0
M  V30 40 H 7.740750 1.563154 2.383663 0
M  V30 41 H 7.796118 0.079123 3.396955 0
M  V30 42 H 6.943276 1.538644 3.989210 0
M  V30 43 H 5.671752 -0.966663 4.076231 0
M  V30 44 H 4.386654 0.289368 3.906035 0
M  V30 45 H 4.500939 -1.055941 2.707222 0
M  V30 46 H 5.508036 -1.741981 -0.071474 0
M  V30 47 H 3.564468 -3.052331 -0.621775 0
M  V30 48 H 1.347206 -2.219303 -0.017951 0
M  V30 49 H -0.468437 -1.439169 0.462922 0
M  V30 50 H -3.281556 -2.173825 1.428941 0
M  V30 51 H -3.426927 0.304029 -1.354309 0
M  V30 52 H -4.124452 -0.187988 -3.677626 0
M  V30 53 H -4.992298 -2.256562 -5.279703 0
M  V30 54 H -5.478968 -4.838122 -4.925764 0
M  V30 55 H -4.965648 -5.369770 -2.437303 0
M  V30 56 H -4.011515 -5.095594 -0.617728 0
M  V30 57 H -5.086765 -4.141546 0.488516 0
M  V30 58 H -3.244197 -4.071626 0.705862 0
M  V30 59 H -4.470266 2.291292 3.022116 0
M  V30 END ATOM
M  V30 BEGIN BOND
M  V30 1 1 1 2
M  V30 2 1 2 3
M  V30 3 2 3 4
M  V30 4 1 4 5
M  V30 5 1 5 6
M  V30 6 1 6 7
M  V30 7 1 6 8
M  V30 8 1 4 9
M  V30 9 2 9 10
M  V30 10 1 10 11
M  V30 11 2 11 12
M  V30 12 1 12 13
M  V30 13 2 13 14
M  V30 14 1 14 15
M  V30 15 2 15 16
M  V30 16 1 16 17
M  V30 17 1 17 18
M  V30 18 2 18 19
M  V30 19 1 19 20
M  V30 20 2 20 21
M  V30 21 1 21 22
M  V30 22 1 22 23
M  V30 23 2 23 24
M  V30 24 1 24 25
M  V30 25 2 25 26
M  V30 26 1 26 27
M  V30 27 1 16 28
M  V30 28 1 28 29
M  V30 29 3 29 30
M  V30 30 2 28 31
M  V30 31 1 31 32
M  V30 32 2 32 33
M  V30 33 1 33 34
M  V30 34 1 12 3
M  V30 35 1 34 13
M  V30 36 1 33 15
M  V30 37 1 26 18
M  V30 38 1 25 21
M  V30 39 1 1 35
M  V30 40 1 1 36
M  V30 41 1 1 37
M  V30 42 1 5 38
M  V30 43 1 5 39
M  V30 44 1 7 40
M  V30 45 1 7 41
M  V30 46 1 7 42
M  V30 47 1 8 43
M  V30 48 1 8 44
M  V30 49 1 8 45
M  V30 50 1 9 46
M  V30 51 1 10 47
M  V30 52 1 11 48
M  V30 53 1 14 49
M  V30 54 1 17 50
M  V30 55 1 19 51
M  V30 56 1 20 52
M  V30 57 1 22 53
M  V30 58 1 23 54
M  V30 59 1 24 55
M  V30 60 1 27 56
M  V30 61 1 27 57
M  V30 62 1 27 58
M  V30 63 1 31 59
M  V30 END BOND
M  V30 END CTAB
M  END
>  <Dataset>  (861) 
ChEMBL_Kinases

>  <Ligand_Instance>  (861) 
nan

>  <PDB_ID>  (861) 
nan

>  <Standardized_SMILES>  (861) 
COc1c(CN(C)C)cccc1-c1cc2c(Nc3ccc4[nH]ccc4c3C)c(C#N)cnc2s1

>  <Name>  (861) 
nan

>  <Pocket>  (861) 
nan

>  <ATP_Site>  (861) 
nan

>  <Peripheral>  (861) 
nan

>  <Num_H_Atoms_ProtBoundConf>  (861) 
nan

>  <Num_Resolved_Atoms>  (861) 
nan

>  <Num_Not_Resolved_Atoms>  (861) 
nan

$$$$
CHEMBL480384
     RDKit          3D

  0  0  0  0  0  0  0  0  0  0999 V3000
M  V30 BEGIN CTAB
M  V30 COUNTS 62 68 0 0 0
M  V30 BEGIN ATOM
M  V30 1 C 4.952543 -3.010304 1.493834 0
M  V30 2 N 4.710208 -1.608868 1.615672 0
M  V30 3 C 5.254619 -0.864356 0.501358 0
M  V30 4 C 5.174243 0.619788 0.815297 0
M  V30 5 N 3.793611 0.958726 1.094182 0
M  V30 6 C 3.464547 2.335069 1.331276 0
M  V30 7 C 4.492267 3.205620 1.658684 0
M  V30 8 C 4.158488 4.499082 1.937112 0
M  V30 9 C 2.854207 4.995333 1.913206 0
M  V30 10 C 1.953356 4.014040 1.572916 0
M  V30 11 N 0.632964 4.169168 1.456407 0
M  V30 12 C -0.112986 3.019005 1.082288 0
M  V30 13 C -1.434504 2.661014 0.850143 0
M  V30 14 N -2.581445 3.339156 0.895816 0
M  V30 15 N -3.636345 2.556751 0.610823 0
M  V30 16 C -3.176961 1.303100 0.365581 0
M  V30 17 C -3.766242 0.086090 0.038856 0
M  V30 18 C -3.059507 -1.091739 -0.151563 0
M  V30 19 C -3.658198 -2.391364 -0.446676 0
M  V30 20 C -4.978701 -2.555439 -0.554112 0
M  V30 21 C -5.330201 -3.964297 -0.821032 0
M  V30 22 C -6.539528 -4.412623 -0.411206 0
M  V30 23 C -6.889994 -5.833882 -0.640502 0
M  V30 24 C -6.042925 -6.704770 -1.226877 0
M  V30 25 N -4.802508 -6.228736 -1.618935 0
M  V30 26 C -4.489405 -4.850349 -1.602426 0
M  V30 27 C -3.062353 -4.608281 -1.398196 0
M  V30 28 C -2.722655 -3.423402 -0.856298 0
M  V30 29 C -1.702867 -0.973157 0.005565 0
M  V30 30 C -1.112296 0.217248 0.325363 0
M  V30 31 C -1.817471 1.373373 0.513649 0
M  V30 32 N 0.949035 2.231796 1.014418 0
M  V30 33 C 2.130937 2.676603 1.264385 0
M  V30 34 C 2.804383 -0.093259 1.165964 0
M  V30 35 C 3.343739 -1.324553 1.898589 0
M  V30 36 H 5.160009 -3.462067 2.498924 0
M  V30 37 H 4.119566 -3.594857 1.053391 0
M  V30 38 H 5.864848 -3.108904 0.849163 0
M  V30 39 H 6.345239 -1.088299 0.456254 0
M  V30 40 H 4.815384 -1.147355 -0.459285 0
M  V30 41 H 5.552354 1.220068 -0.030663 0
M  V30 42 H 5.807626 0.773199 1.734492 0
M  V30 43 H 5.505379 2.821637 1.679202 0
M  V30 44 H 4.960829 5.210636 2.200574 0
M  V30 45 H 2.576176 6.010399 2.130563 0
M  V30 46 H 0.045053 5.053337 1.607898 0
M  V30 47 H -4.650270 2.790224 0.567808 0
M  V30 48 H -4.834401 0.059137 -0.075217 0
M  V30 49 H -5.685758 -1.782849 -0.457221 0
M  V30 50 H -7.206093 -3.727931 0.069088 0
M  V30 51 H -7.889032 -6.108042 -0.301008 0
M  V30 52 H -6.449528 -7.724987 -1.321595 0
M  V30 53 H -4.101431 -6.929040 -1.924178 0
M  V30 54 H -4.725846 -4.531257 -2.720701 0
M  V30 55 H -2.419097 -5.411314 -1.701344 0
M  V30 56 H -1.643082 -3.445458 -0.817483 0
M  V30 57 H -1.003868 -1.783402 -0.106192 0
M  V30 58 H -0.036480 0.237080 0.431644 0
M  V30 59 H 2.536461 -0.414960 0.148243 0
M  V30 60 H 1.920882 0.223049 1.771125 0
M  V30 61 H 3.242786 -1.108080 3.000454 0
M  V30 62 H 2.639057 -2.173783 1.706210 0
M  V30 END ATOM
M  V30 BEGIN BOND
M  V30 1 1 1 2
M  V30 2 1 2 3
M  V30 3 1 3 4
M  V30 4 1 4 5
M  V30 5 1 5 6
M  V30 6 2 6 7
M  V30 7 1 7 8
M  V30 8 2 8 9
M  V30 9 1 9 10
M  V30 10 1 10 11
M  V30 11 1 11 12
M  V30 12 1 12 13
M  V30 13 2 13 14
M  V30 14 1 14 15
M  V30 15 1 15 16
M  V30 16 2 16 17
M  V30 17 1 17 18
M  V30 18 1 18 19
M  V30 19 2 19 20
M  V30 20 1 20 21
M  V30 21 2 21 22
M  V30 22 1 22 23
M  V30 23 2 23 24
M  V30 24 1 24 25
M  V30 25 1 25 26
M  V30 26 1 26 27
M  V30 27 2 27 28
M  V30 28 2 18 29
M  V30 29 1 29 30
M  V30 30 2 30 31
M  V30 31 2 12 32
M  V30 32 1 32 33
M  V30 33 1 5 34
M  V30 34 1 34 35
M  V30 35 1 35 2
M  V30 36 1 33 6
M  V30 37 2 33 10
M  V30 38 1 31 13
M  V30 39 1 31 16
M  V30 40 1 28 19
M  V30 41 1 26 21
M  V30 42 1 1 36
M  V30 43 1 1 37
M  V30 44 1 1 38
M  V30 45 1 3 39
M  V30 46 1 3 40
M  V30 47 1 4 41
M  V30 48 1 4 42
M  V30 49 1 7 43
M  V30 50 1 8 44
M  V30 51 1 9 45
M  V30 52 1 11 46
M  V30 53 1 15 47
M  V30 54 1 17 48
M  V30 55 1 20 49
M  V30 56 1 22 50
M  V30 57 1 23 51
M  V30 58 1 24 52
M  V30 59 1 25 53
M  V30 60 1 26 54
M  V30 61 1 27 55
M  V30 62 1 28 56
M  V30 63 1 29 57
M  V30 64 1 30 58
M  V30 65 1 34 59
M  V30 66 1 34 60
M  V30 67 1 35 61
M  V30 68 1 35 62
M  V30 END BOND
M  V30 END CTAB
M  END
>  <Dataset>  (862) 
ChEMBL_Kinases

>  <Ligand_Instance>  (862) 
nan

>  <PDB_ID>  (862) 
nan

>  <Standardized_SMILES>  (862) 
CN1CCN(c2cccc3[nH]c(-c4n[nH]c5cc(C6=CC7=CC=CNC7C=C6)ccc45)nc23)CC1

>  <Name>  (862) 
nan

>  <Pocket>  (862) 
nan

>  <ATP_Site>  (862) 
nan

>  <Peripheral>  (862) 
nan

>  <Num_H_Atoms_ProtBoundConf>  (862) 
nan

>  <Num_Resolved_Atoms>  (862) 
nan

>  <Num_Not_Resolved_Atoms>  (862) 
nan

$$$$
CHEMBL1563842
     RDKit          3D

  0  0  0  0  0  0  0  0  0  0999 V3000
M  V30 BEGIN CTAB
M  V30 COUNTS 31 33 0 0 0
M  V30 BEGIN ATOM
M  V30 1 Cl -1.833499 -6.068041 3.505213 0
M  V30 2 C -0.840592 -4.762227 2.908019 0
M  V30 3 C -0.380206 -3.887339 3.862007 0
M  V30 4 C 0.410921 -2.829915 3.464737 0
M  V30 5 C 0.718005 -2.674482 2.145900 0
M  V30 6 C 0.294857 -3.504612 1.148450 0
M  V30 7 O 0.461334 -3.555476 -0.192224 0
M  V30 8 C 1.148876 -2.740370 -1.070111 0
M  V30 9 C 0.630914 -1.367918 -1.060099 0
M  V30 10 N -0.392323 -1.003693 -1.884002 0
M  V30 11 N -0.693799 0.270430 -1.716283 0
M  V30 12 C 0.113332 0.758508 -0.793622 0
M  V30 13 C 0.227664 2.109832 -0.211865 0
M  V30 14 C 1.155761 2.450093 0.771321 0
M  V30 15 C 1.172315 3.755115 1.245833 0
M  V30 16 N 0.303627 4.661658 0.756548 0
M  V30 17 C -0.604410 4.364710 -0.192736 0
M  V30 18 C -0.647014 3.075683 -0.685857 0
M  V30 19 N 0.905973 -0.245836 -0.409452 0
M  V30 20 C -0.509909 -4.578987 1.559422 0
M  V30 21 H -0.590285 -3.959180 4.921708 0
M  V30 22 H 0.805981 -2.104280 4.168733 0
M  V30 23 H 1.330983 -1.878080 1.773664 0
M  V30 24 H 1.036227 -3.174280 -2.095550 0
M  V30 25 H 2.256568 -2.705988 -0.858622 0
M  V30 26 H -1.423027 0.833051 -2.196838 0
M  V30 27 H 1.814495 1.655616 1.104689 0
M  V30 28 H 1.911793 3.977043 2.011896 0
M  V30 29 H -1.295136 5.116857 -0.570765 0
M  V30 30 H -1.379500 2.843601 -1.448995 0
M  V30 31 H -0.955289 -5.355806 0.954343 0
M  V30 END ATOM
M  V30 BEGIN BOND
M  V30 1 1 1 2
M  V30 2 2 2 3
M  V30 3 1 3 4
M  V30 4 2 4 5
M  V30 5 1 5 6
M  V30 6 1 6 7
M  V30 7 1 7 8
M  V30 8 1 8 9
M  V30 9 2 9 10
M  V30 10 1 10 11
M  V30 11 1 11 12
M  V30 12 1 12 13
M  V30 13 2 13 14
M  V30 14 1 14 15
M  V30 15 2 15 16
M  V30 16 1 16 17
M  V30 17 2 17 18
M  V30 18 2 12 19
M  V30 19 2 6 20
M  V30 20 1 20 2
M  V30 21 1 19 9
M  V30 22 1 18 13
M  V30 23 1 3 21
M  V30 24 1 4 22
M  V30 25 1 5 23
M  V30 26 1 8 24
M  V30 27 1 8 25
M  V30 28 1 11 26
M  V30 29 1 14 27
M  V30 30 1 15 28
M  V30 31 1 17 29
M  V30 32 1 18 30
M  V30 33 1 20 31
M  V30 END BOND
M  V30 END CTAB
M  END
>  <Dataset>  (863) 
ChEMBL_Kinases

>  <Ligand_Instance>  (863) 
nan

>  <PDB_ID>  (863) 
nan

>  <Standardized_SMILES>  (863) 
Clc1cccc(OCc2n[nH]c(-c3ccncc3)n2)c1

>  <Name>  (863) 
nan

>  <Pocket>  (863) 
nan

>  <ATP_Site>  (863) 
nan

>  <Peripheral>  (863) 
nan

>  <Num_H_Atoms_ProtBoundConf>  (863) 
nan

>  <Num_Resolved_Atoms>  (863) 
nan

>  <Num_Not_Resolved_Atoms>  (863) 
nan

$$$$
CHEMBL480391
     RDKit          3D

  0  0  0  0  0  0  0  0  0  0999 V3000
M  V30 BEGIN CTAB
M  V30 COUNTS 57 62 0 0 0
M  V30 BEGIN ATOM
M  V30 1 C 1.885715 -3.488427 1.022876 0
M  V30 2 N 3.267625 -3.363575 0.680653 0
M  V30 3 C 4.025017 -2.518104 1.567358 0
M  V30 4 C 3.754447 -1.062576 1.267258 0
M  V30 5 N 4.072990 -0.727425 -0.106622 0
M  V30 6 C 3.992040 0.516782 -0.782860 0
M  V30 7 C 5.165618 1.177440 -1.197145 0
M  V30 8 C 5.040815 2.399387 -1.862651 0
M  V30 9 C 3.778952 2.939723 -2.103657 0
M  V30 10 C 2.573023 2.313517 -1.706294 0
M  V30 11 N 1.246271 2.459867 -1.733665 0
M  V30 12 C 0.629848 1.405108 -1.130178 0
M  V30 13 C -0.678650 1.947335 -1.351990 0
M  V30 14 N -1.788367 2.599176 -1.658419 0
M  V30 15 N -2.921424 2.276022 -1.278994 0
M  V30 16 C -2.834974 1.199428 -0.539065 0
M  V30 17 C -3.905930 0.576794 0.040601 0
M  V30 18 C -3.623928 -0.517983 0.765607 0
M  V30 19 C -4.698578 -1.243553 1.415382 0
M  V30 20 C -5.947879 -1.244862 0.791568 0
M  V30 21 C -6.989946 -1.963800 1.416545 0
M  V30 22 C -6.670948 -2.601986 2.592853 0
M  V30 23 N -7.732316 -3.330027 3.207065 0
M  V30 24 C -5.434598 -2.590222 3.192579 0
M  V30 25 C -4.401913 -1.890986 2.596045 0
M  V30 26 C -2.324827 -0.957239 0.898917 0
M  V30 27 C -1.375068 -0.202984 0.245076 0
M  V30 28 C -1.443567 0.983536 -0.576409 0
M  V30 29 N 1.634181 0.660107 -0.761978 0
M  V30 30 C 2.831875 1.150782 -1.078735 0
M  V30 31 C 4.524894 -1.919030 -0.842146 0
M  V30 32 C 3.526627 -3.051495 -0.706068 0
M  V30 33 H 1.629738 -2.649829 1.725952 0
M  V30 34 H 1.176215 -3.377288 0.165007 0
M  V30 35 H 1.723842 -4.468922 1.548267 0
M  V30 36 H 5.082597 -2.772410 1.459926 0
M  V30 37 H 3.732321 -2.756124 2.600354 0
M  V30 38 H 4.416462 -0.488245 1.982118 0
M  V30 39 H 2.717386 -0.831184 1.513614 0
M  V30 40 H 6.134892 0.775602 -1.020320 0
M  V30 41 H 5.887295 2.984378 -2.221984 0
M  V30 42 H 3.629525 3.899677 -2.627133 0
M  V30 43 H -3.620836 2.974292 -1.671458 0
M  V30 44 H -4.920023 0.923469 -0.067390 0
M  V30 45 H -6.141180 -0.725513 -0.132584 0
M  V30 46 H -7.933504 -1.938596 0.905108 0
M  V30 47 H -7.781847 -3.876052 4.086818 0
M  V30 48 H -7.593278 -3.840321 4.132216 0
M  V30 49 H -5.238378 -3.112208 4.121850 0
M  V30 50 H -3.439313 -1.893596 3.080448 0
M  V30 51 H -2.065601 -1.818490 1.466952 0
M  V30 52 H -0.419711 -0.659891 0.444391 0
M  V30 53 H 1.330163 -0.188900 -0.300604 0
M  V30 54 H 5.493971 -2.263704 -0.484716 0
M  V30 55 H 4.630712 -1.618784 -1.904401 0
M  V30 56 H 2.575134 -2.757658 -1.181289 0
M  V30 57 H 3.878409 -3.964185 -1.213560 0
M  V30 END ATOM
M  V30 BEGIN BOND
M  V30 1 1 1 2
M  V30 2 1 2 3
M  V30 3 1 3 4
M  V30 4 1 4 5
M  V30 5 1 5 6
M  V30 6 2 6 7
M  V30 7 1 7 8
M  V30 8 2 8 9
M  V30 9 1 9 10
M  V30 10 1 10 11
M  V30 11 2 11 12
M  V30 12 1 12 13
M  V30 13 2 13 14
M  V30 14 1 14 15
M  V30 15 1 15 16
M  V30 16 2 16 17
M  V30 17 1 17 18
M  V30 18 1 18 19
M  V30 19 2 19 20
M  V30 20 1 20 21
M  V30 21 2 21 22
M  V30 22 1 22 23
M  V30 23 1 22 24
M  V30 24 2 24 25
M  V30 25 2 18 26
M  V30 26 1 26 27
M  V30 27 2 27 28
M  V30 28 1 12 29
M  V30 29 1 29 30
M  V30 30 1 5 31
M  V30 31 1 31 32
M  V30 32 1 32 2
M  V30 33 1 30 6
M  V30 34 2 30 10
M  V30 35 1 28 13
M  V30 36 1 28 16
M  V30 37 1 25 19
M  V30 38 1 1 33
M  V30 39 1 1 34
M  V30 40 1 1 35
M  V30 41 1 3 36
M  V30 42 1 3 37
M  V30 43 1 4 38
M  V30 44 1 4 39
M  V30 45 1 7 40
M  V30 46 1 8 41
M  V30 47 1 9 42
M  V30 48 1 15 43
M  V30 49 1 17 44
M  V30 50 1 20 45
M  V30 51 1 21 46
M  V30 52 1 23 47
M  V30 53 1 23 48
M  V30 54 1 24 49
M  V30 55 1 25 50
M  V30 56 1 26 51
M  V30 57 1 27 52
M  V30 58 1 29 53
M  V30 59 1 31 54
M  V30 60 1 31 55
M  V30 61 1 32 56
M  V30 62 1 32 57
M  V30 END BOND
M  V30 END CTAB
M  END
>  <Dataset>  (864) 
ChEMBL_Kinases

>  <Ligand_Instance>  (864) 
nan

>  <PDB_ID>  (864) 
nan

>  <Standardized_SMILES>  (864) 
CN1CCN(c2cccc3nc(-c4n[nH]c5cc(-c6ccc(N)cc6)ccc45)[nH]c23)CC1

>  <Name>  (864) 
nan

>  <Pocket>  (864) 
nan

>  <ATP_Site>  (864) 
nan

>  <Peripheral>  (864) 
nan

>  <Num_H_Atoms_ProtBoundConf>  (864) 
nan

>  <Num_Resolved_Atoms>  (864) 
nan

>  <Num_Not_Resolved_Atoms>  (864) 
nan

$$$$
CHEMBL480392
     RDKit          3D

  0  0  0  0  0  0  0  0  0  0999 V3000
M  V30 BEGIN CTAB
M  V30 COUNTS 57 62 0 0 0
M  V30 BEGIN ATOM
M  V30 1 C 1.507324 -3.872383 -0.391745 0
M  V30 2 N 2.863301 -3.421149 -0.630932 0
M  V30 3 C 3.524703 -2.973648 0.552054 0
M  V30 4 C 3.306841 -1.485845 0.704844 0
M  V30 5 N 3.862765 -0.696279 -0.346108 0
M  V30 6 C 4.088560 0.673177 -0.039844 0
M  V30 7 C 5.292889 1.345864 -0.045057 0
M  V30 8 C 5.368233 2.685107 0.277076 0
M  V30 9 C 4.215020 3.372304 0.613109 0
M  V30 10 C 2.982465 2.719048 0.627130 0
M  V30 11 N 1.737699 3.191492 0.921915 0
M  V30 12 C 0.929195 2.126903 0.772471 0
M  V30 13 C -0.515848 2.143066 0.980000 0
M  V30 14 N -1.268197 3.211443 1.350219 0
M  V30 15 N -2.542978 2.833660 1.435362 0
M  V30 16 C -2.681323 1.529305 1.131439 0
M  V30 17 C -3.705838 0.607072 1.046688 0
M  V30 18 C -3.513268 -0.713195 0.692958 0
M  V30 19 C -4.709422 -1.547229 0.653424 0
M  V30 20 C -5.936765 -1.022282 0.305477 0
M  V30 21 C -7.079683 -1.793077 0.264094 0
M  V30 22 C -7.027474 -3.135205 0.574890 0
M  V30 23 C -5.811665 -3.693754 0.928182 0
M  V30 24 N -5.661307 -5.078840 1.267924 0
M  V30 25 C -4.665731 -2.904633 0.966002 0
M  V30 26 C -2.233048 -1.168169 0.400869 0
M  V30 27 C -1.203234 -0.243578 0.485331 0
M  V30 28 C -1.389465 1.076000 0.838107 0
M  V30 29 N 1.631857 1.041510 0.402522 0
M  V30 30 C 2.930171 1.377316 0.301056 0
M  V30 31 C 4.078007 -1.486342 -1.529478 0
M  V30 32 C 2.986447 -2.510608 -1.737644 0
M  V30 33 H 1.540311 -4.700005 0.334181 0
M  V30 34 H 0.828128 -3.041411 -0.082522 0
M  V30 35 H 1.072007 -4.269258 -1.331210 0
M  V30 36 H 3.109551 -3.491850 1.424296 0
M  V30 37 H 4.596676 -3.236744 0.475166 0
M  V30 38 H 2.207593 -1.314763 0.767997 0
M  V30 39 H 3.808269 -1.174839 1.665287 0
M  V30 40 H 6.146089 0.738502 -0.317953 0
M  V30 41 H 6.337000 3.165099 0.257823 0
M  V30 42 H 4.276934 4.413450 0.863574 0
M  V30 43 H 1.487309 4.165050 1.199602 0
M  V30 44 H -3.356247 3.452310 1.703201 0
M  V30 45 H -4.675041 1.054110 1.293379 0
M  V30 46 H -5.940163 0.023135 0.070491 0
M  V30 47 H -8.019148 -1.335905 -0.015046 0
M  V30 48 H -7.895796 -3.788399 0.558111 0
M  V30 49 H -4.949014 -5.315996 2.021056 0
M  V30 50 H -6.181351 -5.885287 0.850061 0
M  V30 51 H -3.694897 -3.313845 1.240393 0
M  V30 52 H -2.111434 -2.204975 0.127351 0
M  V30 53 H -0.191147 -0.606379 0.254045 0
M  V30 54 H 5.039324 -2.039035 -1.467144 0
M  V30 55 H 4.115088 -0.871166 -2.446730 0
M  V30 56 H 3.158754 -3.108003 -2.654420 0
M  V30 57 H 1.992989 -2.014601 -1.872233 0
M  V30 END ATOM
M  V30 BEGIN BOND
M  V30 1 1 1 2
M  V30 2 1 2 3
M  V30 3 1 3 4
M  V30 4 1 4 5
M  V30 5 1 5 6
M  V30 6 2 6 7
M  V30 7 1 7 8
M  V30 8 2 8 9
M  V30 9 1 9 10
M  V30 10 1 10 11
M  V30 11 1 11 12
M  V30 12 1 12 13
M  V30 13 2 13 14
M  V30 14 1 14 15
M  V30 15 1 15 16
M  V30 16 2 16 17
M  V30 17 1 17 18
M  V30 18 1 18 19
M  V30 19 2 19 20
M  V30 20 1 20 21
M  V30 21 2 21 22
M  V30 22 1 22 23
M  V30 23 1 23 24
M  V30 24 2 23 25
M  V30 25 2 18 26
M  V30 26 1 26 27
M  V30 27 2 27 28
M  V30 28 2 12 29
M  V30 29 1 29 30
M  V30 30 1 5 31
M  V30 31 1 31 32
M  V30 32 1 32 2
M  V30 33 1 30 6
M  V30 34 2 30 10
M  V30 35 1 28 13
M  V30 36 1 28 16
M  V30 37 1 25 19
M  V30 38 1 1 33
M  V30 39 1 1 34
M  V30 40 1 1 35
M  V30 41 1 3 36
M  V30 42 1 3 37
M  V30 43 1 4 38
M  V30 44 1 4 39
M  V30 45 1 7 40
M  V30 46 1 8 41
M  V30 47 1 9 42
M  V30 48 1 11 43
M  V30 49 1 15 44
M  V30 50 1 17 45
M  V30 51 1 20 46
M  V30 52 1 21 47
M  V30 53 1 22 48
M  V30 54 1 24 49
M  V30 55 1 24 50
M  V30 56 1 25 51
M  V30 57 1 26 52
M  V30 58 1 27 53
M  V30 59 1 31 54
M  V30 60 1 31 55
M  V30 61 1 32 56
M  V30 62 1 32 57
M  V30 END BOND
M  V30 END CTAB
M  END
>  <Dataset>  (865) 
ChEMBL_Kinases

>  <Ligand_Instance>  (865) 
nan

>  <PDB_ID>  (865) 
nan

>  <Standardized_SMILES>  (865) 
CN1CCN(c2cccc3[nH]c(-c4n[nH]c5cc(-c6cccc(N)c6)ccc45)nc23)CC1

>  <Name>  (865) 
nan

>  <Pocket>  (865) 
nan

>  <ATP_Site>  (865) 
nan

>  <Peripheral>  (865) 
nan

>  <Num_H_Atoms_ProtBoundConf>  (865) 
nan

>  <Num_Resolved_Atoms>  (865) 
nan

>  <Num_Not_Resolved_Atoms>  (865) 
nan

$$$$
CHEMBL4876138
     RDKit          3D

  0  0  0  0  0  0  0  0  0  0999 V3000
M  V30 BEGIN CTAB
M  V30 COUNTS 49 52 0 0 0
M  V30 BEGIN ATOM
M  V30 1 C -1.976052 -1.785336 3.737280 0
M  V30 2 C -1.324966 -3.011279 4.336271 0
M  V30 3 C -0.315586 -3.583900 3.407859 0
M  V30 4 C 0.016594 -3.102030 2.150304 0
M  V30 5 C 1.008232 -3.891311 1.562358 0
M  V30 6 N 1.609779 -3.709170 0.262692 0
M  V30 7 C 1.035097 -2.621740 -0.451868 0
M  V30 8 N 1.340160 -1.316717 -0.322333 0
M  V30 9 C 0.722733 -0.363310 -1.061670 0
M  V30 10 N 1.078468 1.003894 -0.885948 0
M  V30 11 C 2.118884 1.352225 0.058961 0
M  V30 12 C 2.360833 2.840989 0.160573 0
M  V30 13 C 1.157599 3.578426 0.617567 0
M  V30 14 C 1.090111 3.688346 2.007126 0
M  V30 15 C 0.042220 4.342059 2.613028 0
M  V30 16 C -0.972473 4.909402 1.878625 0
M  V30 17 F -2.028407 5.564408 2.424177 0
M  V30 18 C -0.917573 4.807405 0.487663 0
M  V30 19 C 0.140951 4.147225 -0.112320 0
M  V30 20 N -0.211572 -0.763659 -1.936389 0
M  V30 21 C -0.581840 -2.039877 -2.135230 0
M  V30 22 C -1.570406 -2.344702 -3.081590 0
M  V30 23 C -1.898318 -3.676294 -3.235082 0
M  V30 24 C -1.285960 -4.669481 -2.494770 0
M  V30 25 C -0.319708 -4.319689 -1.576979 0
M  V30 26 F 0.293337 -5.297838 -0.836269 0
M  V30 27 C 0.058264 -2.987043 -1.373648 0
M  V30 28 N 1.253361 -4.850684 2.501773 0
M  V30 29 N 0.486259 -4.656036 3.547078 0
M  V30 30 H -1.234557 -0.966865 3.771596 0
M  V30 31 H -2.371180 -1.982583 2.723278 0
M  V30 32 H -2.876024 -1.565316 4.378665 0
M  V30 33 H -2.171150 -3.739533 4.512031 0
M  V30 34 H -0.871199 -2.803463 5.300955 0
M  V30 35 H -0.460939 -2.219379 1.721176 0
M  V30 36 H 2.373866 -4.396868 0.038141 0
M  V30 37 H 0.553279 1.682582 -1.463856 0
M  V30 38 H 1.729207 1.031971 1.053036 0
M  V30 39 H 3.049551 0.836896 -0.220056 0
M  V30 40 H 2.645750 3.217035 -0.859410 0
M  V30 41 H 3.228441 3.021294 0.819163 0
M  V30 42 H 1.825078 3.285787 2.699532 0
M  V30 43 H -0.030165 4.442075 3.694852 0
M  V30 44 H -1.674896 5.228389 -0.131424 0
M  V30 45 H 0.259172 4.026719 -1.178395 0
M  V30 46 H -2.036619 -1.532935 -3.651799 0
M  V30 47 H -2.667768 -3.930671 -3.971830 0
M  V30 48 H -1.577580 -5.713434 -2.649960 0
M  V30 49 H 0.490612 -5.273435 4.410666 0
M  V30 END ATOM
M  V30 BEGIN BOND
M  V30 1 1 1 2
M  V30 2 1 2 3
M  V30 3 2 3 4
M  V30 4 1 4 5
M  V30 5 1 5 6
M  V30 6 1 6 7
M  V30 7 2 7 8
M  V30 8 1 8 9
M  V30 9 1 9 10
M  V30 10 1 10 11
M  V30 11 1 11 12
M  V30 12 1 12 13
M  V30 13 2 13 14
M  V30 14 1 14 15
M  V30 15 2 15 16
M  V30 16 1 16 17
M  V30 17 1 16 18
M  V30 18 2 18 19
M  V30 19 2 9 20
M  V30 20 1 20 21
M  V30 21 2 21 22
M  V30 22 1 22 23
M  V30 23 2 23 24
M  V30 24 1 24 25
M  V30 25 1 25 26
M  V30 26 2 25 27
M  V30 27 2 5 28
M  V30 28 1 28 29
M  V30 29 1 29 3
M  V30 30 1 27 7
M  V30 31 1 19 13
M  V30 32 1 27 21
M  V30 33 1 1 30
M  V30 34 1 1 31
M  V30 35 1 1 32
M  V30 36 1 2 33
M  V30 37 1 2 34
M  V30 38 1 4 35
M  V30 39 1 6 36
M  V30 40 1 10 37
M  V30 41 1 11 38
M  V30 42 1 11 39
M  V30 43 1 12 40
M  V30 44 1 12 41
M  V30 45 1 14 42
M  V30 46 1 15 43
M  V30 47 1 18 44
M  V30 48 1 19 45
M  V30 49 1 22 46
M  V30 50 1 23 47
M  V30 51 1 24 48
M  V30 52 1 29 49
M  V30 END BOND
M  V30 END CTAB
M  END
>  <Dataset>  (866) 
ChEMBL_Kinases

>  <Ligand_Instance>  (866) 
nan

>  <PDB_ID>  (866) 
nan

>  <Standardized_SMILES>  (866) 
CCc1cc(Nc2nc(NCCc3ccc(F)cc3)nc3cccc(F)c23)n[nH]1

>  <Name>  (866) 
nan

>  <Pocket>  (866) 
nan

>  <ATP_Site>  (866) 
nan

>  <Peripheral>  (866) 
nan

>  <Num_H_Atoms_ProtBoundConf>  (866) 
nan

>  <Num_Resolved_Atoms>  (866) 
nan

>  <Num_Not_Resolved_Atoms>  (866) 
nan

$$$$
CHEMBL480641
     RDKit          3D

  0  0  0  0  0  0  0  0  0  0999 V3000
M  V30 BEGIN CTAB
M  V30 COUNTS 55 59 0 0 0
M  V30 BEGIN ATOM
M  V30 1 C 0.265921 -4.313569 1.948710 0
M  V30 2 C -0.036632 -3.990011 0.531706 0
M  V30 3 C 0.665887 -3.070487 -0.179256 0
M  V30 4 N 1.712954 -2.421016 0.486825 0
M  V30 5 C 2.657360 -1.427077 0.110873 0
M  V30 6 C 3.841772 -1.860540 -0.424450 0
M  V30 7 C 4.059981 -3.293851 -0.576255 0
M  V30 8 N 4.245085 -4.439142 -0.703324 0
M  V30 9 C 4.889239 -1.086201 -0.852649 0
M  V30 10 N 4.664391 0.242176 -0.702441 0
M  V30 11 C 3.499691 0.669647 -0.176002 0
M  V30 12 S 2.841908 2.375877 0.178679 0
M  V30 13 C 1.312365 1.902388 0.829718 0
M  V30 14 C 0.430513 3.015138 1.252290 0
M  V30 15 C 0.876341 4.328034 1.043234 0
M  V30 16 C 0.159393 5.452202 1.393875 0
M  V30 17 C -1.058466 5.268613 1.980279 0
M  V30 18 C -1.524073 4.000345 2.199265 0
M  V30 19 C -0.784573 2.894963 1.837817 0
M  V30 20 C -1.399082 1.604868 2.131635 0
M  V30 21 N -1.935635 1.030390 0.903843 0
M  V30 22 C -2.944531 1.923637 0.331473 0
M  V30 23 C -2.537419 -0.264920 1.159372 0
M  V30 24 C 1.347804 0.601745 0.763122 0
M  V30 25 C 2.409248 -0.078850 0.272033 0
M  V30 26 C 0.380061 -2.779277 -1.484166 0
M  V30 27 C -0.665298 -3.437149 -2.128295 0
M  V30 28 C -1.414151 -4.392336 -1.429939 0
M  V30 29 N -2.440519 -5.177857 -1.727936 0
M  V30 30 C -2.806667 -5.939227 -0.680952 0
M  V30 31 C -1.953826 -5.606768 0.334152 0
M  V30 32 C -1.079095 -4.640747 -0.122888 0
M  V30 33 H 0.402972 -3.422967 2.577430 0
M  V30 34 H -0.559718 -4.919627 2.384695 0
M  V30 35 H 1.198983 -4.897252 2.031331 0
M  V30 36 H 1.996402 -2.582573 1.474382 0
M  V30 37 H 5.833892 -1.344357 -1.275882 0
M  V30 38 H 1.831194 4.629889 0.583307 0
M  V30 39 H 0.495108 6.461838 1.236455 0
M  V30 40 H -1.648827 6.123009 2.268660 0
M  V30 41 H -2.497134 3.932214 2.667457 0
M  V30 42 H -0.777018 0.868017 2.636384 0
M  V30 43 H -2.347866 1.771139 2.750538 0
M  V30 44 H -2.424289 2.736525 -0.218488 0
M  V30 45 H -3.539715 1.361228 -0.417381 0
M  V30 46 H -3.578690 2.297404 1.162929 0
M  V30 47 H -2.275714 -0.641207 2.189491 0
M  V30 48 H -3.627793 -0.140491 1.165299 0
M  V30 49 H -2.171474 -1.028801 0.440173 0
M  V30 50 H 0.505363 0.035602 1.104130 0
M  V30 51 H 0.919174 -2.054944 -2.074540 0
M  V30 52 H -0.976631 -3.285538 -3.152767 0
M  V30 53 H -2.935470 -5.231824 -2.650901 0
M  V30 54 H -3.608671 -6.680221 -0.608257 0
M  V30 55 H -1.948943 -6.018998 1.332452 0
M  V30 END ATOM
M  V30 BEGIN BOND
M  V30 1 1 1 2
M  V30 2 2 2 3
M  V30 3 1 3 4
M  V30 4 1 4 5
M  V30 5 2 5 6
M  V30 6 1 6 7
M  V30 7 3 7 8
M  V30 8 1 6 9
M  V30 9 2 9 10
M  V30 10 1 10 11
M  V30 11 1 11 12
M  V30 12 1 12 13
M  V30 13 1 13 14
M  V30 14 2 14 15
M  V30 15 1 15 16
M  V30 16 2 16 17
M  V30 17 1 17 18
M  V30 18 2 18 19
M  V30 19 1 19 20
M  V30 20 1 20 21
M  V30 21 1 21 22
M  V30 22 1 21 23
M  V30 23 2 13 24
M  V30 24 1 24 25
M  V30 25 1 3 26
M  V30 26 2 26 27
M  V30 27 1 27 28
M  V30 28 1 28 29
M  V30 29 1 29 30
M  V30 30 2 30 31
M  V30 31 1 31 32
M  V30 32 1 32 2
M  V30 33 1 25 5
M  V30 34 2 32 28
M  V30 35 2 25 11
M  V30 36 1 19 14
M  V30 37 1 1 33
M  V30 38 1 1 34
M  V30 39 1 1 35
M  V30 40 1 4 36
M  V30 41 1 9 37
M  V30 42 1 15 38
M  V30 43 1 16 39
M  V30 44 1 17 40
M  V30 45 1 18 41
M  V30 46 1 20 42
M  V30 47 1 20 43
M  V30 48 1 22 44
M  V30 49 1 22 45
M  V30 50 1 22 46
M  V30 51 1 23 47
M  V30 52 1 23 48
M  V30 53 1 23 49
M  V30 54 1 24 50
M  V30 55 1 26 51
M  V30 56 1 27 52
M  V30 57 1 29 53
M  V30 58 1 30 54
M  V30 59 1 31 55
M  V30 END BOND
M  V30 END CTAB
M  END
>  <Dataset>  (867) 
ChEMBL_Kinases

>  <Ligand_Instance>  (867) 
nan

>  <PDB_ID>  (867) 
nan

>  <Standardized_SMILES>  (867) 
Cc1c(Nc2c(C#N)cnc3sc(-c4ccccc4CN(C)C)cc23)ccc2[nH]ccc12

>  <Name>  (867) 
nan

>  <Pocket>  (867) 
nan

>  <ATP_Site>  (867) 
nan

>  <Peripheral>  (867) 
nan

>  <Num_H_Atoms_ProtBoundConf>  (867) 
nan

>  <Num_Resolved_Atoms>  (867) 
nan

>  <Num_Not_Resolved_Atoms>  (867) 
nan

$$$$
CHEMBL156506
     RDKit          3D

  0  0  0  0  0  0  0  0  0  0999 V3000
M  V30 BEGIN CTAB
M  V30 COUNTS 32 34 0 0 0
M  V30 BEGIN ATOM
M  V30 1 O 1.013810 -0.865962 4.423345 0
M  V30 2 C 1.599110 -1.181591 3.367486 0
M  V30 3 N 2.752671 -1.982311 3.047691 0
M  V30 4 C 2.963517 -1.992920 1.643614 0
M  V30 5 O 3.938124 -2.653079 1.212942 0
M  V30 6 C 1.903635 -1.170948 1.076609 0
M  V30 7 C 1.801607 -0.977062 -0.370247 0
M  V30 8 C 0.582143 -1.092230 -0.998075 0
M  V30 9 C 0.365162 -0.913445 -2.343588 0
M  V30 10 C 1.435776 -0.591784 -3.156336 0
M  V30 11 C 2.680460 -0.470508 -2.542758 0
M  V30 12 C 2.867114 -0.657681 -1.182393 0
M  V30 13 Cl 4.478093 -0.470168 -0.502649 0
M  V30 14 C 1.110671 -0.696823 2.055025 0
M  V30 15 N -0.005416 0.144538 1.830850 0
M  V30 16 C -1.408722 0.027422 1.803867 0
M  V30 17 C -2.064548 -1.153515 2.057563 0
M  V30 18 C -3.457346 -1.217835 2.009979 0
M  V30 19 C -4.119790 -0.046829 1.698876 0
M  V30 20 C -3.479618 1.146152 1.441691 0
M  V30 21 Cl -4.328849 2.638031 1.039747 0
M  V30 22 C -2.105268 1.176448 1.497216 0
M  V30 23 H 3.248397 -2.419025 3.846266 0
M  V30 24 H -0.340650 -1.348932 -0.459816 0
M  V30 25 H -0.631689 -1.014434 -2.801395 0
M  V30 26 H 1.275979 -0.446391 -4.217346 0
M  V30 27 H 3.547551 -0.219752 -3.128876 0
M  V30 28 H 0.461573 1.082280 1.650699 0
M  V30 29 H -1.522077 -2.063493 2.300303 0
M  V30 30 H -4.050943 -2.097704 2.194851 0
M  V30 31 H -5.214845 0.058352 1.622174 0
M  V30 32 H -1.597745 2.126901 1.290062 0
M  V30 END ATOM
M  V30 BEGIN BOND
M  V30 1 2 1 2
M  V30 2 1 2 3
M  V30 3 1 3 4
M  V30 4 2 4 5
M  V30 5 1 4 6
M  V30 6 1 6 7
M  V30 7 2 7 8
M  V30 8 1 8 9
M  V30 9 2 9 10
M  V30 10 1 10 11
M  V30 11 2 11 12
M  V30 12 1 12 13
M  V30 13 2 6 14
M  V30 14 1 14 15
M  V30 15 1 15 16
M  V30 16 2 16 17
M  V30 17 1 17 18
M  V30 18 2 18 19
M  V30 19 1 19 20
M  V30 20 1 20 21
M  V30 21 2 20 22
M  V30 22 1 14 2
M  V30 23 1 22 16
M  V30 24 1 12 7
M  V30 25 1 3 23
M  V30 26 1 8 24
M  V30 27 1 9 25
M  V30 28 1 10 26
M  V30 29 1 11 27
M  V30 30 1 15 28
M  V30 31 1 17 29
M  V30 32 1 18 30
M  V30 33 1 19 31
M  V30 34 1 22 32
M  V30 END BOND
M  V30 END CTAB
M  END
>  <Dataset>  (868) 
ChEMBL_Kinases

>  <Ligand_Instance>  (868) 
nan

>  <PDB_ID>  (868) 
nan

>  <Standardized_SMILES>  (868) 
O=C1NC(=O)C(c2ccccc2Cl)=C1Nc1cccc(Cl)c1

>  <Name>  (868) 
nan

>  <Pocket>  (868) 
nan

>  <ATP_Site>  (868) 
nan

>  <Peripheral>  (868) 
nan

>  <Num_H_Atoms_ProtBoundConf>  (868) 
nan

>  <Num_Resolved_Atoms>  (868) 
nan

>  <Num_Not_Resolved_Atoms>  (868) 
nan

$$$$
CHEMBL4866501
     RDKit          3D

  0  0  0  0  0  0  0  0  0  0999 V3000
M  V30 BEGIN CTAB
M  V30 COUNTS 58 63 0 0 0
M  V30 BEGIN ATOM
M  V30 1 C 3.807630 -4.381313 2.653214 0
M  V30 2 C 2.716283 -3.644074 3.431059 0
M  V30 3 N 2.618115 -2.269723 3.013922 0
M  V30 4 C 3.264431 -1.208722 3.509499 0
M  V30 5 O 4.096555 -1.167621 4.448388 0
M  V30 6 C 2.867040 -0.093742 2.805332 0
M  V30 7 C 3.143104 1.255960 2.814769 0
M  V30 8 N 2.581070 2.145797 1.973271 0
M  V30 9 C 1.687449 1.673283 1.061487 0
M  V30 10 N 0.895685 2.267679 0.031484 0
M  V30 11 C -0.518276 2.336862 -0.119462 0
M  V30 12 C -0.949029 2.985977 -1.240493 0
M  V30 13 C -2.334652 3.057692 -1.430449 0
M  V30 14 C -3.158067 2.469899 -0.474576 0
M  V30 15 C -2.678249 1.825137 0.643169 0
M  V30 16 C -1.297571 1.742515 0.850750 0
M  V30 17 C -3.627753 1.246300 1.588740 0
M  V30 18 N -4.672419 0.543380 0.913541 0
M  V30 19 C -5.068405 1.055527 -0.349471 0
M  V30 20 C -4.644178 2.498320 -0.609358 0
M  V30 21 N 1.417198 0.379539 1.046957 0
M  V30 22 C 1.961167 -0.558673 1.879576 0
M  V30 23 N 1.818503 -1.915699 2.024886 0
M  V30 24 C 0.906766 -2.572467 1.150531 0
M  V30 25 C -0.180136 -3.364513 1.463723 0
M  V30 26 C -0.962400 -3.909615 0.482935 0
M  V30 27 C -0.718929 -3.706022 -0.853613 0
M  V30 28 C 0.371538 -2.911930 -1.143455 0
M  V30 29 C 0.725244 -2.618957 -2.567192 0
M  V30 30 C -0.402437 -2.521173 -3.493689 0
M  V30 31 N -1.285879 -2.454209 -4.238220 0
M  V30 32 C 1.931024 -1.755653 -2.824914 0
M  V30 33 C 2.003128 -3.227277 -3.137040 0
M  V30 34 N 1.126542 -2.386253 -0.185148 0
M  V30 35 H 4.797665 -3.967641 2.832470 0
M  V30 36 H 3.475969 -4.392446 1.594007 0
M  V30 37 H 3.747536 -5.443582 2.985649 0
M  V30 38 H 1.801641 -4.218220 3.289908 0
M  V30 39 H 3.059953 -3.620562 4.491710 0
M  V30 40 H 3.838069 1.649205 3.518095 0
M  V30 41 H 1.601793 2.662915 -0.625193 0
M  V30 42 H -0.278613 3.428119 -1.956287 0
M  V30 43 H -2.743426 3.552314 -2.288769 0
M  V30 44 H -0.883162 1.243246 1.716988 0
M  V30 45 H -3.131165 0.679717 2.373486 0
M  V30 46 H -4.130841 2.121982 2.097482 0
M  V30 47 H -5.460900 0.261231 1.534274 0
M  V30 48 H -6.159931 0.918394 -0.498065 0
M  V30 49 H -4.605216 0.389786 -1.134179 0
M  V30 50 H -4.925346 2.692873 -1.666672 0
M  V30 51 H -5.147843 3.158965 0.092579 0
M  V30 52 H -0.335169 -3.494997 2.524515 0
M  V30 53 H -1.789163 -4.514816 0.839351 0
M  V30 54 H -1.342787 -4.141258 -1.602456 0
M  V30 55 H 1.877172 -1.058283 -3.680948 0
M  V30 56 H 2.494495 -1.347828 -1.973616 0
M  V30 57 H 2.554998 -3.917441 -2.465427 0
M  V30 58 H 1.988787 -3.495755 -4.231787 0
M  V30 END ATOM
M  V30 BEGIN BOND
M  V30 1 1 1 2
M  V30 2 1 2 3
M  V30 3 1 3 4
M  V30 4 2 4 5
M  V30 5 1 4 6
M  V30 6 2 6 7
M  V30 7 1 7 8
M  V30 8 2 8 9
M  V30 9 1 9 10
M  V30 10 1 10 11
M  V30 11 2 11 12
M  V30 12 1 12 13
M  V30 13 2 13 14
M  V30 14 1 14 15
M  V30 15 2 15 16
M  V30 16 1 15 17
M  V30 17 1 17 18
M  V30 18 1 18 19
M  V30 19 1 19 20
M  V30 20 1 9 21
M  V30 21 2 21 22
M  V30 22 1 22 23
M  V30 23 1 23 24
M  V30 24 2 24 25
M  V30 25 1 25 26
M  V30 26 2 26 27
M  V30 27 1 27 28
M  V30 28 1 28 29
M  V30 29 1 29 30
M  V30 30 3 30 31
M  V30 31 1 29 32
M  V30 32 1 32 33
M  V30 33 2 28 34
M  V30 34 1 23 3
M  V30 35 1 34 24
M  V30 36 1 22 6
M  V30 37 1 33 29
M  V30 38 1 16 11
M  V30 39 1 20 14
M  V30 40 1 1 35
M  V30 41 1 1 36
M  V30 42 1 1 37
M  V30 43 1 2 38
M  V30 44 1 2 39
M  V30 45 1 7 40
M  V30 46 1 10 41
M  V30 47 1 12 42
M  V30 48 1 13 43
M  V30 49 1 16 44
M  V30 50 1 17 45
M  V30 51 1 17 46
M  V30 52 1 18 47
M  V30 53 1 19 48
M  V30 54 1 19 49
M  V30 55 1 20 50
M  V30 56 1 20 51
M  V30 57 1 25 52
M  V30 58 1 26 53
M  V30 59 1 27 54
M  V30 60 1 32 55
M  V30 61 1 32 56
M  V30 62 1 33 57
M  V30 63 1 33 58
M  V30 END BOND
M  V30 END CTAB
M  END
>  <Dataset>  (869) 
ChEMBL_Kinases

>  <Ligand_Instance>  (869) 
nan

>  <PDB_ID>  (869) 
nan

>  <Standardized_SMILES>  (869) 
CCn1c(=O)c2cnc(Nc3ccc4c(c3)CNCC4)nc2n1-c1cccc(C2(C#N)CC2)n1

>  <Name>  (869) 
nan

>  <Pocket>  (869) 
nan

>  <ATP_Site>  (869) 
nan

>  <Peripheral>  (869) 
nan

>  <Num_H_Atoms_ProtBoundConf>  (869) 
nan

>  <Num_Resolved_Atoms>  (869) 
nan

>  <Num_Not_Resolved_Atoms>  (869) 
nan

$$$$
CHEMBL4857914
     RDKit          3D

  0  0  0  0  0  0  0  0  0  0999 V3000
M  V30 BEGIN CTAB
M  V30 COUNTS 53 57 0 0 0
M  V30 BEGIN ATOM
M  V30 1 C -0.668557 -2.895270 4.660506 0
M  V30 2 O -1.188927 -2.331114 3.449281 0
M  V30 3 C -0.430760 -1.431523 2.716271 0
M  V30 4 C 0.822179 -1.084801 3.163134 0
M  V30 5 C 1.544729 -0.177726 2.389105 0
M  V30 6 C 0.957551 0.316266 1.223062 0
M  V30 7 C 1.834835 1.253053 0.531641 0
M  V30 8 C 3.185228 0.980047 0.306907 0
M  V30 9 C 4.064786 1.816978 -0.338484 0
M  V30 10 C 3.554581 3.034275 -0.800805 0
M  V30 11 C 2.208997 3.313981 -0.581024 0
M  V30 12 C 1.328090 2.472010 0.066854 0
M  V30 13 O -0.002214 2.789178 0.264585 0
M  V30 14 C -0.629228 3.822542 -0.440526 0
M  V30 15 C 0.270711 4.434871 -1.460367 0
M  V30 16 O 1.607660 4.492320 -1.000169 0
M  V30 17 C -0.304319 -0.061021 0.814688 0
M  V30 18 C -1.044511 -0.968876 1.576129 0
M  V30 19 C -2.372728 -1.287128 1.075197 0
M  V30 20 C -2.734447 -1.600559 -0.180121 0
M  V30 21 N -1.651399 -1.617286 -1.118717 0
M  V30 22 C -0.790349 -2.763119 -0.972496 0
M  V30 23 C 0.325715 -2.971583 -1.791197 0
M  V30 24 C 1.124956 -4.094407 -1.610979 0
M  V30 25 C 0.845894 -5.036324 -0.624142 0
M  V30 26 C -0.236457 -4.876247 0.202496 0
M  V30 27 C -0.593455 -5.810154 1.253478 0
M  V30 28 N -0.861352 -6.550576 2.101333 0
M  V30 29 C -0.992136 -3.750854 -0.018081 0
M  V30 30 C -4.174132 -1.838957 -0.208126 0
M  V30 31 O -4.695094 -2.145654 -1.305386 0
M  V30 32 N -4.664567 -1.649848 1.112303 0
M  V30 33 C -3.561549 -1.303384 1.940499 0
M  V30 34 O -3.618301 -1.062095 3.172945 0
M  V30 35 H -1.366603 -3.637894 5.058963 0
M  V30 36 H 0.297720 -3.435138 4.434420 0
M  V30 37 H -0.434054 -2.134615 5.421772 0
M  V30 38 H 1.179909 -1.529109 4.084062 0
M  V30 39 H 2.522689 0.080413 2.755580 0
M  V30 40 H 3.562441 0.025754 0.673447 0
M  V30 41 H 5.096449 1.551275 -0.483399 0
M  V30 42 H 4.178514 3.749718 -1.318700 0
M  V30 43 H -1.004097 4.631593 0.231239 0
M  V30 44 H -1.526884 3.389554 -0.931475 0
M  V30 45 H -0.093351 5.437384 -1.771808 0
M  V30 46 H 0.214420 3.798538 -2.386317 0
M  V30 47 H -0.590889 0.424550 -0.105740 0
M  V30 48 H -1.371099 -0.957407 -1.886619 0
M  V30 49 H 0.534907 -2.234873 -2.554478 0
M  V30 50 H 1.993514 -4.265749 -2.240420 0
M  V30 51 H 1.464838 -5.916962 -0.475843 0
M  V30 52 H -1.858442 -3.640863 0.655455 0
M  V30 53 H -5.675345 -1.767168 1.337669 0
M  V30 END ATOM
M  V30 BEGIN BOND
M  V30 1 1 1 2
M  V30 2 1 2 3
M  V30 3 2 3 4
M  V30 4 1 4 5
M  V30 5 2 5 6
M  V30 6 1 6 7
M  V30 7 2 7 8
M  V30 8 1 8 9
M  V30 9 2 9 10
M  V30 10 1 10 11
M  V30 11 2 11 12
M  V30 12 1 12 13
M  V30 13 1 13 14
M  V30 14 1 14 15
M  V30 15 1 15 16
M  V30 16 1 6 17
M  V30 17 2 17 18
M  V30 18 1 18 19
M  V30 19 2 19 20
M  V30 20 1 20 21
M  V30 21 1 21 22
M  V30 22 2 22 23
M  V30 23 1 23 24
M  V30 24 2 24 25
M  V30 25 1 25 26
M  V30 26 1 26 27
M  V30 27 3 27 28
M  V30 28 2 26 29
M  V30 29 1 20 30
M  V30 30 2 30 31
M  V30 31 1 30 32
M  V30 32 1 32 33
M  V30 33 2 33 34
M  V30 34 1 18 3
M  V30 35 1 33 19
M  V30 36 1 12 7
M  V30 37 1 29 22
M  V30 38 1 16 11
M  V30 39 1 1 35
M  V30 40 1 1 36
M  V30 41 1 1 37
M  V30 42 1 4 38
M  V30 43 1 5 39
M  V30 44 1 8 40
M  V30 45 1 9 41
M  V30 46 1 10 42
M  V30 47 1 14 43
M  V30 48 1 14 44
M  V30 49 1 15 45
M  V30 50 1 15 46
M  V30 51 1 17 47
M  V30 52 1 21 48
M  V30 53 1 23 49
M  V30 54 1 24 50
M  V30 55 1 25 51
M  V30 56 1 29 52
M  V30 57 1 32 53
M  V30 END BOND
M  V30 END CTAB
M  END
>  <Dataset>  (870) 
ChEMBL_Kinases

>  <Ligand_Instance>  (870) 
nan

>  <PDB_ID>  (870) 
nan

>  <Standardized_SMILES>  (870) 
COc1ccc(-c2cccc3c2OCCO3)cc1C1=C(Nc2cccc(C#N)c2)C(=O)NC1=O

>  <Name>  (870) 
nan

>  <Pocket>  (870) 
nan

>  <ATP_Site>  (870) 
nan

>  <Peripheral>  (870) 
nan

>  <Num_H_Atoms_ProtBoundConf>  (870) 
nan

>  <Num_Resolved_Atoms>  (870) 
nan

>  <Num_Not_Resolved_Atoms>  (870) 
nan

$$$$
CHEMBL4858023
     RDKit          3D

  0  0  0  0  0  0  0  0  0  0999 V3000
M  V30 BEGIN CTAB
M  V30 COUNTS 36 38 0 0 0
M  V30 BEGIN ATOM
M  V30 1 C 0.876982 -5.980798 0.683783 0
M  V30 2 S 2.039663 -4.689819 0.189158 0
M  V30 3 C 1.988462 -3.329908 1.371666 0
M  V30 4 C 2.811049 -3.286069 2.479810 0
M  V30 5 C 2.711309 -2.202891 3.345470 0
M  V30 6 C 1.813961 -1.166337 3.132656 0
M  V30 7 C 0.999736 -1.200563 2.044478 0
M  V30 8 N 0.068325 -0.152275 1.784351 0
M  V30 9 C -0.874129 -0.048537 0.725473 0
M  V30 10 C -1.188802 0.748253 -0.278209 0
M  V30 11 C -0.557899 1.990640 -0.690538 0
M  V30 12 C -1.433667 3.005333 -1.020672 0
M  V30 13 C -0.987219 4.236163 -1.433166 0
M  V30 14 C 0.365468 4.481220 -1.525588 0
M  V30 15 C 1.281750 3.501697 -1.208159 0
M  V30 16 C 0.764740 2.301370 -0.805159 0
M  V30 17 Cl 1.901506 1.033580 -0.412035 0
M  V30 18 C -2.355702 0.179018 -0.990763 0
M  V30 19 O -2.909067 0.699558 -2.004256 0
M  V30 20 N -2.741648 -1.032231 -0.352337 0
M  V30 21 C -1.808169 -1.183188 0.735433 0
M  V30 22 O -2.005695 -2.235044 1.431840 0
M  V30 23 C 1.105980 -2.278796 1.191669 0
M  V30 24 H 0.720135 -5.878554 1.789445 0
M  V30 25 H 1.271655 -7.003492 0.533724 0
M  V30 26 H -0.109443 -5.856185 0.149090 0
M  V30 27 H 3.517624 -4.090389 2.657565 0
M  V30 28 H 3.328870 -2.126515 4.218254 0
M  V30 29 H 1.731770 -0.315847 3.805539 0
M  V30 30 H 0.038921 0.669267 2.431096 0
M  V30 31 H -2.522425 2.891916 -0.973223 0
M  V30 32 H -1.665040 5.039855 -1.693922 0
M  V30 33 H 0.755918 5.451624 -1.851136 0
M  V30 34 H 2.350400 3.649873 -1.265935 0
M  V30 35 H -3.551132 -1.594481 -0.703295 0
M  V30 36 H 0.479480 -2.354318 0.302879 0
M  V30 END ATOM
M  V30 BEGIN BOND
M  V30 1 1 1 2
M  V30 2 1 2 3
M  V30 3 2 3 4
M  V30 4 1 4 5
M  V30 5 2 5 6
M  V30 6 1 6 7
M  V30 7 1 7 8
M  V30 8 1 8 9
M  V30 9 2 9 10
M  V30 10 1 10 11
M  V30 11 2 11 12
M  V30 12 1 12 13
M  V30 13 2 13 14
M  V30 14 1 14 15
M  V30 15 2 15 16
M  V30 16 1 16 17
M  V30 17 1 10 18
M  V30 18 2 18 19
M  V30 19 1 18 20
M  V30 20 1 20 21
M  V30 21 2 21 22
M  V30 22 2 7 23
M  V30 23 1 23 3
M  V30 24 1 21 9
M  V30 25 1 16 11
M  V30 26 1 1 24
M  V30 27 1 1 25
M  V30 28 1 1 26
M  V30 29 1 4 27
M  V30 30 1 5 28
M  V30 31 1 6 29
M  V30 32 1 8 30
M  V30 33 1 12 31
M  V30 34 1 13 32
M  V30 35 1 14 33
M  V30 36 1 15 34
M  V30 37 1 20 35
M  V30 38 1 23 36
M  V30 END BOND
M  V30 END CTAB
M  END
>  <Dataset>  (871) 
ChEMBL_Kinases

>  <Ligand_Instance>  (871) 
nan

>  <PDB_ID>  (871) 
nan

>  <Standardized_SMILES>  (871) 
CSc1cccc(NC2=C(c3ccccc3Cl)C(=O)NC2=O)c1

>  <Name>  (871) 
nan

>  <Pocket>  (871) 
nan

>  <ATP_Site>  (871) 
nan

>  <Peripheral>  (871) 
nan

>  <Num_H_Atoms_ProtBoundConf>  (871) 
nan

>  <Num_Resolved_Atoms>  (871) 
nan

>  <Num_Not_Resolved_Atoms>  (871) 
nan

$$$$
CHEMBL4858035
     RDKit          3D

  0  0  0  0  0  0  0  0  0  0999 V3000
M  V30 BEGIN CTAB
M  V30 COUNTS 72 78 0 0 0
M  V30 BEGIN ATOM
M  V30 1 O -0.933121 -5.450723 0.078475 0
M  V30 2 C -0.080841 -4.733926 -0.547956 0
M  V30 3 C 0.735201 -3.804658 0.221700 0
M  V30 4 C -0.073597 -3.073459 1.096911 0
M  V30 5 C 0.468079 -2.111744 1.950237 0
M  V30 6 C 1.832081 -1.892369 1.914644 0
M  V30 7 C 2.469581 -0.896307 2.783287 0
M  V30 8 C 3.758383 -1.063901 3.240705 0
M  V30 9 C 4.362549 -0.127399 4.060307 0
M  V30 10 C 3.632914 1.001413 4.417561 0
M  V30 11 N 3.918398 2.074757 5.180679 0
M  V30 12 C 2.871656 2.909006 5.224912 0
M  V30 13 C 1.886209 2.335680 4.456833 0
M  V30 14 C 0.582343 2.959738 4.263868 0
M  V30 15 C -0.640990 2.319605 4.333772 0
M  V30 16 C -1.828627 2.995221 4.137504 0
M  V30 17 C -1.824778 4.347461 3.862707 0
M  V30 18 C -3.036277 4.977657 3.674171 0
M  V30 19 N -3.041316 6.296883 3.404940 0
M  V30 20 C -1.879635 6.984383 3.322375 0
M  V30 21 C -0.666382 6.345975 3.512759 0
M  V30 22 C -0.605129 4.992576 3.791704 0
M  V30 23 C 0.587390 4.326773 3.986067 0
M  V30 24 N 2.364087 1.169657 3.968929 0
M  V30 25 C 1.803254 0.248655 3.177518 0
M  V30 26 C 2.631967 -2.619634 1.045312 0
M  V30 27 C 2.093693 -3.569338 0.203194 0
M  V30 28 N 0.029419 -4.876272 -1.958827 0
M  V30 29 C 0.963037 -4.113742 -2.756923 0
M  V30 30 C 0.425064 -3.800030 -4.126470 0
M  V30 31 C -1.085798 -3.806009 -4.165929 0
M  V30 32 N -1.680509 -2.754571 -3.374956 0
M  V30 33 C -3.099699 -2.815119 -3.457857 0
M  V30 34 C -3.828688 -1.591508 -2.979938 0
M  V30 35 C -3.337330 -0.436445 -3.861262 0
M  V30 36 C -1.881200 -0.282120 -3.468240 0
M  V30 37 C -1.146343 -1.510015 -3.873448 0
M  V30 38 C -1.567722 -5.193929 -3.816690 0
M  V30 39 C -0.798873 -5.801264 -2.674766 0
M  V30 40 H -1.161599 -3.157216 1.215715 0
M  V30 41 H -0.126550 -1.528166 2.639468 0
M  V30 42 H 4.350193 -1.936162 2.976209 0
M  V30 43 H 5.377770 -0.215756 4.447209 0
M  V30 44 H 2.865516 3.850476 5.782560 0
M  V30 45 H -0.604561 1.263665 4.550523 0
M  V30 46 H -2.730411 2.375921 4.218844 0
M  V30 47 H -3.958030 4.414762 3.743065 0
M  V30 48 H -1.804873 8.035132 3.112209 0
M  V30 49 H 0.269719 6.876903 3.451546 0
M  V30 50 H 1.479837 4.928351 3.906896 0
M  V30 51 H 0.790466 0.364020 2.808652 0
M  V30 52 H 3.704174 -2.488063 0.977056 0
M  V30 53 H 2.599014 -4.197775 -0.512291 0
M  V30 54 H 1.929496 -4.654204 -2.767223 0
M  V30 55 H 1.127564 -3.159261 -2.223314 0
M  V30 56 H 0.760141 -4.622331 -4.793234 0
M  V30 57 H 0.842626 -2.868693 -4.537003 0
M  V30 58 H -1.378528 -3.630595 -5.219442 0
M  V30 59 H -3.371926 -3.028791 -4.509797 0
M  V30 60 H -3.448691 -3.634731 -2.758687 0
M  V30 61 H -3.550772 -1.416496 -1.920128 0
M  V30 62 H -4.893520 -1.705825 -3.169565 0
M  V30 63 H -3.486676 -0.721925 -4.905138 0
M  V30 64 H -3.943508 0.439648 -3.546375 0
M  V30 65 H -1.467312 0.558219 -4.042875 0
M  V30 66 H -1.875619 -0.107255 -2.374856 0
M  V30 67 H -0.089761 -1.365074 -3.560960 0
M  V30 68 H -1.131047 -1.536464 -4.991342 0
M  V30 69 H -1.371426 -5.824385 -4.724764 0
M  V30 70 H -2.639956 -5.257599 -3.653771 0
M  V30 71 H -1.451964 -6.323834 -1.948558 0
M  V30 72 H -0.105967 -6.605587 -3.047808 0
M  V30 END ATOM
M  V30 BEGIN BOND
M  V30 1 2 1 2
M  V30 2 1 2 3
M  V30 3 2 3 4
M  V30 4 1 4 5
M  V30 5 2 5 6
M  V30 6 1 6 7
M  V30 7 1 7 8
M  V30 8 2 8 9
M  V30 9 1 9 10
M  V30 10 2 10 11
M  V30 11 1 11 12
M  V30 12 2 12 13
M  V30 13 1 13 14
M  V30 14 2 14 15
M  V30 15 1 15 16
M  V30 16 2 16 17
M  V30 17 1 17 18
M  V30 18 2 18 19
M  V30 19 1 19 20
M  V30 20 2 20 21
M  V30 21 1 21 22
M  V30 22 2 22 23
M  V30 23 1 13 24
M  V30 24 1 24 25
M  V30 25 1 6 26
M  V30 26 2 26 27
M  V30 27 1 2 28
M  V30 28 1 28 29
M  V30 29 1 29 30
M  V30 30 1 30 31
M  V30 31 1 31 32
M  V30 32 1 32 33
M  V30 33 1 33 34
M  V30 34 1 34 35
M  V30 35 1 35 36
M  V30 36 1 36 37
M  V30 37 1 31 38
M  V30 38 1 38 39
M  V30 39 1 27 3
M  V30 40 1 39 28
M  V30 41 2 25 7
M  V30 42 1 37 32
M  V30 43 1 24 10
M  V30 44 1 23 14
M  V30 45 1 22 17
M  V30 46 1 4 40
M  V30 47 1 5 41
M  V30 48 1 8 42
M  V30 49 1 9 43
M  V30 50 1 12 44
M  V30 51 1 15 45
M  V30 52 1 16 46
M  V30 53 1 18 47
M  V30 54 1 20 48
M  V30 55 1 21 49
M  V30 56 1 23 50
M  V30 57 1 25 51
M  V30 58 1 26 52
M  V30 59 1 27 53
M  V30 60 1 29 54
M  V30 61 1 29 55
M  V30 62 1 30 56
M  V30 63 1 30 57
M  V30 64 1 31 58
M  V30 65 1 33 59
M  V30 66 1 33 60
M  V30 67 1 34 61
M  V30 68 1 34 62
M  V30 69 1 35 63
M  V30 70 1 35 64
M  V30 71 1 36 65
M  V30 72 1 36 66
M  V30 73 1 37 67
M  V30 74 1 37 68
M  V30 75 1 38 69
M  V30 76 1 38 70
M  V30 77 1 39 71
M  V30 78 1 39 72
M  V30 END BOND
M  V30 END CTAB
M  END
>  <Dataset>  (872) 
ChEMBL_Kinases

>  <Ligand_Instance>  (872) 
nan

>  <PDB_ID>  (872) 
nan

>  <Standardized_SMILES>  (872) 
O=C(c1ccc(-c2ccc3ncc(-c4ccc5cnccc5c4)n3c2)cc1)N1CCC(N2CCCCC2)CC1

>  <Name>  (872) 
nan

>  <Pocket>  (872) 
nan

>  <ATP_Site>  (872) 
nan

>  <Peripheral>  (872) 
nan

>  <Num_H_Atoms_ProtBoundConf>  (872) 
nan

>  <Num_Resolved_Atoms>  (872) 
nan

>  <Num_Not_Resolved_Atoms>  (872) 
nan

$$$$
CHEMBL4858037
     RDKit          3D

  0  0  0  0  0  0  0  0  0  0999 V3000
M  V30 BEGIN CTAB
M  V30 COUNTS 47 49 0 0 0
M  V30 BEGIN ATOM
M  V30 1 C 1.118650 -0.927712 4.507796 0
M  V30 2 C 1.793744 -1.678514 3.386766 0
M  V30 3 C 1.792675 -3.168506 3.518656 0
M  V30 4 C 3.114812 -1.035717 3.020940 0 CFG=2
M  V30 5 O 3.777691 -0.459260 4.100323 0
M  V30 6 C 2.316101 -0.056190 2.185393 0
M  V30 7 C 1.268091 -1.141579 2.047512 0 CFG=1
M  V30 8 N 1.540734 -1.989015 0.910958 0
M  V30 9 C 1.139506 -1.662534 -0.435149 0
M  V30 10 N 0.478146 -0.520697 -0.685702 0
M  V30 11 C 0.106732 -0.215670 -1.930037 0
M  V30 12 N -0.592016 0.969887 -2.271867 0
M  V30 13 C -0.982165 1.968934 -1.332714 0
M  V30 14 C -1.887718 1.539130 -0.267548 0
M  V30 15 C -1.439848 1.326880 1.020637 0
M  V30 16 N -2.138078 0.936134 2.103421 0
M  V30 17 C -3.460558 0.714886 1.931984 0
M  V30 18 C -4.002729 0.901047 0.675560 0
M  V30 19 C -3.238672 1.308860 -0.424747 0
M  V30 20 C -3.843796 1.503677 -1.773737 0
M  V30 21 F -3.691717 2.799926 -2.237619 0
M  V30 22 F -5.220416 1.284131 -1.629408 0
M  V30 23 F -3.421984 0.609902 -2.708544 0
M  V30 24 N 0.428847 -1.101776 -2.889637 0
M  V30 25 C 1.079734 -2.244818 -2.705735 0
M  V30 26 C 1.463813 -2.561826 -1.425081 0
M  V30 27 C 2.162089 -3.783721 -1.214745 0
M  V30 28 N 2.714567 -4.776633 -1.058004 0
M  V30 29 H 1.776908 -0.114592 4.898072 0
M  V30 30 H 0.808786 -1.608532 5.304279 0
M  V30 31 H 0.197419 -0.387707 4.155493 0
M  V30 32 H 2.725189 -3.626517 3.176842 0
M  V30 33 H 1.618241 -3.438676 4.588085 0
M  V30 34 H 0.909948 -3.561568 2.973378 0
M  V30 35 H 3.793424 -1.678653 2.407319 0
M  V30 36 H 3.854514 0.510713 3.882658 0
M  V30 37 H 1.966888 0.778733 2.821477 0
M  V30 38 H 2.796888 0.242911 1.233885 0
M  V30 39 H 0.228097 -0.764808 2.111787 0
M  V30 40 H 2.053505 -2.867382 1.118364 0
M  V30 41 H -0.843168 1.132941 -3.283955 0
M  V30 42 H -0.024841 2.329565 -0.850185 0
M  V30 43 H -1.406513 2.859225 -1.830651 0
M  V30 44 H -0.375357 1.482377 1.255093 0
M  V30 45 H -4.086663 0.398817 2.754673 0
M  V30 46 H -5.066062 0.719083 0.555550 0
M  V30 47 H 1.286649 -2.889425 -3.570236 0
M  V30 END ATOM
M  V30 BEGIN BOND
M  V30 1 1 1 2
M  V30 2 1 2 3
M  V30 3 1 2 4
M  V30 4 1 4 5
M  V30 5 1 4 6
M  V30 6 1 6 7
M  V30 7 1 7 8
M  V30 8 1 8 9
M  V30 9 2 9 10
M  V30 10 1 10 11
M  V30 11 1 11 12
M  V30 12 1 12 13
M  V30 13 1 13 14
M  V30 14 2 14 15
M  V30 15 1 15 16
M  V30 16 2 16 17
M  V30 17 1 17 18
M  V30 18 2 18 19
M  V30 19 1 19 20
M  V30 20 1 20 21
M  V30 21 1 20 22
M  V30 22 1 20 23
M  V30 23 2 11 24
M  V30 24 1 24 25
M  V30 25 2 25 26
M  V30 26 1 26 27
M  V30 27 3 27 28
M  V30 28 1 7 2
M  V30 29 1 26 9
M  V30 30 1 19 14
M  V30 31 1 1 29
M  V30 32 1 1 30
M  V30 33 1 1 31
M  V30 34 1 3 32
M  V30 35 1 3 33
M  V30 36 1 3 34
M  V30 37 1 4 35 CFG=3
M  V30 38 1 5 36
M  V30 39 1 6 37
M  V30 40 1 6 38
M  V30 41 1 7 39 CFG=1
M  V30 42 1 8 40
M  V30 43 1 12 41
M  V30 44 1 13 42
M  V30 45 1 13 43
M  V30 46 1 15 44
M  V30 47 1 17 45
M  V30 48 1 18 46
M  V30 49 1 25 47
M  V30 END BOND
M  V30 END CTAB
M  END
>  <Dataset>  (873) 
ChEMBL_Kinases

>  <Ligand_Instance>  (873) 
nan

>  <PDB_ID>  (873) 
nan

>  <Standardized_SMILES>  (873) 
CC1(C)[C@H](O)C[C@H]1Nc1nc(NCc2cnccc2C(F)(F)F)ncc1C#N

>  <Name>  (873) 
nan

>  <Pocket>  (873) 
nan

>  <ATP_Site>  (873) 
nan

>  <Peripheral>  (873) 
nan

>  <Num_H_Atoms_ProtBoundConf>  (873) 
nan

>  <Num_Resolved_Atoms>  (873) 
nan

>  <Num_Not_Resolved_Atoms>  (873) 
nan

$$$$
CHEMBL4858177
     RDKit          3D

  0  0  0  0  0  0  0  0  0  0999 V3000
M  V30 BEGIN CTAB
M  V30 COUNTS 62 66 0 0 0
M  V30 BEGIN ATOM
M  V30 1 C 4.316578 0.106864 7.670271 0
M  V30 2 C 4.683419 0.159003 6.232261 0
M  V30 3 C 5.861717 -0.322055 5.730359 0
M  V30 4 C 6.091085 -0.217431 4.378247 0
M  V30 5 C 5.153084 0.360047 3.547674 0
M  V30 6 C 3.953008 0.858367 4.005394 0
M  V30 7 C 2.921698 1.476356 3.181938 0
M  V30 8 C 3.074999 1.609356 1.834158 0
M  V30 9 C 2.092651 2.196338 1.032986 0
M  V30 10 N 2.260184 2.348544 -0.393373 0
M  V30 11 C 1.135770 2.723408 -1.213256 0
M  V30 12 C 1.105720 3.899026 -1.945928 0
M  V30 13 C -0.020517 4.135463 -2.683530 0
M  V30 14 N -1.104990 3.337693 -2.768720 0
M  V30 15 C -1.092978 2.191362 -2.064186 0
M  V30 16 C -2.186471 1.354419 -2.138072 0
M  V30 17 C -2.196626 0.170331 -1.431333 0
M  V30 18 C -3.311661 -0.804665 -1.429445 0
M  V30 19 C -4.674082 -0.578153 -1.554592 0
M  V30 20 N -5.297396 -1.782272 -1.489709 0
M  V30 21 N -4.389967 -2.736877 -1.331323 0
M  V30 22 C -4.472184 -4.178432 -1.199377 0
M  V30 23 C -4.401656 -4.833555 -2.553038 0
M  V30 24 N -4.469636 -6.252941 -2.520170 0
M  V30 25 C -3.344138 -6.912409 -1.939492 0
M  V30 26 C -5.042150 -6.900122 -3.648618 0
M  V30 27 C -3.140175 -2.187206 -1.287404 0
M  V30 28 C -1.087090 -0.163512 -0.645342 0
M  V30 29 C -0.019750 0.709397 -0.606694 0
M  V30 30 C 0.012130 1.899300 -1.304140 0
M  V30 31 C 0.944116 2.637497 1.705263 0
M  V30 32 C 0.801887 2.497003 3.068661 0
M  V30 33 N 1.803351 1.918778 3.752284 0
M  V30 34 C 3.760716 0.732613 5.379335 0
M  V30 35 H 4.176815 1.127903 8.074046 0
M  V30 36 H 5.119798 -0.400895 8.264523 0
M  V30 37 H 3.364499 -0.481846 7.802951 0
M  V30 38 H 6.538518 -0.757316 6.447936 0
M  V30 39 H 7.024159 -0.599768 3.988935 0
M  V30 40 H 5.353445 0.432424 2.488234 0
M  V30 41 H 3.937827 1.282627 1.304335 0
M  V30 42 H 3.212733 2.171750 -0.748401 0
M  V30 43 H 1.938230 4.558422 -1.909530 0
M  V30 44 H -0.067862 5.051586 -3.266595 0
M  V30 45 H -3.058754 1.580906 -2.734741 0
M  V30 46 H -5.121274 0.399506 -1.680130 0
M  V30 47 H -5.486923 -4.416608 -0.795593 0
M  V30 48 H -3.769471 -4.585738 -0.474617 0
M  V30 49 H -3.453310 -4.531988 -3.035121 0
M  V30 50 H -5.224967 -4.470363 -3.199917 0
M  V30 51 H -2.488801 -6.189638 -1.944721 0
M  V30 52 H -3.472844 -7.228234 -0.900716 0
M  V30 53 H -3.019897 -7.733484 -2.611565 0
M  V30 54 H -4.197387 -7.394647 -4.202830 0
M  V30 55 H -5.437242 -6.124115 -4.335550 0
M  V30 56 H -5.802295 -7.652909 -3.354784 0
M  V30 57 H -2.162984 -2.634550 -1.171372 0
M  V30 58 H -1.100857 -1.108837 -0.083863 0
M  V30 59 H 0.791562 0.356639 0.019753 0
M  V30 60 H 0.181414 3.097838 1.057331 0
M  V30 61 H -0.108340 2.856296 3.541241 0
M  V30 62 H 2.812380 1.121264 5.773381 0
M  V30 END ATOM
M  V30 BEGIN BOND
M  V30 1 1 1 2
M  V30 2 2 2 3
M  V30 3 1 3 4
M  V30 4 2 4 5
M  V30 5 1 5 6
M  V30 6 1 6 7
M  V30 7 2 7 8
M  V30 8 1 8 9
M  V30 9 1 9 10
M  V30 10 1 10 11
M  V30 11 2 11 12
M  V30 12 1 12 13
M  V30 13 2 13 14
M  V30 14 1 14 15
M  V30 15 2 15 16
M  V30 16 1 16 17
M  V30 17 1 17 18
M  V30 18 1 18 19
M  V30 19 2 19 20
M  V30 20 1 20 21
M  V30 21 1 21 22
M  V30 22 1 22 23
M  V30 23 1 23 24
M  V30 24 1 24 25
M  V30 25 1 24 26
M  V30 26 1 21 27
M  V30 27 2 17 28
M  V30 28 1 28 29
M  V30 29 2 29 30
M  V30 30 2 9 31
M  V30 31 1 31 32
M  V30 32 2 32 33
M  V30 33 2 6 34
M  V30 34 1 34 2
M  V30 35 1 33 7
M  V30 36 1 30 11
M  V30 37 1 30 15
M  V30 38 2 27 18
M  V30 39 1 1 35
M  V30 40 1 1 36
M  V30 41 1 1 37
M  V30 42 1 3 38
M  V30 43 1 4 39
M  V30 44 1 5 40
M  V30 45 1 8 41
M  V30 46 1 10 42
M  V30 47 1 12 43
M  V30 48 1 13 44
M  V30 49 1 16 45
M  V30 50 1 19 46
M  V30 51 1 22 47
M  V30 52 1 22 48
M  V30 53 1 23 49
M  V30 54 1 23 50
M  V30 55 1 25 51
M  V30 56 1 25 52
M  V30 57 1 25 53
M  V30 58 1 26 54
M  V30 59 1 26 55
M  V30 60 1 26 56
M  V30 61 1 27 57
M  V30 62 1 28 58
M  V30 63 1 29 59
M  V30 64 1 31 60
M  V30 65 1 32 61
M  V30 66 1 34 62
M  V30 END BOND
M  V30 END CTAB
M  END
>  <Dataset>  (874) 
ChEMBL_Kinases

>  <Ligand_Instance>  (874) 
nan

>  <PDB_ID>  (874) 
nan

>  <Standardized_SMILES>  (874) 
Cc1cccc(-c2cc(Nc3ccnc4cc(-c5cnn(CCN(C)C)c5)ccc34)ccn2)c1

>  <Name>  (874) 
nan

>  <Pocket>  (874) 
nan

>  <ATP_Site>  (874) 
nan

>  <Peripheral>  (874) 
nan

>  <Num_H_Atoms_ProtBoundConf>  (874) 
nan

>  <Num_Resolved_Atoms>  (874) 
nan

>  <Num_Not_Resolved_Atoms>  (874) 
nan

$$$$
CHEMBL4858250
     RDKit          3D

  0  0  0  0  0  0  0  0  0  0999 V3000
M  V30 BEGIN CTAB
M  V30 COUNTS 41 44 0 0 0
M  V30 BEGIN ATOM
M  V30 1 C 1.325821 -6.685832 1.754202 0
M  V30 2 O 1.742675 -5.744062 0.782843 0
M  V30 3 C 1.791029 -4.414065 1.190844 0
M  V30 4 C 1.440324 -4.089749 2.484324 0
M  V30 5 C 1.490991 -2.762845 2.883395 0
M  V30 6 C 1.884291 -1.772052 2.010550 0
M  V30 7 C 2.240118 -2.065246 0.713466 0
M  V30 8 C 2.674234 -1.128059 -0.316848 0
M  V30 9 N 3.728767 -1.295070 -1.163329 0
M  V30 10 N 3.824191 -0.246626 -1.960864 0
M  V30 11 C 2.847992 0.607238 -1.651264 0
M  V30 12 N 2.474608 1.801651 -2.121086 0
M  V30 13 C 1.435334 2.494473 -1.645260 0
M  V30 14 C 0.635199 2.033345 -0.605011 0
M  V30 15 N -0.452664 2.791966 -0.105976 0
M  V30 16 C -1.613838 2.417585 0.612493 0
M  V30 17 C -2.177532 1.173991 0.659384 0
M  V30 18 C -3.291882 0.829453 1.376071 0
M  V30 19 C -3.900128 1.821688 2.115015 0
M  V30 20 C -3.381048 3.090447 2.107675 0
M  V30 21 O -4.022182 4.060541 2.863937 0
M  V30 22 C -2.258868 3.371181 1.366708 0
M  V30 23 C 1.028922 0.801235 -0.127399 0
M  V30 24 C 2.098125 0.088786 -0.617409 0
M  V30 25 C 2.187588 -3.403478 0.315702 0
M  V30 26 H 1.276265 -7.690117 1.272452 0
M  V30 27 H 0.361091 -6.415147 2.211432 0
M  V30 28 H 2.106506 -6.665419 2.561949 0
M  V30 29 H 1.122566 -4.809783 3.223831 0
M  V30 30 H 1.231666 -2.435940 3.876986 0
M  V30 31 H 1.936015 -0.737965 2.281422 0
M  V30 32 H 4.518184 -0.055969 -2.721681 0
M  V30 33 H 1.181402 3.472909 -2.077295 0
M  V30 34 H -0.352581 3.828430 -0.325739 0
M  V30 35 H -1.745010 0.374730 0.091864 0
M  V30 36 H -3.699026 -0.171877 1.379980 0
M  V30 37 H -4.775500 1.611828 2.695941 0
M  V30 38 H -4.410289 3.781117 3.767075 0
M  V30 39 H -1.921876 4.416139 1.427064 0
M  V30 40 H 0.513136 0.334751 0.674181 0
M  V30 41 H 2.458219 -3.710234 -0.706541 0
M  V30 END ATOM
M  V30 BEGIN BOND
M  V30 1 1 1 2
M  V30 2 1 2 3
M  V30 3 2 3 4
M  V30 4 1 4 5
M  V30 5 2 5 6
M  V30 6 1 6 7
M  V30 7 1 7 8
M  V30 8 2 8 9
M  V30 9 1 9 10
M  V30 10 1 10 11
M  V30 11 2 11 12
M  V30 12 1 12 13
M  V30 13 2 13 14
M  V30 14 1 14 15
M  V30 15 1 15 16
M  V30 16 2 16 17
M  V30 17 1 17 18
M  V30 18 2 18 19
M  V30 19 1 19 20
M  V30 20 1 20 21
M  V30 21 2 20 22
M  V30 22 1 14 23
M  V30 23 2 23 24
M  V30 24 2 7 25
M  V30 25 1 25 3
M  V30 26 1 24 8
M  V30 27 1 24 11
M  V30 28 1 22 16
M  V30 29 1 1 26
M  V30 30 1 1 27
M  V30 31 1 1 28
M  V30 32 1 4 29
M  V30 33 1 5 30
M  V30 34 1 6 31
M  V30 35 1 10 32
M  V30 36 1 13 33
M  V30 37 1 15 34
M  V30 38 1 17 35
M  V30 39 1 18 36
M  V30 40 1 19 37
M  V30 41 1 21 38
M  V30 42 1 22 39
M  V30 43 1 23 40
M  V30 44 1 25 41
M  V30 END BOND
M  V30 END CTAB
M  END
>  <Dataset>  (875) 
ChEMBL_Kinases

>  <Ligand_Instance>  (875) 
nan

>  <PDB_ID>  (875) 
nan

>  <Standardized_SMILES>  (875) 
COc1cccc(-c2n[nH]c3ncc(Nc4cccc(O)c4)cc23)c1

>  <Name>  (875) 
nan

>  <Pocket>  (875) 
nan

>  <ATP_Site>  (875) 
nan

>  <Peripheral>  (875) 
nan

>  <Num_H_Atoms_ProtBoundConf>  (875) 
nan

>  <Num_Resolved_Atoms>  (875) 
nan

>  <Num_Not_Resolved_Atoms>  (875) 
nan

$$$$
CHEMBL4858397
     RDKit          3D

  0  0  0  0  0  0  0  0  0  0999 V3000
M  V30 BEGIN CTAB
M  V30 COUNTS 49 52 0 0 0
M  V30 BEGIN ATOM
M  V30 1 C 0.686320 -1.302064 4.108319 0
M  V30 2 C 1.409397 -2.633285 4.241404 0
M  V30 3 C 1.453477 -3.364597 2.952584 0
M  V30 4 C 0.890164 -2.855552 1.776680 0
M  V30 5 C 1.066939 -3.727981 0.720434 0
M  V30 6 N 0.638330 -3.558960 -0.622905 0
M  V30 7 C -0.041097 -2.353210 -0.976902 0
M  V30 8 N 0.634800 -1.272023 -1.440377 0
M  V30 9 C 0.061526 -0.113171 -1.789475 0
M  V30 10 N 1.001352 0.832354 -2.237282 0
M  V30 11 C 1.941662 1.819956 -1.851347 0
M  V30 12 C 1.413454 2.989770 -1.090524 0
M  V30 13 C 0.762939 2.671193 0.190474 0
M  V30 14 C 1.572530 2.593798 1.301419 0
M  V30 15 C 1.004535 2.304654 2.543924 0
M  V30 16 C -0.363017 2.089322 2.703932 0
M  V30 17 F -0.893941 1.807412 3.931858 0
M  V30 18 C -1.129992 2.174294 1.584227 0
M  V30 19 C -0.576124 2.458785 0.358664 0
M  V30 20 N -1.281255 -0.002739 -1.676575 0
M  V30 21 C -2.040424 -1.019596 -1.226029 0
M  V30 22 C -3.404962 -0.838651 -1.134724 0
M  V30 23 C -4.134658 -1.915106 -0.665632 0
M  V30 24 C -3.549510 -3.115081 -0.303009 0
M  V30 25 C -2.164071 -3.261691 -0.408965 0
M  V30 26 C -1.405124 -2.192049 -0.879095 0
M  V30 27 N 1.737911 -4.759709 1.271011 0
M  V30 28 N 1.955867 -4.544595 2.548962 0
M  V30 29 H 1.207041 -0.659083 3.395696 0
M  V30 30 H 0.620492 -0.805063 5.094956 0
M  V30 31 H -0.347241 -1.451988 3.740466 0
M  V30 32 H 2.402507 -2.510157 4.707477 0
M  V30 33 H 0.796671 -3.243757 4.942654 0
M  V30 34 H 0.376120 -1.911291 1.661323 0
M  V30 35 H 0.847378 -4.342620 -1.296451 0
M  V30 36 H 0.839567 0.623955 -3.249979 0
M  V30 37 H 2.444485 2.205117 -2.786931 0
M  V30 38 H 2.796321 1.410846 -1.257015 0
M  V30 39 H 0.688346 3.543744 -1.760495 0
M  V30 40 H 2.223170 3.743205 -0.871015 0
M  V30 41 H 2.645051 2.751600 1.243370 0
M  V30 42 H 1.672505 2.249836 3.410072 0
M  V30 43 H -2.212723 2.015329 1.647357 0
M  V30 44 H -1.162248 2.536678 -0.551021 0
M  V30 45 H -3.919511 0.070265 -1.400851 0
M  V30 46 H -5.210982 -1.912766 -0.542975 0
M  V30 47 H -4.126260 -3.963111 0.065799 0
M  V30 48 H -1.690263 -4.203186 -0.126851 0
M  V30 49 H 2.455442 -5.166485 3.248962 0
M  V30 END ATOM
M  V30 BEGIN BOND
M  V30 1 1 1 2
M  V30 2 1 2 3
M  V30 3 2 3 4
M  V30 4 1 4 5
M  V30 5 1 5 6
M  V30 6 1 6 7
M  V30 7 2 7 8
M  V30 8 1 8 9
M  V30 9 1 9 10
M  V30 10 1 10 11
M  V30 11 1 11 12
M  V30 12 1 12 13
M  V30 13 2 13 14
M  V30 14 1 14 15
M  V30 15 2 15 16
M  V30 16 1 16 17
M  V30 17 1 16 18
M  V30 18 2 18 19
M  V30 19 2 9 20
M  V30 20 1 20 21
M  V30 21 2 21 22
M  V30 22 1 22 23
M  V30 23 2 23 24
M  V30 24 1 24 25
M  V30 25 2 25 26
M  V30 26 2 5 27
M  V30 27 1 27 28
M  V30 28 1 28 3
M  V30 29 1 26 7
M  V30 30 1 19 13
M  V30 31 1 26 21
M  V30 32 1 1 29
M  V30 33 1 1 30
M  V30 34 1 1 31
M  V30 35 1 2 32
M  V30 36 1 2 33
M  V30 37 1 4 34
M  V30 38 1 6 35
M  V30 39 1 10 36
M  V30 40 1 11 37
M  V30 41 1 11 38
M  V30 42 1 12 39
M  V30 43 1 12 40
M  V30 44 1 14 41
M  V30 45 1 15 42
M  V30 46 1 18 43
M  V30 47 1 19 44
M  V30 48 1 22 45
M  V30 49 1 23 46
M  V30 50 1 24 47
M  V30 51 1 25 48
M  V30 52 1 28 49
M  V30 END BOND
M  V30 END CTAB
M  END
>  <Dataset>  (876) 
ChEMBL_Kinases

>  <Ligand_Instance>  (876) 
nan

>  <PDB_ID>  (876) 
nan

>  <Standardized_SMILES>  (876) 
CCc1cc(Nc2nc(NCCc3ccc(F)cc3)nc3ccccc23)n[nH]1

>  <Name>  (876) 
nan

>  <Pocket>  (876) 
nan

>  <ATP_Site>  (876) 
nan

>  <Peripheral>  (876) 
nan

>  <Num_H_Atoms_ProtBoundConf>  (876) 
nan

>  <Num_Resolved_Atoms>  (876) 
nan

>  <Num_Not_Resolved_Atoms>  (876) 
nan

$$$$
CHEMBL4858407
     RDKit          3D

  0  0  0  0  0  0  0  0  0  0999 V3000
M  V30 BEGIN CTAB
M  V30 COUNTS 49 52 0 0 0
M  V30 BEGIN ATOM
M  V30 1 C 1.840111 -5.444645 3.702451 0
M  V30 2 O 2.054558 -4.719795 2.530807 0
M  V30 3 C 2.798504 -3.557310 2.463875 0
M  V30 4 C 3.427048 -2.966224 3.563146 0
M  V30 5 C 4.155473 -1.801939 3.420913 0
M  V30 6 C 4.279587 -1.189400 2.172985 0
M  V30 7 C 3.645928 -1.790465 1.080139 0
M  V30 8 C 3.761345 -1.152202 -0.280996 0
M  V30 9 N 2.638244 -0.214870 -0.417465 0
M  V30 10 C 2.946872 1.103534 0.043774 0
M  V30 11 C 1.929634 2.138360 -0.280292 0
M  V30 12 O 0.652780 1.918236 0.286686 0
M  V30 13 C -0.262779 0.954374 -0.117115 0
M  V30 14 C -1.619383 1.221697 0.061110 0
M  V30 15 C -2.537296 0.271660 -0.336419 0
M  V30 16 C -3.954121 0.578498 -0.137422 0
M  V30 17 C -4.805489 -0.483771 0.109749 0
M  V30 18 C -6.169422 -0.388132 0.321758 0
M  V30 19 N -6.674073 0.878654 0.274169 0
M  V30 20 C -5.874831 1.936000 0.035992 0
M  V30 21 N -6.479846 3.238734 0.001113 0
M  V30 22 C -4.520398 1.832550 -0.173690 0
M  V30 23 C -2.154192 -0.927524 -0.901485 0
M  V30 24 C -0.824527 -1.241788 -1.100051 0
M  V30 25 C 0.083207 -0.274899 -0.694411 0
M  V30 26 C 1.441909 -0.789930 -0.985442 0
M  V30 27 O 1.615603 -1.754019 -1.742457 0
M  V30 28 C 2.907976 -2.967996 1.218113 0
M  V30 29 H 2.782178 -5.932537 4.018512 0
M  V30 30 H 1.403947 -4.841688 4.523788 0
M  V30 31 H 1.086505 -6.241698 3.444399 0
M  V30 32 H 3.307839 -3.476211 4.530077 0
M  V30 33 H 4.624549 -1.379772 4.297366 0
M  V30 34 H 4.853782 -0.272232 2.061173 0
M  V30 35 H 4.721059 -0.606358 -0.333092 0
M  V30 36 H 3.665405 -1.946942 -1.029730 0
M  V30 37 H 3.149539 1.170632 1.130922 0
M  V30 38 H 3.887411 1.410655 -0.450759 0
M  V30 39 H 2.300164 3.107762 0.113299 0
M  V30 40 H 1.850655 2.267055 -1.385394 0
M  V30 41 H -1.838142 2.177364 0.508037 0
M  V30 42 H -4.409799 -1.489461 0.148279 0
M  V30 43 H -6.772737 -1.264538 0.509454 0
M  V30 44 H -6.352562 4.086762 0.620496 0
M  V30 45 H -7.158516 3.285883 -0.809309 0
M  V30 46 H -3.861710 2.656789 -0.365121 0
M  V30 47 H -2.895520 -1.666967 -1.209835 0
M  V30 48 H -0.485881 -2.160385 -1.534741 0
M  V30 49 H 2.432313 -3.398953 0.338243 0
M  V30 END ATOM
M  V30 BEGIN BOND
M  V30 1 1 1 2
M  V30 2 1 2 3
M  V30 3 2 3 4
M  V30 4 1 4 5
M  V30 5 2 5 6
M  V30 6 1 6 7
M  V30 7 1 7 8
M  V30 8 1 8 9
M  V30 9 1 9 10
M  V30 10 1 10 11
M  V30 11 1 11 12
M  V30 12 1 12 13
M  V30 13 2 13 14
M  V30 14 1 14 15
M  V30 15 1 15 16
M  V30 16 2 16 17
M  V30 17 1 17 18
M  V30 18 2 18 19
M  V30 19 1 19 20
M  V30 20 1 20 21
M  V30 21 2 20 22
M  V30 22 2 15 23
M  V30 23 1 23 24
M  V30 24 2 24 25
M  V30 25 1 25 26
M  V30 26 2 26 27
M  V30 27 2 7 28
M  V30 28 1 28 3
M  V30 29 1 26 9
M  V30 30 1 25 13
M  V30 31 1 22 16
M  V30 32 1 1 29
M  V30 33 1 1 30
M  V30 34 1 1 31
M  V30 35 1 4 32
M  V30 36 1 5 33
M  V30 37 1 6 34
M  V30 38 1 8 35
M  V30 39 1 8 36
M  V30 40 1 10 37
M  V30 41 1 10 38
M  V30 42 1 11 39
M  V30 43 1 11 40
M  V30 44 1 14 41
M  V30 45 1 17 42
M  V30 46 1 18 43
M  V30 47 1 21 44
M  V30 48 1 21 45
M  V30 49 1 22 46
M  V30 50 1 23 47
M  V30 51 1 24 48
M  V30 52 1 28 49
M  V30 END BOND
M  V30 END CTAB
M  END
>  <Dataset>  (877) 
ChEMBL_Kinases

>  <Ligand_Instance>  (877) 
nan

>  <PDB_ID>  (877) 
nan

>  <Standardized_SMILES>  (877) 
COc1cccc(CN2CCOc3cc(-c4ccnc(N)c4)ccc3C2=O)c1

>  <Name>  (877) 
nan

>  <Pocket>  (877) 
nan

>  <ATP_Site>  (877) 
nan

>  <Peripheral>  (877) 
nan

>  <Num_H_Atoms_ProtBoundConf>  (877) 
nan

>  <Num_Resolved_Atoms>  (877) 
nan

>  <Num_Not_Resolved_Atoms>  (877) 
nan

$$$$
CHEMBL4850955
     RDKit          3D

  0  0  0  0  0  0  0  0  0  0999 V3000
M  V30 BEGIN CTAB
M  V30 COUNTS 40 43 0 0 0
M  V30 BEGIN ATOM
M  V30 1 C 1.336192 -5.977657 2.109355 0
M  V30 2 O 1.505404 -4.969763 3.057946 0
M  V30 3 C 1.639220 -3.622902 2.817110 0
M  V30 4 C 1.795798 -2.824026 3.936542 0
M  V30 5 C 1.935014 -1.450418 3.735997 0
M  V30 6 C 1.926495 -0.831519 2.480914 0
M  V30 7 C 2.085058 0.618517 2.447291 0
M  V30 8 N 2.995567 1.330294 3.157731 0
M  V30 9 N 2.847618 2.629684 2.874875 0
M  V30 10 C 1.846176 2.764704 1.984896 0
M  V30 11 N 1.269698 3.802938 1.359133 0
M  V30 12 C 0.259344 3.675614 0.492329 0
M  V30 13 C -0.294753 2.455962 0.152688 0
M  V30 14 N -1.375271 2.333805 -0.754710 0
M  V30 15 C -1.833419 1.253917 -1.546304 0
M  V30 16 C -1.098036 0.161833 -1.944826 0
M  V30 17 C -1.571838 -0.887132 -2.700914 0
M  V30 18 C -2.888730 -0.831043 -3.085688 0
M  V30 19 C -3.668366 0.228916 -2.720342 0
M  V30 20 C -3.146349 1.246954 -1.966587 0
M  V30 21 C 0.306158 1.398201 0.802757 0
M  V30 22 C 1.347007 1.511497 1.697546 0
M  V30 23 C 1.767449 -1.673831 1.398955 0
M  V30 24 C 1.627731 -3.034813 1.568743 0
M  V30 25 H 0.353139 -6.498319 2.158069 0
M  V30 26 H 1.533679 -5.679442 1.075968 0
M  V30 27 H 2.089909 -6.778246 2.365527 0
M  V30 28 H 1.815436 -3.207881 4.949455 0
M  V30 29 H 2.057024 -0.840224 4.630330 0
M  V30 30 H 3.395045 3.432603 3.257661 0
M  V30 31 H -0.127846 4.599501 0.045342 0
M  V30 32 H -1.923411 3.232163 -0.835380 0
M  V30 33 H -0.062476 0.099282 -1.666657 0
M  V30 34 H -0.932054 -1.715023 -2.976516 0
M  V30 35 H -3.322874 -1.620013 -3.678993 0
M  V30 36 H -4.696502 0.242855 -3.038219 0
M  V30 37 H -3.828742 2.050987 -1.718314 0
M  V30 38 H -0.026096 0.389946 0.647312 0
M  V30 39 H 1.761644 -1.192696 0.429970 0
M  V30 40 H 1.504437 -3.673668 0.704835 0
M  V30 END ATOM
M  V30 BEGIN BOND
M  V30 1 1 1 2
M  V30 2 1 2 3
M  V30 3 2 3 4
M  V30 4 1 4 5
M  V30 5 2 5 6
M  V30 6 1 6 7
M  V30 7 2 7 8
M  V30 8 1 8 9
M  V30 9 1 9 10
M  V30 10 2 10 11
M  V30 11 1 11 12
M  V30 12 2 12 13
M  V30 13 1 13 14
M  V30 14 1 14 15
M  V30 15 2 15 16
M  V30 16 1 16 17
M  V30 17 2 17 18
M  V30 18 1 18 19
M  V30 19 2 19 20
M  V30 20 1 13 21
M  V30 21 2 21 22
M  V30 22 1 6 23
M  V30 23 2 23 24
M  V30 24 1 24 3
M  V30 25 1 22 7
M  V30 26 1 22 10
M  V30 27 1 20 15
M  V30 28 1 1 25
M  V30 29 1 1 26
M  V30 30 1 1 27
M  V30 31 1 4 28
M  V30 32 1 5 29
M  V30 33 1 9 30
M  V30 34 1 12 31
M  V30 35 1 14 32
M  V30 36 1 16 33
M  V30 37 1 17 34
M  V30 38 1 18 35
M  V30 39 1 19 36
M  V30 40 1 20 37
M  V30 41 1 21 38
M  V30 42 1 23 39
M  V30 43 1 24 40
M  V30 END BOND
M  V30 END CTAB
M  END
>  <Dataset>  (878) 
ChEMBL_Kinases

>  <Ligand_Instance>  (878) 
nan

>  <PDB_ID>  (878) 
nan

>  <Standardized_SMILES>  (878) 
COc1ccc(-c2n[nH]c3ncc(Nc4ccccc4)cc23)cc1

>  <Name>  (878) 
nan

>  <Pocket>  (878) 
nan

>  <ATP_Site>  (878) 
nan

>  <Peripheral>  (878) 
nan

>  <Num_H_Atoms_ProtBoundConf>  (878) 
nan

>  <Num_Resolved_Atoms>  (878) 
nan

>  <Num_Not_Resolved_Atoms>  (878) 
nan

$$$$
CHEMBL4858785
     RDKit          3D

  0  0  0  0  0  0  0  0  0  0999 V3000
M  V30 BEGIN CTAB
M  V30 COUNTS 41 44 0 0 0
M  V30 BEGIN ATOM
M  V30 1 C 1.271486 -6.439348 2.500625 0
M  V30 2 O 1.582691 -5.084547 2.767829 0
M  V30 3 C 1.673539 -4.194636 1.705224 0
M  V30 4 C 1.984405 -2.916399 2.145466 0
M  V30 5 C 2.126223 -1.860038 1.254573 0
M  V30 6 C 1.955073 -2.083371 -0.096116 0
M  V30 7 C 2.068275 -1.088205 -1.157666 0
M  V30 8 N 2.725310 -1.251513 -2.338396 0
M  V30 9 N 2.618554 -0.137622 -3.058428 0
M  V30 10 C 1.889581 0.769779 -2.357434 0
M  V30 11 N 1.492070 2.017136 -2.606230 0
M  V30 12 C 0.760933 2.728606 -1.737092 0
M  V30 13 C 0.365432 2.208929 -0.508857 0
M  V30 14 N -0.392329 3.011002 0.373866 0
M  V30 15 C -1.260021 2.695401 1.449934 0
M  V30 16 C -1.554415 3.598623 2.448977 0
M  V30 17 C -2.407124 3.292258 3.478721 0
M  V30 18 C -3.021556 2.064406 3.578313 0
M  V30 19 C -2.756470 1.129194 2.600454 0
M  V30 20 O -3.371539 -0.111072 2.692987 0
M  V30 21 C -1.893822 1.479638 1.584190 0
M  V30 22 C 0.794837 0.916834 -0.285307 0
M  V30 23 C 1.537741 0.185737 -1.162032 0
M  V30 24 C 1.644999 -3.362659 -0.525295 0
M  V30 25 C 1.503967 -4.410121 0.353631 0
M  V30 26 H 2.159426 -7.060909 2.277398 0
M  V30 27 H 0.529603 -6.527823 1.680362 0
M  V30 28 H 0.781097 -6.865500 3.416611 0
M  V30 29 H 2.143323 -2.610277 3.171804 0
M  V30 30 H 2.367231 -0.841858 1.533188 0
M  V30 31 H 2.996199 0.093991 -4.010028 0
M  V30 32 H 0.457894 3.756408 -1.991096 0
M  V30 33 H -0.310510 4.048780 0.219262 0
M  V30 34 H -1.098534 4.581893 2.421103 0
M  V30 35 H -2.600027 4.054672 4.242207 0
M  V30 36 H -3.681702 1.885843 4.413234 0
M  V30 37 H -3.073028 -0.825251 2.034088 0
M  V30 38 H -1.760401 0.685206 0.864062 0
M  V30 39 H 0.547736 0.441354 0.635337 0
M  V30 40 H 1.490887 -3.635105 -1.576975 0
M  V30 41 H 1.265803 -5.435487 0.122586 0
M  V30 END ATOM
M  V30 BEGIN BOND
M  V30 1 1 1 2
M  V30 2 1 2 3
M  V30 3 2 3 4
M  V30 4 1 4 5
M  V30 5 2 5 6
M  V30 6 1 6 7
M  V30 7 2 7 8
M  V30 8 1 8 9
M  V30 9 1 9 10
M  V30 10 2 10 11
M  V30 11 1 11 12
M  V30 12 2 12 13
M  V30 13 1 13 14
M  V30 14 1 14 15
M  V30 15 2 15 16
M  V30 16 1 16 17
M  V30 17 2 17 18
M  V30 18 1 18 19
M  V30 19 1 19 20
M  V30 20 2 19 21
M  V30 21 1 13 22
M  V30 22 2 22 23
M  V30 23 1 6 24
M  V30 24 2 24 25
M  V30 25 1 25 3
M  V30 26 1 23 7
M  V30 27 1 23 10
M  V30 28 1 21 15
M  V30 29 1 1 26
M  V30 30 1 1 27
M  V30 31 1 1 28
M  V30 32 1 4 29
M  V30 33 1 5 30
M  V30 34 1 9 31
M  V30 35 1 12 32
M  V30 36 1 14 33
M  V30 37 1 16 34
M  V30 38 1 17 35
M  V30 39 1 18 36
M  V30 40 1 20 37
M  V30 41 1 21 38
M  V30 42 1 22 39
M  V30 43 1 24 40
M  V30 44 1 25 41
M  V30 END BOND
M  V30 END CTAB
M  END
>  <Dataset>  (879) 
ChEMBL_Kinases

>  <Ligand_Instance>  (879) 
nan

>  <PDB_ID>  (879) 
nan

>  <Standardized_SMILES>  (879) 
COc1ccc(-c2n[nH]c3ncc(Nc4cccc(O)c4)cc23)cc1

>  <Name>  (879) 
nan

>  <Pocket>  (879) 
nan

>  <ATP_Site>  (879) 
nan

>  <Peripheral>  (879) 
nan

>  <Num_H_Atoms_ProtBoundConf>  (879) 
nan

>  <Num_Resolved_Atoms>  (879) 
nan

>  <Num_Not_Resolved_Atoms>  (879) 
nan

$$$$
CHEMBL4858914
     RDKit          3D

  0  0  0  0  0  0  0  0  0  0999 V3000
M  V30 BEGIN CTAB
M  V30 COUNTS 52 54 0 0 0
M  V30 BEGIN ATOM
M  V30 1 N 2.656784 -3.601396 4.585303 0
M  V30 2 C 2.466418 -2.915787 3.671218 0
M  V30 3 C 2.251880 -2.070478 2.526447 0
M  V30 4 C 3.276938 -1.221926 2.222185 0
M  V30 5 N 3.074464 -0.421992 1.140203 0
M  V30 6 C 1.911029 -0.502036 0.441826 0
M  V30 7 N 1.827525 0.399154 -0.645927 0
M  V30 8 C 1.514403 1.621532 -1.340058 0
M  V30 9 C 2.178069 2.746411 -0.605312 0
M  V30 10 C 3.422540 3.070670 -1.100522 0
M  V30 11 C 4.116606 4.074022 -0.441335 0
M  V30 12 C 3.594709 4.720454 0.656874 0
M  V30 13 C 2.341624 4.311999 1.060936 0
M  V30 14 C 1.557285 3.311556 0.466372 0
M  V30 15 C 0.212474 3.005937 0.966409 0
M  V30 16 F -0.028615 1.737585 1.360006 0
M  V30 17 F -0.006953 3.814306 2.088190 0
M  V30 18 F -0.769605 3.442477 0.053536 0
M  V30 19 C 0.897104 -1.372956 0.779645 0
M  V30 20 C 1.054597 -2.198480 1.862416 0
M  V30 21 N 0.053150 -3.115463 2.271049 0
M  V30 22 C -1.251228 -3.437010 1.760999 0 CFG=1
M  V30 23 C -2.119739 -2.202885 1.739341 0
M  V30 24 C -2.896080 -2.077514 0.455110 0
M  V30 25 C -3.540523 -3.417791 0.158143 0 CFG=1
M  V30 26 C -4.491867 -3.334293 -0.967480 0
M  V30 27 N -5.592269 -2.419744 -0.820121 0
M  V30 28 O -4.507721 -3.951598 -2.084871 0
M  V30 29 C -2.478504 -4.421755 -0.185528 0
M  V30 30 C -1.135697 -4.124297 0.436326 0
M  V30 31 H 4.186148 -1.187103 2.798485 0
M  V30 32 H 2.266795 -0.299670 -1.330203 0
M  V30 33 H 0.404378 1.769463 -1.337754 0
M  V30 34 H 1.815398 1.586442 -2.388914 0
M  V30 35 H 3.872201 2.592481 -1.958103 0
M  V30 36 H 5.112906 4.418431 -0.742394 0
M  V30 37 H 4.095391 5.505915 1.202280 0
M  V30 38 H 1.918082 4.825943 1.939742 0
M  V30 39 H 0.031262 -1.339011 0.154104 0
M  V30 40 H 0.333575 -3.669035 3.123752 0
M  V30 41 H -1.701309 -4.208469 2.448055 0
M  V30 42 H -2.841143 -2.297123 2.595272 0
M  V30 43 H -1.538048 -1.291597 1.920970 0
M  V30 44 H -2.244334 -1.814484 -0.387986 0
M  V30 45 H -3.665295 -1.290853 0.615315 0
M  V30 46 H -4.046509 -3.776480 1.087912 0
M  V30 47 H -5.608230 -1.466200 -1.280992 0
M  V30 48 H -6.364251 -2.801982 -0.213583 0
M  V30 49 H -2.754667 -5.463817 0.138062 0
M  V30 50 H -2.391594 -4.464025 -1.294169 0
M  V30 51 H -0.592129 -5.091085 0.643951 0
M  V30 52 H -0.513086 -3.582986 -0.261492 0
M  V30 END ATOM
M  V30 BEGIN BOND
M  V30 1 3 1 2
M  V30 2 1 2 3
M  V30 3 2 3 4
M  V30 4 1 4 5
M  V30 5 2 5 6
M  V30 6 1 6 7
M  V30 7 1 7 8
M  V30 8 1 8 9
M  V30 9 2 9 10
M  V30 10 1 10 11
M  V30 11 2 11 12
M  V30 12 1 12 13
M  V30 13 2 13 14
M  V30 14 1 14 15
M  V30 15 1 15 16
M  V30 16 1 15 17
M  V30 17 1 15 18
M  V30 18 1 6 19
M  V30 19 2 19 20
M  V30 20 1 20 21
M  V30 21 1 21 22
M  V30 22 1 22 23
M  V30 23 1 23 24
M  V30 24 1 24 25
M  V30 25 1 25 26
M  V30 26 1 26 27
M  V30 27 2 26 28
M  V30 28 1 25 29
M  V30 29 1 29 30
M  V30 30 1 20 3
M  V30 31 1 30 22
M  V30 32 1 14 9
M  V30 33 1 4 31
M  V30 34 1 7 32
M  V30 35 1 8 33
M  V30 36 1 8 34
M  V30 37 1 10 35
M  V30 38 1 11 36
M  V30 39 1 12 37
M  V30 40 1 13 38
M  V30 41 1 19 39
M  V30 42 1 21 40
M  V30 43 1 22 41 CFG=1
M  V30 44 1 23 42
M  V30 45 1 23 43
M  V30 46 1 24 44
M  V30 47 1 24 45
M  V30 48 1 25 46 CFG=1
M  V30 49 1 27 47
M  V30 50 1 27 48
M  V30 51 1 29 49
M  V30 52 1 29 50
M  V30 53 1 30 51
M  V30 54 1 30 52
M  V30 END BOND
M  V30 END CTAB
M  END
>  <Dataset>  (880) 
ChEMBL_Kinases

>  <Ligand_Instance>  (880) 
nan

>  <PDB_ID>  (880) 
nan

>  <Standardized_SMILES>  (880) 
N#Cc1cnc(NCc2ccccc2C(F)(F)F)cc1N[C@H]1CC[C@@H](C(N)=O)CC1

>  <Name>  (880) 
nan

>  <Pocket>  (880) 
nan

>  <ATP_Site>  (880) 
nan

>  <Peripheral>  (880) 
nan

>  <Num_H_Atoms_ProtBoundConf>  (880) 
nan

>  <Num_Resolved_Atoms>  (880) 
nan

>  <Num_Not_Resolved_Atoms>  (880) 
nan

$$$$
CHEMBL4859091
     RDKit          3D

  0  0  0  0  0  0  0  0  0  0999 V3000
M  V30 BEGIN CTAB
M  V30 COUNTS 47 49 0 0 0
M  V30 BEGIN ATOM
M  V30 1 C 0.666590 0.143134 3.874536 0
M  V30 2 C 1.109535 -0.937019 2.954427 0
M  V30 3 C -0.018547 -1.545356 2.152866 0
M  V30 4 C 1.887830 -2.017287 3.730323 0 CFG=1
M  V30 5 O 1.739295 -3.223291 3.061051 0
M  V30 6 C 3.145064 -1.256790 3.378539 0
M  V30 7 C 2.402441 -0.690515 2.197411 0 CFG=1
M  V30 8 N 2.558710 -1.474083 1.016053 0
M  V30 9 C 1.894628 -1.380602 -0.239387 0
M  V30 10 N 0.989221 -0.445453 -0.578429 0
M  V30 11 C 0.383580 -0.407189 -1.777563 0
M  V30 12 N -0.544276 0.576994 -2.183704 0
M  V30 13 C -1.075340 1.768486 -1.592042 0
M  V30 14 C -1.811894 1.549618 -0.341887 0
M  V30 15 C -1.247935 1.922423 0.858279 0
M  V30 16 N -1.815096 1.802349 2.048421 0
M  V30 17 C -3.038763 1.281828 2.158779 0
M  V30 18 C -3.664536 0.885220 0.990315 0
M  V30 19 C -3.063505 1.014334 -0.253848 0
M  V30 20 C -3.773250 0.570165 -1.465721 0
M  V30 21 F -3.940203 1.618318 -2.371789 0
M  V30 22 F -5.073242 0.199981 -1.119927 0
M  V30 23 F -3.192388 -0.535106 -2.032624 0
M  V30 24 N 0.701216 -1.351468 -2.674362 0
M  V30 25 C 1.575517 -2.307132 -2.432662 0
M  V30 26 C 2.180201 -2.325069 -1.204889 0
M  V30 27 C 3.128055 -3.378366 -0.970570 0
M  V30 28 N 3.880322 -4.235507 -0.775617 0
M  V30 29 H 1.189284 1.113573 3.666121 0
M  V30 30 H 0.962284 -0.112227 4.911284 0
M  V30 31 H -0.439481 0.268480 3.914035 0
M  V30 32 H 0.331919 -2.280978 1.423764 0
M  V30 33 H -0.719272 -2.058569 2.861707 0
M  V30 34 H -0.597391 -0.726503 1.705739 0
M  V30 35 H 1.684785 -2.036925 4.812667 0
M  V30 36 H 2.475988 -3.846242 3.149947 0
M  V30 37 H 3.408302 -0.500298 4.144381 0
M  V30 38 H 4.022522 -1.874825 3.073822 0
M  V30 39 H 2.565243 0.408026 2.040774 0
M  V30 40 H 3.291074 -2.244969 1.097390 0
M  V30 41 H -0.978166 0.452686 -3.148106 0
M  V30 42 H -0.189391 2.429349 -1.383268 0
M  V30 43 H -1.686196 2.361136 -2.327275 0
M  V30 44 H -0.249730 2.354954 0.843714 0
M  V30 45 H -3.600968 1.135807 3.079671 0
M  V30 46 H -4.672179 0.452785 1.043448 0
M  V30 47 H 1.808227 -3.062147 -3.194196 0
M  V30 END ATOM
M  V30 BEGIN BOND
M  V30 1 1 1 2
M  V30 2 1 2 3
M  V30 3 1 2 4
M  V30 4 1 4 5
M  V30 5 1 4 6
M  V30 6 1 6 7
M  V30 7 1 7 8
M  V30 8 1 8 9
M  V30 9 2 9 10
M  V30 10 1 10 11
M  V30 11 1 11 12
M  V30 12 1 12 13
M  V30 13 1 13 14
M  V30 14 2 14 15
M  V30 15 1 15 16
M  V30 16 2 16 17
M  V30 17 1 17 18
M  V30 18 2 18 19
M  V30 19 1 19 20
M  V30 20 1 20 21
M  V30 21 1 20 22
M  V30 22 1 20 23
M  V30 23 2 11 24
M  V30 24 1 24 25
M  V30 25 2 25 26
M  V30 26 1 26 27
M  V30 27 3 27 28
M  V30 28 1 7 2
M  V30 29 1 26 9
M  V30 30 1 19 14
M  V30 31 1 1 29
M  V30 32 1 1 30
M  V30 33 1 1 31
M  V30 34 1 3 32
M  V30 35 1 3 33
M  V30 36 1 3 34
M  V30 37 1 4 35 CFG=1
M  V30 38 1 5 36
M  V30 39 1 6 37
M  V30 40 1 6 38
M  V30 41 1 7 39 CFG=3
M  V30 42 1 8 40
M  V30 43 1 12 41
M  V30 44 1 13 42
M  V30 45 1 13 43
M  V30 46 1 15 44
M  V30 47 1 17 45
M  V30 48 1 18 46
M  V30 49 1 25 47
M  V30 END BOND
M  V30 END CTAB
M  END
>  <Dataset>  (881) 
ChEMBL_Kinases

>  <Ligand_Instance>  (881) 
nan

>  <PDB_ID>  (881) 
nan

>  <Standardized_SMILES>  (881) 
CC1(C)[C@@H](O)C[C@H]1Nc1nc(NCc2cnccc2C(F)(F)F)ncc1C#N

>  <Name>  (881) 
nan

>  <Pocket>  (881) 
nan

>  <ATP_Site>  (881) 
nan

>  <Peripheral>  (881) 
nan

>  <Num_H_Atoms_ProtBoundConf>  (881) 
nan

>  <Num_Resolved_Atoms>  (881) 
nan

>  <Num_Not_Resolved_Atoms>  (881) 
nan

$$$$
CHEMBL4859423
     RDKit          3D

  0  0  0  0  0  0  0  0  0  0999 V3000
M  V30 BEGIN CTAB
M  V30 COUNTS 50 53 0 0 0
M  V30 BEGIN ATOM
M  V30 1 C 0.125803 -1.355087 2.784776 0
M  V30 2 O 1.448578 -1.468972 2.304509 0
M  V30 3 C 2.560534 -1.546301 3.117005 0
M  V30 4 C 2.522203 -1.523059 4.494810 0
M  V30 5 C 3.642281 -1.601688 5.290290 0
M  V30 6 C 4.858427 -1.708963 4.654177 0
M  V30 7 C 4.899222 -1.732394 3.276260 0
M  V30 8 C 3.768044 -1.653185 2.456383 0
M  V30 9 C 3.992207 -1.685448 1.017173 0
M  V30 10 C 3.387465 -1.011484 0.040049 0
M  V30 11 N 2.332556 -0.042541 0.048160 0
M  V30 12 C 1.054199 -0.054396 -0.576818 0
M  V30 13 C 0.259383 1.056096 -0.384054 0
M  V30 14 C -0.970275 1.041646 -0.991262 0
M  V30 15 C -1.464990 0.023992 -1.763555 0
M  V30 16 O -2.608376 -0.229347 -2.456456 0
M  V30 17 C -3.766960 0.522476 -2.615284 0
M  V30 18 C -4.512554 0.828110 -1.378860 0
M  V30 19 C -4.537873 1.896394 -0.512824 0
M  V30 20 C -5.350174 1.883695 0.599651 0
M  V30 21 C -6.173509 0.822084 0.910604 0
M  V30 22 C -6.165464 -0.254151 0.061399 0
M  V30 23 C -5.348502 -0.254883 -1.067625 0
M  V30 24 C -0.620608 -1.083905 -1.930450 0
M  V30 25 Cl -0.949627 -2.558474 -2.861047 0
M  V30 26 C 0.648780 -1.128970 -1.335351 0
M  V30 27 C 3.979020 -1.399484 -1.251381 0
M  V30 28 O 3.719113 -1.018220 -2.423838 0
M  V30 29 N 4.994649 -2.363150 -1.009298 0
M  V30 30 C 5.004759 -2.542400 0.398619 0
M  V30 31 O 5.790197 -3.335542 0.983856 0
M  V30 32 H -0.498395 -0.732856 2.100267 0
M  V30 33 H -0.356042 -2.360081 2.808017 0
M  V30 34 H 0.051825 -0.868928 3.775854 0
M  V30 35 H 1.573131 -1.439929 4.996536 0
M  V30 36 H 3.613866 -1.584004 6.353528 0
M  V30 37 H 5.806637 -1.777348 5.204763 0
M  V30 38 H 5.885310 -1.818381 2.806521 0
M  V30 39 H 2.672134 0.737132 0.629278 0
M  V30 40 H 0.490432 1.941559 0.190851 0
M  V30 41 H -1.683631 1.845161 -0.925175 0
M  V30 42 H -4.434500 0.118441 -3.407945 0
M  V30 43 H -3.422956 1.534435 -2.998976 0
M  V30 44 H -3.876219 2.669283 -0.841056 0
M  V30 45 H -5.298222 2.766459 1.214960 0
M  V30 46 H -6.800425 0.846859 1.795729 0
M  V30 47 H -6.822179 -1.060710 0.340579 0
M  V30 48 H -5.473581 -1.196183 -1.627816 0
M  V30 49 H 1.349990 -1.943142 -1.416369 0
M  V30 50 H 5.605841 -2.841651 -1.709900 0
M  V30 END ATOM
M  V30 BEGIN BOND
M  V30 1 1 1 2
M  V30 2 1 2 3
M  V30 3 2 3 4
M  V30 4 1 4 5
M  V30 5 2 5 6
M  V30 6 1 6 7
M  V30 7 2 7 8
M  V30 8 1 8 9
M  V30 9 2 9 10
M  V30 10 1 10 11
M  V30 11 1 11 12
M  V30 12 2 12 13
M  V30 13 1 13 14
M  V30 14 2 14 15
M  V30 15 1 15 16
M  V30 16 1 16 17
M  V30 17 1 17 18
M  V30 18 2 18 19
M  V30 19 1 19 20
M  V30 20 2 20 21
M  V30 21 1 21 22
M  V30 22 2 22 23
M  V30 23 1 15 24
M  V30 24 1 24 25
M  V30 25 2 24 26
M  V30 26 1 10 27
M  V30 27 2 27 28
M  V30 28 1 27 29
M  V30 29 1 29 30
M  V30 30 2 30 31
M  V30 31 1 8 3
M  V30 32 1 30 9
M  V30 33 1 26 12
M  V30 34 1 23 18
M  V30 35 1 1 32
M  V30 36 1 1 33
M  V30 37 1 1 34
M  V30 38 1 4 35
M  V30 39 1 5 36
M  V30 40 1 6 37
M  V30 41 1 7 38
M  V30 42 1 11 39
M  V30 43 1 13 40
M  V30 44 1 14 41
M  V30 45 1 17 42
M  V30 46 1 17 43
M  V30 47 1 19 44
M  V30 48 1 20 45
M  V30 49 1 21 46
M  V30 50 1 22 47
M  V30 51 1 23 48
M  V30 52 1 26 49
M  V30 53 1 29 50
M  V30 END BOND
M  V30 END CTAB
M  END
>  <Dataset>  (882) 
ChEMBL_Kinases

>  <Ligand_Instance>  (882) 
nan

>  <PDB_ID>  (882) 
nan

>  <Standardized_SMILES>  (882) 
COc1ccccc1C1=C(Nc2ccc(OCc3ccccc3)c(Cl)c2)C(=O)NC1=O

>  <Name>  (882) 
nan

>  <Pocket>  (882) 
nan

>  <ATP_Site>  (882) 
nan

>  <Peripheral>  (882) 
nan

>  <Num_H_Atoms_ProtBoundConf>  (882) 
nan

>  <Num_Resolved_Atoms>  (882) 
nan

>  <Num_Not_Resolved_Atoms>  (882) 
nan

$$$$
CHEMBL1483261
     RDKit          3D

  0  0  0  0  0  0  0  0  0  0999 V3000
M  V30 BEGIN CTAB
M  V30 COUNTS 42 46 0 0 0
M  V30 BEGIN ATOM
M  V30 1 C 3.139598 -3.531532 2.009894 0
M  V30 2 C 4.100724 -2.594003 1.716650 0
M  V30 3 C 3.828577 -1.781465 0.636671 0
M  V30 4 C 2.665067 -1.870327 -0.136489 0
M  V30 5 C 2.504567 -0.976428 -1.269666 0
M  V30 6 C 3.594478 -1.088695 -2.215541 0
M  V30 7 S 3.132358 0.059336 -3.547761 0
M  V30 8 C 1.632425 0.588972 -2.834581 0
M  V30 9 N 0.697801 1.458504 -3.234418 0
M  V30 10 C -0.399347 1.722530 -2.508326 0
M  V30 11 N -0.491350 1.053420 -1.353766 0
M  V30 12 C 0.423554 0.176349 -0.921319 0
M  V30 13 N 0.016436 -0.299534 0.355518 0
M  V30 14 C 0.793795 0.066203 1.554990 0
M  V30 15 C 0.064367 1.135857 2.338996 0
M  V30 16 C -1.373952 0.748276 2.463458 0
M  V30 17 C -2.195586 1.437387 3.330328 0
M  V30 18 C -3.546010 1.094190 3.465059 0
M  V30 19 C -4.074788 0.039287 2.713160 0
M  V30 20 C -3.234062 -0.641067 1.847768 0
M  V30 21 C -1.891866 -0.295535 1.717713 0
M  V30 22 C -1.095430 -1.120419 0.740569 0
M  V30 23 C 1.546391 -0.095449 -1.666556 0
M  V30 24 C 1.779468 -2.857605 0.266569 0
M  V30 25 C 1.960605 -3.705277 1.316315 0
M  V30 26 H 3.347794 -4.176219 2.861420 0
M  V30 27 H 5.010841 -2.495298 2.290002 0
M  V30 28 H 4.549894 -1.020103 0.354061 0
M  V30 29 H 4.490668 -1.664051 -2.232210 0
M  V30 30 H -1.089012 2.440528 -2.925180 0
M  V30 31 H 1.007956 -0.826163 2.158391 0
M  V30 32 H 1.748704 0.512100 1.215238 0
M  V30 33 H 0.067968 2.085823 1.788132 0
M  V30 34 H 0.542338 1.179442 3.342077 0
M  V30 35 H -1.824103 2.254851 3.924954 0
M  V30 36 H -4.226487 1.615063 4.139576 0
M  V30 37 H -5.129784 -0.226322 2.820214 0
M  V30 38 H -3.677457 -1.446465 1.286754 0
M  V30 39 H -0.873786 -2.108227 1.120793 0
M  V30 40 H -1.770151 -1.255093 -0.146694 0
M  V30 41 H 0.879114 -2.934281 -0.327947 0
M  V30 42 H 1.232578 -4.451106 1.576898 0
M  V30 END ATOM
M  V30 BEGIN BOND
M  V30 1 2 1 2
M  V30 2 1 2 3
M  V30 3 2 3 4
M  V30 4 1 4 5
M  V30 5 2 5 6
M  V30 6 1 6 7
M  V30 7 1 7 8
M  V30 8 2 8 9
M  V30 9 1 9 10
M  V30 10 2 10 11
M  V30 11 1 11 12
M  V30 12 1 12 13
M  V30 13 1 13 14
M  V30 14 1 14 15
M  V30 15 1 15 16
M  V30 16 2 16 17
M  V30 17 1 17 18
M  V30 18 2 18 19
M  V30 19 1 19 20
M  V30 20 2 20 21
M  V30 21 1 21 22
M  V30 22 2 12 23
M  V30 23 1 4 24
M  V30 24 2 24 25
M  V30 25 1 25 1
M  V30 26 1 23 5
M  V30 27 1 23 8
M  V30 28 1 22 13
M  V30 29 1 21 16
M  V30 30 1 1 26
M  V30 31 1 2 27
M  V30 32 1 3 28
M  V30 33 1 6 29
M  V30 34 1 10 30
M  V30 35 1 14 31
M  V30 36 1 14 32
M  V30 37 1 15 33
M  V30 38 1 15 34
M  V30 39 1 17 35
M  V30 40 1 18 36
M  V30 41 1 19 37
M  V30 42 1 20 38
M  V30 43 1 22 39
M  V30 44 1 22 40
M  V30 45 1 24 41
M  V30 46 1 25 42
M  V30 END BOND
M  V30 END CTAB
M  END
>  <Dataset>  (883) 
ChEMBL_Kinases

>  <Ligand_Instance>  (883) 
nan

>  <PDB_ID>  (883) 
nan

>  <Standardized_SMILES>  (883) 
c1ccc(-c2csc3ncnc(N4CCc5ccccc5C4)c23)cc1

>  <Name>  (883) 
nan

>  <Pocket>  (883) 
nan

>  <ATP_Site>  (883) 
nan

>  <Peripheral>  (883) 
nan

>  <Num_H_Atoms_ProtBoundConf>  (883) 
nan

>  <Num_Resolved_Atoms>  (883) 
nan

>  <Num_Not_Resolved_Atoms>  (883) 
nan

$$$$
CHEMBL4866102
     RDKit          3D

  0  0  0  0  0  0  0  0  0  0999 V3000
M  V30 BEGIN CTAB
M  V30 COUNTS 44 48 0 0 0
M  V30 BEGIN ATOM
M  V30 1 C 4.764659 -5.650881 2.738647 0
M  V30 2 C 3.379718 -5.657583 2.608372 0
M  V30 3 C 2.758243 -4.522767 2.128510 0
M  V30 4 C 3.433496 -3.373497 1.767596 0
M  V30 5 C 2.586405 -2.258143 1.273324 0
M  V30 6 O 2.383661 -2.285985 -0.123555 0
M  V30 7 C 1.584417 -1.243842 -0.633315 0
M  V30 8 C 1.365498 -1.240655 -1.997820 0
M  V30 9 C 0.593704 -0.266829 -2.631090 0
M  V30 10 C 0.046691 0.718156 -1.800715 0
M  V30 11 C 0.247818 0.740804 -0.436069 0
M  V30 12 C -0.322268 1.766249 0.425138 0
M  V30 13 N 0.552636 2.550724 1.080544 0
M  V30 14 C -0.166348 3.436331 1.825001 0
M  V30 15 S -0.085639 4.819907 2.984865 0
M  V30 16 C -1.978940 4.948382 3.097696 0
M  V30 17 C -2.399043 3.924906 2.240677 0
M  V30 18 N -1.454359 3.227262 1.653176 0
M  V30 19 C -1.578128 2.196339 0.789135 0
M  V30 20 C -2.687367 1.462456 0.176784 0
M  V30 21 C -3.644491 2.034490 -0.654002 0
M  V30 22 C -4.655029 1.228141 -1.177405 0
M  V30 23 N -4.715796 -0.100771 -0.887698 0
M  V30 24 C -3.773998 -0.608466 -0.084057 0
M  V30 25 N -2.785454 0.139919 0.438084 0
M  V30 26 C 1.020711 -0.250312 0.129112 0
M  V30 27 C 4.812127 -3.387599 1.904976 0
M  V30 28 C 5.441374 -4.521748 2.385333 0
M  V30 29 H 5.320840 -6.515515 3.112187 0
M  V30 30 H 2.860508 -6.561586 2.893426 0
M  V30 31 H 1.668533 -4.637831 2.066686 0
M  V30 32 H 3.099246 -1.316236 1.596475 0
M  V30 33 H 1.622455 -2.257615 1.840860 0
M  V30 34 H 1.759059 -1.975413 -2.708590 0
M  V30 35 H 0.412684 -0.250234 -3.698801 0
M  V30 36 H -0.563500 1.493089 -2.279430 0
M  V30 37 H -2.399576 5.721939 3.747480 0
M  V30 38 H -3.475138 3.930826 2.248518 0
M  V30 39 H -3.557626 3.086411 -0.855478 0
M  V30 40 H -5.401325 1.666850 -1.823356 0
M  V30 41 H -3.720277 -1.664996 0.219567 0
M  V30 42 H 1.209060 -0.273829 1.212878 0
M  V30 43 H 5.304425 -2.462614 1.609616 0
M  V30 44 H 6.534219 -4.479055 2.474309 0
M  V30 END ATOM
M  V30 BEGIN BOND
M  V30 1 2 1 2
M  V30 2 1 2 3
M  V30 3 2 3 4
M  V30 4 1 4 5
M  V30 5 1 5 6
M  V30 6 1 6 7
M  V30 7 2 7 8
M  V30 8 1 8 9
M  V30 9 2 9 10
M  V30 10 1 10 11
M  V30 11 1 11 12
M  V30 12 1 12 13
M  V30 13 2 13 14
M  V30 14 1 14 15
M  V30 15 1 15 16
M  V30 16 2 16 17
M  V30 17 1 17 18
M  V30 18 1 18 19
M  V30 19 1 19 20
M  V30 20 2 20 21
M  V30 21 1 21 22
M  V30 22 2 22 23
M  V30 23 1 23 24
M  V30 24 2 24 25
M  V30 25 2 11 26
M  V30 26 1 4 27
M  V30 27 2 27 28
M  V30 28 1 28 1
M  V30 29 1 26 7
M  V30 30 2 19 12
M  V30 31 1 25 20
M  V30 32 1 18 14
M  V30 33 1 1 29
M  V30 34 1 2 30
M  V30 35 1 3 31
M  V30 36 1 5 32
M  V30 37 1 5 33
M  V30 38 1 8 34
M  V30 39 1 9 35
M  V30 40 1 10 36
M  V30 41 1 16 37
M  V30 42 1 17 38
M  V30 43 1 21 39
M  V30 44 1 22 40
M  V30 45 1 24 41
M  V30 46 1 26 42
M  V30 47 1 27 43
M  V30 48 1 28 44
M  V30 END BOND
M  V30 END CTAB
M  END
>  <Dataset>  (884) 
ChEMBL_Kinases

>  <Ligand_Instance>  (884) 
nan

>  <PDB_ID>  (884) 
nan

>  <Standardized_SMILES>  (884) 
c1ccc(COc2cccc(-c3nc4sccn4c3-c3ccncn3)c2)cc1

>  <Name>  (884) 
nan

>  <Pocket>  (884) 
nan

>  <ATP_Site>  (884) 
nan

>  <Peripheral>  (884) 
nan

>  <Num_H_Atoms_ProtBoundConf>  (884) 
nan

>  <Num_Resolved_Atoms>  (884) 
nan

>  <Num_Not_Resolved_Atoms>  (884) 
nan

$$$$
CHEMBL150261
     RDKit          3D

  0  0  0  0  0  0  0  0  0  0999 V3000
M  V30 BEGIN CTAB
M  V30 COUNTS 61 65 0 0 0
M  V30 BEGIN ATOM
M  V30 1 N -2.132850 -1.437981 5.300148 0
M  V30 2 C -1.088029 -1.309988 4.301328 0 CFG=1
M  V30 3 C -0.354962 -0.014688 4.438543 0
M  V30 4 C 0.580938 0.152691 3.249352 0
M  V30 5 C 1.199644 -1.168582 2.869413 0 CFG=2
M  V30 6 N 0.527562 -1.779806 1.742881 0
M  V30 7 C 0.448261 -1.275842 0.411799 0
M  V30 8 N 1.032483 -0.125661 0.035239 0
M  V30 9 C 0.974020 0.360751 -1.199638 0
M  V30 10 N 1.570449 1.556129 -1.677727 0
M  V30 11 C 2.360006 2.528808 -0.964353 0
M  V30 12 C 1.615485 3.210000 0.133082 0
M  V30 13 C 0.911185 4.361410 -0.244670 0
M  V30 14 C 0.176771 5.109892 0.657088 0
M  V30 15 C 0.151667 4.689432 1.966000 0
M  V30 16 C 0.826469 3.575494 2.358931 0
M  V30 17 C 1.557692 2.832234 1.455656 0
M  V30 18 C 0.242944 -0.431793 -2.093849 0
M  V30 19 N -0.052142 -0.296467 -3.416636 0
M  V30 20 C -0.783866 -1.313931 -3.837690 0
M  V30 21 N -0.969194 -2.122954 -2.779344 0
M  V30 22 C -1.714323 -3.369371 -2.763570 0
M  V30 23 C -0.943444 -4.499647 -2.119177 0
M  V30 24 C -1.656552 -5.719409 -2.703043 0
M  V30 25 C -2.267749 -5.275151 -4.011682 0
M  V30 26 C -1.788061 -3.866481 -4.192312 0
M  V30 27 C -0.357147 -1.605348 -1.722563 0
M  V30 28 N -0.245711 -2.011448 -0.472923 0
M  V30 29 C 1.270550 -2.105077 4.041594 0
M  V30 30 C -0.124379 -2.462581 4.470781 0
M  V30 31 H -2.347937 -2.448349 5.478826 0
M  V30 32 H -1.756282 -1.027584 6.186807 0
M  V30 33 H -1.546869 -1.356373 3.280320 0
M  V30 34 H 0.266814 -0.039796 5.357316 0
M  V30 35 H -1.004290 0.861948 4.476503 0
M  V30 36 H 1.382221 0.847987 3.594277 0
M  V30 37 H 0.022920 0.518084 2.374508 0
M  V30 38 H 2.273820 -0.959849 2.587778 0
M  V30 39 H 0.057649 -2.693533 1.971026 0
M  V30 40 H 1.413466 1.768400 -2.712241 0
M  V30 41 H 2.719973 3.290083 -1.675792 0
M  V30 42 H 3.284026 2.040056 -0.573102 0
M  V30 43 H 0.917912 4.711022 -1.274337 0
M  V30 44 H -0.353240 5.996117 0.316194 0
M  V30 45 H -0.414870 5.249276 2.711742 0
M  V30 46 H 0.858855 3.178238 3.363198 0
M  V30 47 H 2.150269 1.928312 1.595127 0
M  V30 48 H -1.179625 -1.504294 -4.826014 0
M  V30 49 H -2.707376 -3.273245 -2.309434 0
M  V30 50 H 0.093433 -4.530808 -2.464288 0
M  V30 51 H -1.076749 -4.562267 -1.041600 0
M  V30 52 H -0.964811 -6.562971 -2.837813 0
M  V30 53 H -2.494873 -6.057629 -2.064827 0
M  V30 54 H -3.371924 -5.276897 -3.999627 0
M  V30 55 H -1.964038 -5.934651 -4.862103 0
M  V30 56 H -0.742613 -3.903200 -4.572335 0
M  V30 57 H -2.468582 -3.250958 -4.812431 0
M  V30 58 H 1.822938 -1.674017 4.898871 0
M  V30 59 H 1.754299 -3.036222 3.661749 0
M  V30 60 H -0.156912 -2.834160 5.531478 0
M  V30 61 H -0.463133 -3.307970 3.842997 0
M  V30 END ATOM
M  V30 BEGIN BOND
M  V30 1 1 1 2
M  V30 2 1 2 3
M  V30 3 1 3 4
M  V30 4 1 4 5
M  V30 5 1 5 6
M  V30 6 1 6 7
M  V30 7 2 7 8
M  V30 8 1 8 9
M  V30 9 1 9 10
M  V30 10 1 10 11
M  V30 11 1 11 12
M  V30 12 2 12 13
M  V30 13 1 13 14
M  V30 14 2 14 15
M  V30 15 1 15 16
M  V30 16 2 16 17
M  V30 17 2 9 18
M  V30 18 1 18 19
M  V30 19 2 19 20
M  V30 20 1 20 21
M  V30 21 1 21 22
M  V30 22 1 22 23
M  V30 23 1 23 24
M  V30 24 1 24 25
M  V30 25 1 25 26
M  V30 26 1 21 27
M  V30 27 2 27 28
M  V30 28 1 5 29
M  V30 29 1 29 30
M  V30 30 1 30 2
M  V30 31 1 28 7
M  V30 32 1 17 12
M  V30 33 1 27 18
M  V30 34 1 26 22
M  V30 35 1 1 31
M  V30 36 1 1 32
M  V30 37 1 2 33 CFG=3
M  V30 38 1 3 34
M  V30 39 1 3 35
M  V30 40 1 4 36
M  V30 41 1 4 37
M  V30 42 1 5 38 CFG=3
M  V30 43 1 6 39
M  V30 44 1 10 40
M  V30 45 1 11 41
M  V30 46 1 11 42
M  V30 47 1 13 43
M  V30 48 1 14 44
M  V30 49 1 15 45
M  V30 50 1 16 46
M  V30 51 1 17 47
M  V30 52 1 20 48
M  V30 53 1 22 49
M  V30 54 1 23 50
M  V30 55 1 23 51
M  V30 56 1 24 52
M  V30 57 1 24 53
M  V30 58 1 25 54
M  V30 59 1 25 55
M  V30 60 1 26 56
M  V30 61 1 26 57
M  V30 62 1 29 58
M  V30 63 1 29 59
M  V30 64 1 30 60
M  V30 65 1 30 61
M  V30 END BOND
M  V30 END CTAB
M  END
>  <Dataset>  (885) 
ChEMBL_Kinases

>  <Ligand_Instance>  (885) 
nan

>  <PDB_ID>  (885) 
nan

>  <Standardized_SMILES>  (885) 
N[C@H]1CC[C@H](Nc2nc(NCc3ccccc3)c3ncn(C4CCCC4)c3n2)CC1

>  <Name>  (885) 
nan

>  <Pocket>  (885) 
nan

>  <ATP_Site>  (885) 
nan

>  <Peripheral>  (885) 
nan

>  <Num_H_Atoms_ProtBoundConf>  (885) 
nan

>  <Num_Resolved_Atoms>  (885) 
nan

>  <Num_Not_Resolved_Atoms>  (885) 
nan

$$$$
CHEMBL4865721
     RDKit          3D

  0  0  0  0  0  0  0  0  0  0999 V3000
M  V30 BEGIN CTAB
M  V30 COUNTS 51 53 0 0 0
M  V30 BEGIN ATOM
M  V30 1 N 2.939110 -2.794947 4.377346 0
M  V30 2 C 2.603997 -2.247181 3.412740 0
M  V30 3 C 2.184523 -1.560536 2.206968 0
M  V30 4 C 2.903501 -0.495304 1.732918 0
M  V30 5 N 2.538551 0.159478 0.618340 0
M  V30 6 C 1.445293 -0.232031 -0.053091 0
M  V30 7 N 1.186932 0.527876 -1.207542 0
M  V30 8 C 0.640211 1.787242 -1.673075 0
M  V30 9 C 1.520058 2.840051 -1.073299 0
M  V30 10 C 2.469023 3.410404 -1.903858 0
M  V30 11 N 3.307421 4.343723 -1.431273 0
M  V30 12 C 3.203374 4.710913 -0.133113 0
M  V30 13 N 2.280325 4.154202 0.668813 0
M  V30 14 C 1.410845 3.212988 0.254006 0
M  V30 15 O 0.430859 2.576246 0.967951 0
M  V30 16 C 0.117387 2.772218 2.316093 0
M  V30 17 C -1.044212 1.896640 2.744285 0
M  V30 18 F -2.175964 2.180124 2.001716 0
M  V30 19 F -0.759048 0.567111 2.618987 0
M  V30 20 C 0.755675 -1.284564 0.437736 0
M  V30 21 C 1.032456 -2.026040 1.560741 0
M  V30 22 N 0.272790 -3.127222 1.987717 0
M  V30 23 C -0.925498 -3.800882 1.589191 0 CFG=1
M  V30 24 C -2.173592 -3.014683 1.775319 0
M  V30 25 C -2.871069 -2.708049 0.499222 0
M  V30 26 C -3.115106 -3.897795 -0.387028 0 CFG=1
M  V30 27 O -2.885235 -3.464131 -1.710220 0
M  V30 28 C -2.196194 -5.054332 -0.090106 0
M  V30 29 C -0.832434 -4.438619 0.214486 0
M  V30 30 H 3.770968 -0.221285 2.310067 0
M  V30 31 H 1.563502 -0.160115 -1.913031 0
M  V30 32 H 0.671119 1.849720 -2.762287 0
M  V30 33 H -0.386923 1.976451 -1.343417 0
M  V30 34 H 2.531102 3.098209 -2.941535 0
M  V30 35 H 3.877086 5.458660 0.242437 0
M  V30 36 H 0.982202 2.579736 2.993170 0
M  V30 37 H -0.170295 3.831335 2.463274 0
M  V30 38 H -1.303156 2.080036 3.804089 0
M  V30 39 H -0.088876 -1.492495 -0.194248 0
M  V30 40 H 0.726815 -3.549942 2.839316 0
M  V30 41 H -1.037531 -4.706704 2.278256 0
M  V30 42 H -1.995723 -2.048477 2.299267 0
M  V30 43 H -2.933179 -3.569370 2.413665 0
M  V30 44 H -3.898741 -2.303485 0.726946 0
M  V30 45 H -2.363072 -1.877733 -0.056705 0
M  V30 46 H -4.178559 -4.235038 -0.386023 0
M  V30 47 H -2.521726 -2.541118 -1.727530 0
M  V30 48 H -2.048633 -5.610046 -1.054951 0
M  V30 49 H -2.555132 -5.690666 0.726031 0
M  V30 50 H -0.058916 -5.224458 0.287205 0
M  V30 51 H -0.598608 -3.762820 -0.601307 0
M  V30 END ATOM
M  V30 BEGIN BOND
M  V30 1 3 1 2
M  V30 2 1 2 3
M  V30 3 2 3 4
M  V30 4 1 4 5
M  V30 5 2 5 6
M  V30 6 1 6 7
M  V30 7 1 7 8
M  V30 8 1 8 9
M  V30 9 2 9 10
M  V30 10 1 10 11
M  V30 11 2 11 12
M  V30 12 1 12 13
M  V30 13 2 13 14
M  V30 14 1 14 15
M  V30 15 1 15 16
M  V30 16 1 16 17
M  V30 17 1 17 18
M  V30 18 1 17 19
M  V30 19 1 6 20
M  V30 20 2 20 21
M  V30 21 1 21 22
M  V30 22 1 22 23
M  V30 23 1 23 24
M  V30 24 1 24 25
M  V30 25 1 25 26
M  V30 26 1 26 27
M  V30 27 1 26 28
M  V30 28 1 28 29
M  V30 29 1 21 3
M  V30 30 1 29 23
M  V30 31 1 14 9
M  V30 32 1 4 30
M  V30 33 1 7 31
M  V30 34 1 8 32
M  V30 35 1 8 33
M  V30 36 1 10 34
M  V30 37 1 12 35
M  V30 38 1 16 36
M  V30 39 1 16 37
M  V30 40 1 17 38
M  V30 41 1 20 39
M  V30 42 1 22 40
M  V30 43 1 23 41 CFG=1
M  V30 44 1 24 42
M  V30 45 1 24 43
M  V30 46 1 25 44
M  V30 47 1 25 45
M  V30 48 1 26 46 CFG=3
M  V30 49 1 27 47
M  V30 50 1 28 48
M  V30 51 1 28 49
M  V30 52 1 29 50
M  V30 53 1 29 51
M  V30 END BOND
M  V30 END CTAB
M  END
>  <Dataset>  (886) 
ChEMBL_Kinases

>  <Ligand_Instance>  (886) 
nan

>  <PDB_ID>  (886) 
nan

>  <Standardized_SMILES>  (886) 
N#Cc1cnc(NCc2cncnc2OCC(F)F)cc1N[C@H]1CC[C@@H](O)CC1

>  <Name>  (886) 
nan

>  <Pocket>  (886) 
nan

>  <ATP_Site>  (886) 
nan

>  <Peripheral>  (886) 
nan

>  <Num_H_Atoms_ProtBoundConf>  (886) 
nan

>  <Num_Resolved_Atoms>  (886) 
nan

>  <Num_Not_Resolved_Atoms>  (886) 
nan

$$$$
CHEMBL4865593
     RDKit          3D

  0  0  0  0  0  0  0  0  0  0999 V3000
M  V30 BEGIN CTAB
M  V30 COUNTS 51 55 0 0 0
M  V30 BEGIN ATOM
M  V30 1 C 3.794463 0.149163 6.450222 0
M  V30 2 O 3.613803 -1.194966 6.091068 0
M  V30 3 C 3.556927 -1.665507 4.776408 0
M  V30 4 C 3.372125 -3.030346 4.666168 0
M  V30 5 C 3.306838 -3.561901 3.375731 0
M  V30 6 C 3.423762 -2.744733 2.270613 0
M  V30 7 C 3.608004 -1.383602 2.390936 0
M  V30 8 C 3.742055 -0.442256 1.233889 0
M  V30 9 N 2.438765 0.063607 0.830030 0
M  V30 10 C 1.982421 1.272831 1.462873 0
M  V30 11 C 1.010280 2.078798 0.654859 0
M  V30 12 O -0.236909 1.458326 0.449355 0
M  V30 13 C -0.511145 0.281186 -0.236786 0
M  V30 14 C -1.836069 0.222148 -0.619710 0
M  V30 15 C -2.288081 -0.881694 -1.314922 0
M  V30 16 C -3.649817 -1.101833 -1.791780 0
M  V30 17 C -4.158950 -2.382251 -1.553843 0
M  V30 18 C -5.450799 -2.706772 -1.965662 0
M  V30 19 N -6.227952 -1.783558 -2.601807 0
M  V30 20 C -5.737089 -0.540731 -2.834118 0
M  V30 21 N -6.250565 0.550284 -3.421592 0
M  V30 22 C -5.340967 1.555309 -3.401384 0
M  V30 23 C -4.182567 1.094588 -2.770994 0
M  V30 24 C -4.467347 -0.203779 -2.435596 0
M  V30 25 C -1.365859 -1.885271 -1.592620 0
M  V30 26 C -0.033786 -1.822038 -1.205605 0
M  V30 27 C 0.401728 -0.717519 -0.514431 0
M  V30 28 C 1.828888 -0.772455 -0.163653 0
M  V30 29 O 2.499388 -1.620233 -0.805758 0
M  V30 30 C 3.673120 -0.853919 3.665990 0
M  V30 31 H 3.146550 0.854890 5.927677 0
M  V30 32 H 4.874631 0.393867 6.354708 0
M  V30 33 H 3.587418 0.207268 7.550481 0
M  V30 34 H 3.278138 -3.688205 5.525381 0
M  V30 35 H 3.163956 -4.618250 3.265988 0
M  V30 36 H 3.372272 -3.162463 1.297084 0
M  V30 37 H 4.256496 -0.981491 0.412555 0
M  V30 38 H 4.445022 0.349807 1.554399 0
M  V30 39 H 2.876132 1.927086 1.594004 0
M  V30 40 H 1.621755 1.074386 2.485661 0
M  V30 41 H 0.828060 3.012472 1.206196 0
M  V30 42 H 1.480471 2.263828 -0.321817 0
M  V30 43 H -2.548623 0.980981 -0.413644 0
M  V30 44 H -3.685611 -3.213235 -1.073114 0
M  V30 45 H -5.944962 -3.645475 -1.840309 0
M  V30 46 H -7.201733 0.657570 -3.845062 0
M  V30 47 H -5.406906 2.571167 -3.781033 0
M  V30 48 H -3.285407 1.645224 -2.598077 0
M  V30 49 H -1.614853 -2.792527 -2.131446 0
M  V30 50 H 0.673456 -2.607095 -1.426588 0
M  V30 51 H 3.816777 0.212610 3.893737 0
M  V30 END ATOM
M  V30 BEGIN BOND
M  V30 1 1 1 2
M  V30 2 1 2 3
M  V30 3 2 3 4
M  V30 4 1 4 5
M  V30 5 2 5 6
M  V30 6 1 6 7
M  V30 7 1 7 8
M  V30 8 1 8 9
M  V30 9 1 9 10
M  V30 10 1 10 11
M  V30 11 1 11 12
M  V30 12 1 12 13
M  V30 13 2 13 14
M  V30 14 1 14 15
M  V30 15 1 15 16
M  V30 16 2 16 17
M  V30 17 1 17 18
M  V30 18 2 18 19
M  V30 19 1 19 20
M  V30 20 1 20 21
M  V30 21 1 21 22
M  V30 22 2 22 23
M  V30 23 1 23 24
M  V30 24 2 15 25
M  V30 25 1 25 26
M  V30 26 2 26 27
M  V30 27 1 27 28
M  V30 28 2 28 29
M  V30 29 2 7 30
M  V30 30 1 30 3
M  V30 31 1 28 9
M  V30 32 1 27 13
M  V30 33 1 24 16
M  V30 34 2 24 20
M  V30 35 1 1 31
M  V30 36 1 1 32
M  V30 37 1 1 33
M  V30 38 1 4 34
M  V30 39 1 5 35
M  V30 40 1 6 36
M  V30 41 1 8 37
M  V30 42 1 8 38
M  V30 43 1 10 39
M  V30 44 1 10 40
M  V30 45 1 11 41
M  V30 46 1 11 42
M  V30 47 1 14 43
M  V30 48 1 17 44
M  V30 49 1 18 45
M  V30 50 1 21 46
M  V30 51 1 22 47
M  V30 52 1 23 48
M  V30 53 1 25 49
M  V30 54 1 26 50
M  V30 55 1 30 51
M  V30 END BOND
M  V30 END CTAB
M  END
>  <Dataset>  (887) 
ChEMBL_Kinases

>  <Ligand_Instance>  (887) 
nan

>  <PDB_ID>  (887) 
nan

>  <Standardized_SMILES>  (887) 
COc1cccc(CN2CCOc3cc(-c4ccnc5[nH]ccc45)ccc3C2=O)c1

>  <Name>  (887) 
nan

>  <Pocket>  (887) 
nan

>  <ATP_Site>  (887) 
nan

>  <Peripheral>  (887) 
nan

>  <Num_H_Atoms_ProtBoundConf>  (887) 
nan

>  <Num_Resolved_Atoms>  (887) 
nan

>  <Num_Not_Resolved_Atoms>  (887) 
nan

$$$$
CHEMBL4858601
     RDKit          3D

  0  0  0  0  0  0  0  0  0  0999 V3000
M  V30 BEGIN CTAB
M  V30 COUNTS 53 55 0 0 0
M  V30 BEGIN ATOM
M  V30 1 C 1.130619 -0.212730 4.077929 0
M  V30 2 C 2.546405 0.008969 4.437596 0
M  V30 3 C 2.748082 1.247229 5.312403 0
M  V30 4 F 2.724111 -0.989302 5.436769 0
M  V30 5 C 3.608011 -0.194216 3.484366 0
M  V30 6 N 4.638526 -1.035973 3.764328 0
M  V30 7 C 5.703799 -1.247836 3.006835 0
M  V30 8 N 5.862762 -0.617600 1.840699 0
M  V30 9 C 4.908817 0.239346 1.453913 0
M  V30 10 C 3.787726 0.450780 2.266390 0
M  V30 11 C 2.767055 1.327799 1.716735 0
M  V30 12 N 1.810543 0.725840 0.827980 0
M  V30 13 C 1.023457 -0.397978 0.490010 0
M  V30 14 C -0.011385 -0.604446 -0.394811 0
M  V30 15 C -0.534150 -1.863342 -0.493477 0
M  V30 16 N -1.599890 -2.024382 -1.409713 0
M  V30 17 C -2.394261 -1.282850 -2.340430 0 CFG=1
M  V30 18 C -3.426288 -2.143848 -3.053459 0
M  V30 19 C -4.789926 -2.027405 -2.395478 0
M  V30 20 C -5.365280 -0.636043 -2.601145 0 CFG=1
M  V30 21 O -6.169542 -0.310626 -1.523300 0
M  V30 22 C -4.201636 0.322589 -2.713298 0
M  V30 23 C -3.070317 -0.069910 -1.758034 0
M  V30 24 C -0.043211 -2.892383 0.265922 0
M  V30 25 C -0.617642 -4.219567 0.143674 0
M  V30 26 N -1.069367 -5.291368 0.030091 0
M  V30 27 C 0.983032 -2.695575 1.145873 0
M  V30 28 N 1.436113 -1.457957 1.186560 0
M  V30 29 H 0.664725 0.446512 3.354280 0
M  V30 30 H 0.458478 -0.090459 4.991056 0
M  V30 31 H 0.994430 -1.316851 3.878922 0
M  V30 32 H 3.770877 1.153406 5.731802 0
M  V30 33 H 2.055965 1.145396 6.193913 0
M  V30 34 H 2.495734 2.188421 4.850043 0
M  V30 35 H 6.428445 -1.950296 3.385274 0
M  V30 36 H 5.029744 0.752750 0.511534 0
M  V30 37 H 2.274329 1.978006 2.480689 0
M  V30 38 H 3.296800 2.118004 1.097890 0
M  V30 39 H 1.533284 1.399974 0.043588 0
M  V30 40 H -0.271869 0.307944 -0.909338 0
M  V30 41 H -1.929032 -3.025444 -1.419977 0
M  V30 42 H -1.690290 -0.898532 -3.130917 0
M  V30 43 H -3.516957 -1.816585 -4.098771 0
M  V30 44 H -3.163909 -3.217760 -2.999013 0
M  V30 45 H -4.716918 -2.304045 -1.315859 0
M  V30 46 H -5.461874 -2.747013 -2.892203 0
M  V30 47 H -5.954437 -0.567684 -3.537726 0
M  V30 48 H -6.211873 0.682483 -1.353838 0
M  V30 49 H -3.761236 0.294999 -3.725511 0
M  V30 50 H -4.495187 1.356018 -2.444114 0
M  V30 51 H -3.546370 -0.271143 -0.784132 0
M  V30 52 H -2.403099 0.813998 -1.754108 0
M  V30 53 H 1.320143 -3.553296 1.709192 0
M  V30 END ATOM
M  V30 BEGIN BOND
M  V30 1 1 1 2
M  V30 2 1 2 3
M  V30 3 1 2 4
M  V30 4 1 2 5
M  V30 5 2 5 6
M  V30 6 1 6 7
M  V30 7 2 7 8
M  V30 8 1 8 9
M  V30 9 2 9 10
M  V30 10 1 10 11
M  V30 11 1 11 12
M  V30 12 1 12 13
M  V30 13 2 13 14
M  V30 14 1 14 15
M  V30 15 1 15 16
M  V30 16 1 16 17
M  V30 17 1 17 18
M  V30 18 1 18 19
M  V30 19 1 19 20
M  V30 20 1 20 21
M  V30 21 1 20 22
M  V30 22 1 22 23
M  V30 23 2 15 24
M  V30 24 1 24 25
M  V30 25 3 25 26
M  V30 26 1 24 27
M  V30 27 2 27 28
M  V30 28 1 10 5
M  V30 29 1 28 13
M  V30 30 1 23 17
M  V30 31 1 1 29
M  V30 32 1 1 30
M  V30 33 1 1 31
M  V30 34 1 3 32
M  V30 35 1 3 33
M  V30 36 1 3 34
M  V30 37 1 7 35
M  V30 38 1 9 36
M  V30 39 1 11 37
M  V30 40 1 11 38
M  V30 41 1 12 39
M  V30 42 1 14 40
M  V30 43 1 16 41
M  V30 44 1 17 42 CFG=3
M  V30 45 1 18 43
M  V30 46 1 18 44
M  V30 47 1 19 45
M  V30 48 1 19 46
M  V30 49 1 20 47 CFG=3
M  V30 50 1 21 48
M  V30 51 1 22 49
M  V30 52 1 22 50
M  V30 53 1 23 51
M  V30 54 1 23 52
M  V30 55 1 27 53
M  V30 END BOND
M  V30 END CTAB
M  END
>  <Dataset>  (888) 
ChEMBL_Kinases

>  <Ligand_Instance>  (888) 
nan

>  <PDB_ID>  (888) 
nan

>  <Standardized_SMILES>  (888) 
CC(C)(F)c1ncncc1CNc1cc(N[C@H]2CC[C@@H](O)CC2)c(C#N)cn1

>  <Name>  (888) 
nan

>  <Pocket>  (888) 
nan

>  <ATP_Site>  (888) 
nan

>  <Peripheral>  (888) 
nan

>  <Num_H_Atoms_ProtBoundConf>  (888) 
nan

>  <Num_Resolved_Atoms>  (888) 
nan

>  <Num_Not_Resolved_Atoms>  (888) 
nan

$$$$
CHEMBL151546
     RDKit          3D

  0  0  0  0  0  0  0  0  0  0999 V3000
M  V30 BEGIN CTAB
M  V30 COUNTS 32 35 0 0 0
M  V30 BEGIN ATOM
M  V30 1 N 0.351608 -3.199716 4.709865 0
M  V30 2 C 1.020957 -2.581377 3.602944 0
M  V30 3 O 1.536755 -1.442150 3.807891 0
M  V30 4 N 1.172335 -3.117418 2.273696 0
M  V30 5 C 1.910209 -2.178361 1.464329 0
M  V30 6 C 3.293262 -2.239089 1.393995 0
M  V30 7 C 4.025649 -1.363222 0.635280 0
M  V30 8 C 3.289837 -0.414252 -0.055632 0
M  V30 9 C 1.906894 -0.330198 -0.003847 0
M  V30 10 C 1.199111 -1.223881 0.766916 0
M  V30 11 C -0.215262 -0.896464 0.628024 0
M  V30 12 O -1.179934 -1.484465 1.177932 0
M  V30 13 C -0.264908 0.245434 -0.275021 0
M  V30 14 C -1.076544 1.153253 -0.926733 0
M  V30 15 C -2.528401 1.180237 -0.823687 0
M  V30 16 C -3.117850 2.490135 -0.630251 0
M  V30 17 S -4.951510 2.184816 -0.539819 0
M  V30 18 C -4.740080 0.359774 -0.767406 0
M  V30 19 Cl -6.051283 -0.750957 -0.806896 0
M  V30 20 C -3.406487 0.154358 -0.883075 0
M  V30 21 N -0.313100 1.988238 -1.655618 0
M  V30 22 N 0.969505 1.670096 -1.512810 0
M  V30 23 C 1.012184 0.615455 -0.678512 0
M  V30 24 H 0.836721 -4.057707 5.085250 0
M  V30 25 H -0.513905 -2.615497 4.893579 0
M  V30 26 H 0.726742 -4.068198 2.149976 0
M  V30 27 H 3.743160 -3.035513 1.988209 0
M  V30 28 H 5.095503 -1.428296 0.595253 0
M  V30 29 H 3.871239 0.287844 -0.663292 0
M  V30 30 H -2.653914 3.450839 -0.549997 0
M  V30 31 H -3.039507 -0.851773 -1.025811 0
M  V30 32 H 1.788901 2.153759 -1.967357 0
M  V30 END ATOM
M  V30 BEGIN BOND
M  V30 1 1 1 2
M  V30 2 2 2 3
M  V30 3 1 2 4
M  V30 4 1 4 5
M  V30 5 2 5 6
M  V30 6 1 6 7
M  V30 7 2 7 8
M  V30 8 1 8 9
M  V30 9 2 9 10
M  V30 10 1 10 11
M  V30 11 2 11 12
M  V30 12 1 11 13
M  V30 13 1 13 14
M  V30 14 1 14 15
M  V30 15 2 15 16
M  V30 16 1 16 17
M  V30 17 1 17 18
M  V30 18 1 18 19
M  V30 19 2 18 20
M  V30 20 2 14 21
M  V30 21 1 21 22
M  V30 22 1 22 23
M  V30 23 1 10 5
M  V30 24 2 23 13
M  V30 25 1 23 9
M  V30 26 1 20 15
M  V30 27 1 1 24
M  V30 28 1 1 25
M  V30 29 1 4 26
M  V30 30 1 6 27
M  V30 31 1 7 28
M  V30 32 1 8 29
M  V30 33 1 16 30
M  V30 34 1 20 31
M  V30 35 1 22 32
M  V30 END BOND
M  V30 END CTAB
M  END
>  <Dataset>  (889) 
ChEMBL_Kinases

>  <Ligand_Instance>  (889) 
nan

>  <PDB_ID>  (889) 
nan

>  <Standardized_SMILES>  (889) 
NC(=O)Nc1cccc2c1C(=O)c1c(-c3csc(Cl)c3)n[nH]c1-2

>  <Name>  (889) 
nan

>  <Pocket>  (889) 
nan

>  <ATP_Site>  (889) 
nan

>  <Peripheral>  (889) 
nan

>  <Num_H_Atoms_ProtBoundConf>  (889) 
nan

>  <Num_Resolved_Atoms>  (889) 
nan

>  <Num_Not_Resolved_Atoms>  (889) 
nan

$$$$
CHEMBL1480806
     RDKit          3D

  0  0  0  0  0  0  0  0  0  0999 V3000
M  V30 BEGIN CTAB
M  V30 COUNTS 40 43 0 0 0
M  V30 BEGIN ATOM
M  V30 1 Cl 1.699719 -1.877723 -3.701900 0
M  V30 2 C 1.903474 -2.806843 -2.257004 0
M  V30 3 C 1.895485 -4.176266 -2.188058 0
M  V30 4 C 2.054290 -4.943060 -1.058124 0
M  V30 5 C 2.243299 -4.258288 0.144854 0
M  V30 6 C 2.261381 -2.880861 0.142601 0
M  V30 7 C 2.094462 -2.169447 -1.036740 0
M  V30 8 C 2.127091 -0.697861 -0.912919 0
M  V30 9 C 2.829129 0.124081 -1.769290 0
M  V30 10 C 2.809080 1.495283 -1.594334 0
M  V30 11 C 2.066419 1.992005 -0.541029 0
M  V30 12 N 2.068412 3.316767 -0.406221 0
M  V30 13 C 1.397370 3.936838 0.559660 0
M  V30 14 N 0.696740 3.196152 1.423822 0
M  V30 15 C 0.631335 1.871215 1.374025 0
M  V30 16 N -0.037834 0.890912 2.175939 0
M  V30 17 C -0.681166 -0.051502 2.946896 0
M  V30 18 C -2.175835 0.021983 3.063099 0
M  V30 19 C -2.943993 -0.666252 2.137442 0
M  V30 20 C -4.321219 -0.604812 2.240621 0
M  V30 21 C -4.908694 0.143669 3.267482 0
M  V30 22 N -4.120363 0.786216 4.130733 0
M  V30 23 C -2.778747 0.752823 4.066077 0
M  V30 24 C 1.334433 1.249871 0.364882 0
M  V30 25 C 1.417076 -0.108411 0.107029 0
M  V30 26 H 1.746703 -4.735965 -3.124736 0
M  V30 27 H 2.041854 -6.010669 -1.044981 0
M  V30 28 H 2.377686 -4.762541 1.090602 0
M  V30 29 H 2.410674 -2.342243 1.089043 0
M  V30 30 H 3.387549 -0.336991 -2.571377 0
M  V30 31 H 3.353342 2.157237 -2.253851 0
M  V30 32 H 1.321059 5.008113 0.773157 0
M  V30 33 H -0.488313 1.624805 2.823326 0
M  V30 34 H -0.259719 -0.113008 3.994513 0
M  V30 35 H -0.486627 -1.130940 2.597249 0
M  V30 36 H -2.546289 -1.256534 1.328020 0
M  V30 37 H -4.936403 -1.147632 1.510605 0
M  V30 38 H -5.993084 0.131350 3.266283 0
M  V30 39 H -2.168964 1.291198 4.790891 0
M  V30 40 H 0.882666 -0.761112 0.757541 0
M  V30 END ATOM
M  V30 BEGIN BOND
M  V30 1 1 1 2
M  V30 2 2 2 3
M  V30 3 1 3 4
M  V30 4 2 4 5
M  V30 5 1 5 6
M  V30 6 2 6 7
M  V30 7 1 7 8
M  V30 8 2 8 9
M  V30 9 1 9 10
M  V30 10 2 10 11
M  V30 11 1 11 12
M  V30 12 2 12 13
M  V30 13 1 13 14
M  V30 14 2 14 15
M  V30 15 1 15 16
M  V30 16 1 16 17
M  V30 17 1 17 18
M  V30 18 2 18 19
M  V30 19 1 19 20
M  V30 20 2 20 21
M  V30 21 1 21 22
M  V30 22 2 22 23
M  V30 23 1 15 24
M  V30 24 2 24 25
M  V30 25 1 7 2
M  V30 26 1 25 8
M  V30 27 1 24 11
M  V30 28 1 23 18
M  V30 29 1 3 26
M  V30 30 1 4 27
M  V30 31 1 5 28
M  V30 32 1 6 29
M  V30 33 1 9 30
M  V30 34 1 10 31
M  V30 35 1 13 32
M  V30 36 1 16 33
M  V30 37 1 17 34
M  V30 38 1 17 35
M  V30 39 1 19 36
M  V30 40 1 20 37
M  V30 41 1 21 38
M  V30 42 1 23 39
M  V30 43 1 25 40
M  V30 END BOND
M  V30 END CTAB
M  END
>  <Dataset>  (890) 
ChEMBL_Kinases

>  <Ligand_Instance>  (890) 
nan

>  <PDB_ID>  (890) 
nan

>  <Standardized_SMILES>  (890) 
Clc1ccccc1-c1ccc2ncnc(NCc3cccnc3)c2c1

>  <Name>  (890) 
nan

>  <Pocket>  (890) 
nan

>  <ATP_Site>  (890) 
nan

>  <Peripheral>  (890) 
nan

>  <Num_H_Atoms_ProtBoundConf>  (890) 
nan

>  <Num_Resolved_Atoms>  (890) 
nan

>  <Num_Not_Resolved_Atoms>  (890) 
nan

$$$$
CHEMBL4856751
     RDKit          3D

  0  0  0  0  0  0  0  0  0  0999 V3000
M  V30 BEGIN CTAB
M  V30 COUNTS 37 39 0 0 0
M  V30 BEGIN ATOM
M  V30 1 C 0.796517 -3.809616 3.303219 0
M  V30 2 O 0.195520 -3.060711 2.279698 0
M  V30 3 C 0.829869 -2.739895 1.101399 0
M  V30 4 C 2.103284 -3.068147 0.709371 0
M  V30 5 C 2.671912 -2.706609 -0.497001 0
M  V30 6 C 1.896858 -1.958085 -1.370227 0
M  V30 7 Br 2.556685 -1.391619 -3.072376 0
M  V30 8 C 0.617009 -1.626978 -0.978521 0
M  V30 9 C 0.024798 -1.984893 0.240257 0
M  V30 10 C -1.347243 -1.576004 0.516287 0
M  V30 11 C -1.890857 -0.391889 0.295840 0
M  V30 12 N -1.471056 0.870210 -0.235177 0
M  V30 13 C -0.276925 1.587467 0.042892 0
M  V30 14 C -0.279968 2.238799 1.273729 0
M  V30 15 C 0.824922 2.987959 1.674490 0
M  V30 16 C 1.942209 3.091620 0.846824 0
M  V30 17 C 1.961679 2.453780 -0.374778 0
M  V30 18 C 3.055638 2.498297 -1.300629 0
M  V30 19 N 3.939562 2.542626 -2.051362 0
M  V30 20 C 0.853546 1.726703 -0.730014 0
M  V30 21 C -3.301926 -0.447360 0.733376 0
M  V30 22 O -4.234386 0.426933 0.729570 0
M  V30 23 N -3.598428 -1.746245 1.241070 0
M  V30 24 C -2.367015 -2.448491 1.101123 0
M  V30 25 O -2.225767 -3.657976 1.448668 0
M  V30 26 H 0.149535 -4.643855 3.652222 0
M  V30 27 H 1.754930 -4.273654 3.004312 0
M  V30 28 H 1.058205 -3.127043 4.153095 0
M  V30 29 H 2.710195 -3.643172 1.376972 0
M  V30 30 H 3.668773 -2.983566 -0.764081 0
M  V30 31 H 0.023663 -1.037774 -1.684812 0
M  V30 32 H -2.041785 1.409173 -0.923287 0
M  V30 33 H -1.074192 2.250402 2.024297 0
M  V30 34 H 0.922150 3.527074 2.603273 0
M  V30 35 H 2.830829 3.662927 1.109683 0
M  V30 36 H 0.819055 1.215288 -1.665624 0
M  V30 37 H -4.500148 -2.122100 1.629195 0
M  V30 END ATOM
M  V30 BEGIN BOND
M  V30 1 1 1 2
M  V30 2 1 2 3
M  V30 3 2 3 4
M  V30 4 1 4 5
M  V30 5 2 5 6
M  V30 6 1 6 7
M  V30 7 1 6 8
M  V30 8 2 8 9
M  V30 9 1 9 10
M  V30 10 2 10 11
M  V30 11 1 11 12
M  V30 12 1 12 13
M  V30 13 2 13 14
M  V30 14 1 14 15
M  V30 15 2 15 16
M  V30 16 1 16 17
M  V30 17 1 17 18
M  V30 18 3 18 19
M  V30 19 2 17 20
M  V30 20 1 11 21
M  V30 21 2 21 22
M  V30 22 1 21 23
M  V30 23 1 23 24
M  V30 24 2 24 25
M  V30 25 1 9 3
M  V30 26 1 24 10
M  V30 27 1 20 13
M  V30 28 1 1 26
M  V30 29 1 1 27
M  V30 30 1 1 28
M  V30 31 1 4 29
M  V30 32 1 5 30
M  V30 33 1 8 31
M  V30 34 1 12 32
M  V30 35 1 14 33
M  V30 36 1 15 34
M  V30 37 1 16 35
M  V30 38 1 20 36
M  V30 39 1 23 37
M  V30 END BOND
M  V30 END CTAB
M  END
>  <Dataset>  (891) 
ChEMBL_Kinases

>  <Ligand_Instance>  (891) 
nan

>  <PDB_ID>  (891) 
nan

>  <Standardized_SMILES>  (891) 
COc1ccc(Br)cc1C1=C(Nc2cccc(C#N)c2)C(=O)NC1=O

>  <Name>  (891) 
nan

>  <Pocket>  (891) 
nan

>  <ATP_Site>  (891) 
nan

>  <Peripheral>  (891) 
nan

>  <Num_H_Atoms_ProtBoundConf>  (891) 
nan

>  <Num_Resolved_Atoms>  (891) 
nan

>  <Num_Not_Resolved_Atoms>  (891) 
nan

$$$$
CHEMBL151430
     RDKit          3D

  0  0  0  0  0  0  0  0  0  0999 V3000
M  V30 BEGIN CTAB
M  V30 COUNTS 30 32 0 0 0
M  V30 BEGIN ATOM
M  V30 1 N -2.821319 -2.003911 3.904002 0
M  V30 2 C -1.892810 -2.077773 2.814532 0
M  V30 3 N -0.794349 -1.322144 2.736685 0
M  V30 4 C -0.111683 -1.599786 1.614491 0
M  V30 5 C 1.164304 -1.020941 1.135886 0
M  V30 6 C 1.653996 -1.901093 0.010418 0
M  V30 7 C 0.913203 -1.703260 -1.291791 0
M  V30 8 N 1.592216 -0.673623 -2.107023 0
M  V30 9 C 1.693722 0.684609 -1.622932 0
M  V30 10 O 2.150400 1.591111 -2.399129 0
M  V30 11 C 1.336800 1.241560 -0.297262 0
M  V30 12 N 1.176506 2.552897 0.009747 0
M  V30 13 C 0.870981 2.572881 1.319070 0
M  V30 14 Br 0.579762 4.324441 2.061291 0
M  V30 15 C 0.843272 1.288629 1.813461 0
M  V30 16 Br 0.434099 1.162234 3.671346 0
M  V30 17 C 1.138035 0.394633 0.803431 0
M  V30 18 C -0.881799 -2.586332 1.013514 0
M  V30 19 N -1.972133 -2.883300 1.741325 0
M  V30 20 H -3.836331 -1.897688 3.682496 0
M  V30 21 H -2.698172 -2.034746 4.925606 0
M  V30 22 H 1.897613 -1.198311 1.973959 0
M  V30 23 H 2.740748 -1.855943 -0.121172 0
M  V30 24 H 1.411221 -2.953521 0.331096 0
M  V30 25 H 0.852745 -2.624808 -1.892375 0
M  V30 26 H -0.101856 -1.246802 -1.124864 0
M  V30 27 H 2.033745 -0.812632 -3.045021 0
M  V30 28 H 1.306661 3.256156 -0.755928 0
M  V30 29 H -0.733540 -3.123435 0.101462 0
M  V30 30 H -2.743161 -3.566242 1.576587 0
M  V30 END ATOM
M  V30 BEGIN BOND
M  V30 1 1 1 2
M  V30 2 2 2 3
M  V30 3 1 3 4
M  V30 4 1 4 5
M  V30 5 1 5 6
M  V30 6 1 6 7
M  V30 7 1 7 8
M  V30 8 1 8 9
M  V30 9 2 9 10
M  V30 10 1 9 11
M  V30 11 1 11 12
M  V30 12 1 12 13
M  V30 13 1 13 14
M  V30 14 2 13 15
M  V30 15 1 15 16
M  V30 16 1 15 17
M  V30 17 2 4 18
M  V30 18 1 18 19
M  V30 19 1 19 2
M  V30 20 1 17 5
M  V30 21 2 17 11
M  V30 22 1 1 20
M  V30 23 1 1 21
M  V30 24 1 5 22
M  V30 25 1 6 23
M  V30 26 1 6 24
M  V30 27 1 7 25
M  V30 28 1 7 26
M  V30 29 1 8 27
M  V30 30 1 12 28
M  V30 31 1 18 29
M  V30 32 1 19 30
M  V30 END BOND
M  V30 END CTAB
M  END
>  <Dataset>  (892) 
ChEMBL_Kinases

>  <Ligand_Instance>  (892) 
nan

>  <PDB_ID>  (892) 
nan

>  <Standardized_SMILES>  (892) 
Nc1nc(C2CCNC(=O)c3[nH]c(Br)c(Br)c32)c[nH]1

>  <Name>  (892) 
nan

>  <Pocket>  (892) 
nan

>  <ATP_Site>  (892) 
nan

>  <Peripheral>  (892) 
nan

>  <Num_H_Atoms_ProtBoundConf>  (892) 
nan

>  <Num_Resolved_Atoms>  (892) 
nan

>  <Num_Not_Resolved_Atoms>  (892) 
nan

$$$$
CHEMBL4856779
     RDKit          3D

  0  0  0  0  0  0  0  0  0  0999 V3000
M  V30 BEGIN CTAB
M  V30 COUNTS 60 62 0 0 0
M  V30 BEGIN ATOM
M  V30 1 C 1.575562 0.788445 3.196244 0
M  V30 2 C 1.277661 -0.679152 2.964001 0
M  V30 3 C 1.444138 -1.333853 4.344396 0
M  V30 4 C 2.249180 -1.211788 1.995923 0
M  V30 5 C 1.900100 -2.415377 1.204937 0 CFG=2
M  V30 6 N 2.563704 -2.453457 -0.097981 0
M  V30 7 C 2.269728 -1.514778 -1.111674 0
M  V30 8 C 1.329389 -0.511194 -1.013876 0
M  V30 9 C 1.112416 0.375293 -2.048029 0
M  V30 10 N 0.137113 1.399195 -1.980308 0
M  V30 11 C -1.171045 1.963721 -2.175940 0
M  V30 12 C -2.280415 1.305495 -1.501327 0
M  V30 13 C -2.717293 1.834266 -0.278068 0
M  V30 14 N -3.700997 1.404223 0.542763 0
M  V30 15 C -4.387434 0.295354 0.150033 0
M  V30 16 C -4.028361 -0.289573 -1.035796 0
M  V30 17 C -3.001868 0.190032 -1.855914 0
M  V30 18 C -2.664826 -0.462333 -3.142282 0
M  V30 19 F -3.543865 -1.538410 -3.293304 0
M  V30 20 F -2.936408 0.397665 -4.204864 0
M  V30 21 F -1.419051 -0.998791 -3.209180 0
M  V30 22 N 1.816048 0.304457 -3.217922 0
M  V30 23 C 2.756433 -0.656951 -3.384996 0
M  V30 24 C 2.933066 -1.514532 -2.323963 0
M  V30 25 C 3.939767 -2.527050 -2.527565 0
M  V30 26 N 4.737745 -3.358357 -2.692074 0
M  V30 27 C 0.467138 -2.777501 1.127143 0
M  V30 28 C -0.533644 -2.063041 1.922302 0
M  V30 29 C -1.168066 -2.982855 2.983192 0
M  V30 30 C -1.738852 -1.719260 1.021424 0
M  V30 31 C -0.159867 -0.803077 2.594663 0 CFG=1
M  V30 32 O -0.914817 -0.641345 3.757788 0
M  V30 33 H 2.665236 1.006858 2.993458 0
M  V30 34 H 1.420226 1.101698 4.248349 0
M  V30 35 H 1.030071 1.418962 2.487805 0
M  V30 36 H 1.701779 -2.395110 4.192471 0
M  V30 37 H 2.366620 -0.888072 4.819568 0
M  V30 38 H 0.611781 -1.140305 5.016819 0
M  V30 39 H 3.204547 -1.381976 2.602026 0
M  V30 40 H 2.622435 -0.419880 1.277027 0
M  V30 41 H 2.404558 -3.264289 1.769839 0
M  V30 42 H 3.297562 -3.183956 -0.351870 0
M  V30 43 H 0.744781 -0.409527 -0.131152 0
M  V30 44 H 0.818815 2.069699 -1.531857 0
M  V30 45 H -1.165633 3.036659 -1.857117 0
M  V30 46 H -1.416551 2.026138 -3.284592 0
M  V30 47 H -2.241006 2.732069 0.147411 0
M  V30 48 H -5.182944 -0.143894 0.705193 0
M  V30 49 H -4.553235 -1.185711 -1.394019 0
M  V30 50 H 3.325859 -0.735003 -4.298942 0
M  V30 51 H 0.359528 -3.880426 1.381291 0
M  V30 52 H 0.166421 -2.769862 0.040955 0
M  V30 53 H -2.197011 -2.630942 3.214781 0
M  V30 54 H -1.210002 -4.035242 2.637162 0
M  V30 55 H -0.607706 -2.938617 3.923604 0
M  V30 56 H -2.683815 -1.729550 1.566934 0
M  V30 57 H -1.780697 -2.516990 0.246317 0
M  V30 58 H -1.620938 -0.704449 0.578853 0
M  V30 59 H -0.453569 0.094374 1.971674 0
M  V30 60 H -1.812818 -0.283093 3.583136 0
M  V30 END ATOM
M  V30 BEGIN BOND
M  V30 1 1 1 2
M  V30 2 1 2 3
M  V30 3 1 2 4
M  V30 4 1 4 5
M  V30 5 1 5 6
M  V30 6 1 6 7
M  V30 7 2 7 8
M  V30 8 1 8 9
M  V30 9 1 9 10
M  V30 10 1 10 11
M  V30 11 1 11 12
M  V30 12 2 12 13
M  V30 13 1 13 14
M  V30 14 2 14 15
M  V30 15 1 15 16
M  V30 16 2 16 17
M  V30 17 1 17 18
M  V30 18 1 18 19
M  V30 19 1 18 20
M  V30 20 1 18 21
M  V30 21 2 9 22
M  V30 22 1 22 23
M  V30 23 2 23 24
M  V30 24 1 24 25
M  V30 25 3 25 26
M  V30 26 1 5 27
M  V30 27 1 27 28
M  V30 28 1 28 29
M  V30 29 1 28 30
M  V30 30 1 28 31
M  V30 31 1 31 32
M  V30 32 1 31 2
M  V30 33 1 24 7
M  V30 34 1 17 12
M  V30 35 1 1 33
M  V30 36 1 1 34
M  V30 37 1 1 35
M  V30 38 1 3 36
M  V30 39 1 3 37
M  V30 40 1 3 38
M  V30 41 1 4 39
M  V30 42 1 4 40
M  V30 43 1 5 41 CFG=1
M  V30 44 1 6 42
M  V30 45 1 8 43
M  V30 46 1 10 44
M  V30 47 1 11 45
M  V30 48 1 11 46
M  V30 49 1 13 47
M  V30 50 1 15 48
M  V30 51 1 16 49
M  V30 52 1 23 50
M  V30 53 1 27 51
M  V30 54 1 27 52
M  V30 55 1 29 53
M  V30 56 1 29 54
M  V30 57 1 29 55
M  V30 58 1 30 56
M  V30 59 1 30 57
M  V30 60 1 30 58
M  V30 61 1 31 59 CFG=3
M  V30 62 1 32 60
M  V30 END BOND
M  V30 END CTAB
M  END
>  <Dataset>  (893) 
ChEMBL_Kinases

>  <Ligand_Instance>  (893) 
nan

>  <PDB_ID>  (893) 
nan

>  <Standardized_SMILES>  (893) 
CC1(C)C[C@H](Nc2cc(NCc3cnccc3C(F)(F)F)ncc2C#N)CC(C)(C)[C@H]1O

>  <Name>  (893) 
nan

>  <Pocket>  (893) 
nan

>  <ATP_Site>  (893) 
nan

>  <Peripheral>  (893) 
nan

>  <Num_H_Atoms_ProtBoundConf>  (893) 
nan

>  <Num_Resolved_Atoms>  (893) 
nan

>  <Num_Not_Resolved_Atoms>  (893) 
nan

$$$$
CHEMBL1513669
     RDKit          3D

  0  0  0  0  0  0  0  0  0  0999 V3000
M  V30 BEGIN CTAB
M  V30 COUNTS 39 42 0 0 0
M  V30 BEGIN ATOM
M  V30 1 N 0.989571 -7.792434 3.349978 0
M  V30 2 C 1.236076 -6.933123 2.609126 0
M  V30 3 C 1.535906 -5.878108 1.680423 0
M  V30 4 C 2.389752 -6.111480 0.614812 0
M  V30 5 C 2.699545 -5.110319 -0.301415 0
M  V30 6 C 2.159248 -3.846252 -0.171621 0
M  V30 7 C 1.316000 -3.661326 0.902980 0
M  V30 8 C 0.704722 -2.356081 1.110848 0
M  V30 9 N 0.946383 -1.348267 0.285396 0
M  V30 10 C 0.458407 -0.100747 0.351101 0
M  V30 11 N 0.713933 0.980275 -0.528787 0
M  V30 12 C 0.969333 2.057309 -1.406561 0
M  V30 13 C 0.274775 3.324687 -1.057876 0
M  V30 14 C -0.925670 3.805944 -1.416093 0
M  V30 15 C -1.367730 5.021309 -0.964396 0
M  V30 16 C -0.438274 5.706246 -0.092521 0
M  V30 17 S 0.992796 4.526675 -0.006073 0
M  V30 18 C -0.390848 0.137195 1.408372 0
M  V30 19 C -1.034430 1.312230 1.724288 0
M  V30 20 C -1.877049 1.508871 2.792445 0
M  V30 21 C -2.117429 0.456483 3.637893 0
M  V30 22 C -1.518038 -0.778482 3.412261 0
M  V30 23 C -0.697842 -0.852382 2.315207 0
M  V30 24 N -0.123366 -2.041675 2.101599 0
M  V30 25 C 0.976829 -4.612816 1.835555 0
M  V30 26 H 2.858882 -7.076260 0.437338 0
M  V30 27 H 3.365112 -5.251283 -1.152002 0
M  V30 28 H 2.342666 -3.004416 -0.835573 0
M  V30 29 H 1.373966 0.433959 -1.173559 0
M  V30 30 H 2.070060 2.333643 -1.529215 0
M  V30 31 H 0.624425 1.864056 -2.465175 0
M  V30 32 H -1.529771 3.198968 -2.073731 0
M  V30 33 H -2.318021 5.471246 -1.209216 0
M  V30 34 H -0.703267 6.721271 0.339296 0
M  V30 35 H -0.863602 2.150369 1.079289 0
M  V30 36 H -2.332534 2.473549 2.951131 0
M  V30 37 H -2.781054 0.625198 4.472442 0
M  V30 38 H -1.691459 -1.609811 4.057358 0
M  V30 39 H 0.298961 -4.385029 2.660790 0
M  V30 END ATOM
M  V30 BEGIN BOND
M  V30 1 3 1 2
M  V30 2 1 2 3
M  V30 3 2 3 4
M  V30 4 1 4 5
M  V30 5 2 5 6
M  V30 6 1 6 7
M  V30 7 1 7 8
M  V30 8 2 8 9
M  V30 9 1 9 10
M  V30 10 1 10 11
M  V30 11 1 11 12
M  V30 12 1 12 13
M  V30 13 2 13 14
M  V30 14 1 14 15
M  V30 15 2 15 16
M  V30 16 1 16 17
M  V30 17 2 10 18
M  V30 18 1 18 19
M  V30 19 2 19 20
M  V30 20 1 20 21
M  V30 21 2 21 22
M  V30 22 1 22 23
M  V30 23 2 23 24
M  V30 24 2 7 25
M  V30 25 1 25 3
M  V30 26 1 24 8
M  V30 27 1 17 13
M  V30 28 1 23 18
M  V30 29 1 4 26
M  V30 30 1 5 27
M  V30 31 1 6 28
M  V30 32 1 11 29
M  V30 33 1 12 30
M  V30 34 1 12 31
M  V30 35 1 14 32
M  V30 36 1 15 33
M  V30 37 1 16 34
M  V30 38 1 19 35
M  V30 39 1 20 36
M  V30 40 1 21 37
M  V30 41 1 22 38
M  V30 42 1 25 39
M  V30 END BOND
M  V30 END CTAB
M  END
>  <Dataset>  (894) 
ChEMBL_Kinases

>  <Ligand_Instance>  (894) 
nan

>  <PDB_ID>  (894) 
nan

>  <Standardized_SMILES>  (894) 
N#Cc1cccc(-c2nc(NCc3cccs3)c3ccccc3n2)c1

>  <Name>  (894) 
nan

>  <Pocket>  (894) 
nan

>  <ATP_Site>  (894) 
nan

>  <Peripheral>  (894) 
nan

>  <Num_H_Atoms_ProtBoundConf>  (894) 
nan

>  <Num_Resolved_Atoms>  (894) 
nan

>  <Num_Not_Resolved_Atoms>  (894) 
nan

$$$$
CHEMBL4856868
     RDKit          3D

  0  0  0  0  0  0  0  0  0  0999 V3000
M  V30 BEGIN CTAB
M  V30 COUNTS 31 33 0 0 0
M  V30 BEGIN ATOM
M  V30 1 C -1.447608 -2.679603 3.834418 0
M  V30 2 N -0.818250 -1.838864 2.842767 0
M  V30 3 C -0.875207 -2.205104 1.477403 0
M  V30 4 N -1.563471 -3.338503 1.280050 0
M  V30 5 C -1.764046 -3.875986 0.084965 0
M  V30 6 C -1.245321 -3.247336 -1.004594 0
M  V30 7 C -0.535923 -2.096780 -0.895298 0
M  V30 8 C -0.034725 -1.505857 -2.029255 0
M  V30 9 Br -0.348276 -2.312257 -3.721710 0
M  V30 10 C 0.677590 -0.345019 -1.875434 0
M  V30 11 C 0.853703 0.169302 -0.584935 0
M  V30 12 C 1.579058 1.322411 -0.557842 0
M  V30 13 C 1.780831 1.866266 0.704340 0
M  V30 14 C 2.559071 3.119209 0.806530 0
M  V30 15 O 2.820970 3.722905 1.886308 0
M  V30 16 O 3.050497 3.697938 -0.350174 0
M  V30 17 C 1.284618 1.289574 1.880275 0
M  V30 18 C 0.571344 0.126226 1.686927 0
M  V30 19 C 0.329110 -0.466719 0.505123 0
M  V30 20 C -0.372225 -1.606149 0.367479 0
M  V30 21 H -0.830059 -3.035861 4.657270 0
M  V30 22 H -1.810603 -3.589886 3.226667 0
M  V30 23 H -2.419174 -2.197176 4.145221 0
M  V30 24 H -0.599963 -1.305820 3.693929 0
M  V30 25 H -2.327276 -4.790829 -0.006614 0
M  V30 26 H -1.429411 -3.712553 -1.950424 0
M  V30 27 H 1.072853 0.122179 -2.765053 0
M  V30 28 H 1.984422 1.810624 -1.421187 0
M  V30 29 H 3.203384 4.715985 -0.424852 0
M  V30 30 H 1.524002 1.830359 2.792023 0
M  V30 31 H 0.284723 -0.166990 2.631140 0
M  V30 END ATOM
M  V30 BEGIN BOND
M  V30 1 1 1 2
M  V30 2 1 2 3
M  V30 3 2 3 4
M  V30 4 1 4 5
M  V30 5 2 5 6
M  V30 6 1 6 7
M  V30 7 2 7 8
M  V30 8 1 8 9
M  V30 9 1 8 10
M  V30 10 2 10 11
M  V30 11 1 11 12
M  V30 12 2 12 13
M  V30 13 1 13 14
M  V30 14 2 14 15
M  V30 15 1 14 16
M  V30 16 1 13 17
M  V30 17 2 17 18
M  V30 18 1 18 19
M  V30 19 2 19 20
M  V30 20 1 20 3
M  V30 21 1 20 7
M  V30 22 1 19 11
M  V30 23 1 1 21
M  V30 24 1 1 22
M  V30 25 1 1 23
M  V30 26 1 2 24
M  V30 27 1 5 25
M  V30 28 1 6 26
M  V30 29 1 10 27
M  V30 30 1 12 28
M  V30 31 1 16 29
M  V30 32 1 17 30
M  V30 33 1 18 31
M  V30 END BOND
M  V30 END CTAB
M  END
>  <Dataset>  (895) 
ChEMBL_Kinases

>  <Ligand_Instance>  (895) 
nan

>  <PDB_ID>  (895) 
nan

>  <Standardized_SMILES>  (895) 
CNc1nccc2c(Br)cc3cc(C(=O)O)ccc3c12

>  <Name>  (895) 
nan

>  <Pocket>  (895) 
nan

>  <ATP_Site>  (895) 
nan

>  <Peripheral>  (895) 
nan

>  <Num_H_Atoms_ProtBoundConf>  (895) 
nan

>  <Num_Resolved_Atoms>  (895) 
nan

>  <Num_Not_Resolved_Atoms>  (895) 
nan

$$$$
CHEMBL4856935
     RDKit          3D

  0  0  0  0  0  0  0  0  0  0999 V3000
M  V30 BEGIN CTAB
M  V30 COUNTS 50 55 0 0 0
M  V30 BEGIN ATOM
M  V30 1 F 3.250282 -1.148965 6.465726 0
M  V30 2 C 3.580262 -0.989554 5.145413 0
M  V30 3 C 4.720693 -1.597120 4.659258 0
M  V30 4 C 5.049405 -1.435312 3.333385 0
M  V30 5 C 4.246132 -0.679770 2.522999 0
M  V30 6 N 4.335476 -0.368681 1.222691 0
M  V30 7 C 3.302947 0.424133 0.808667 0
M  V30 8 C 3.167345 0.907752 -0.580463 0
M  V30 9 N 2.421633 0.045188 -1.444943 0
M  V30 10 C 1.077116 -0.290580 -1.192229 0
M  V30 11 N 0.414480 0.190823 -0.108737 0
M  V30 12 C -0.869936 -0.133108 0.126942 0
M  V30 13 N -1.520450 0.396511 1.275373 0
M  V30 14 C -0.858820 1.270818 2.205734 0
M  V30 15 C -1.925364 2.167408 2.801075 0
M  V30 16 O -2.912283 2.460618 1.870748 0
M  V30 17 C -3.699842 1.351609 1.571451 0
M  V30 18 C -2.903198 0.074184 1.565865 0
M  V30 19 N -1.557152 -0.946663 -0.696570 0
M  V30 20 C -0.955624 -1.449485 -1.777774 0
M  V30 21 C 0.360281 -1.137043 -2.048017 0
M  V30 22 N 0.788671 -1.740702 -3.181565 0
M  V30 23 C -0.258865 -2.455306 -3.657090 0
M  V30 24 N -1.250955 -2.254880 -2.807199 0
M  V30 25 C -2.597794 -2.865762 -2.965436 0
M  V30 26 N -3.076554 -3.631610 -2.230793 0
M  V30 27 C -4.228098 -4.237782 -2.245570 0
M  V30 28 C -5.020054 -3.912469 -3.325628 0
M  V30 29 S -3.918033 -2.680956 -4.250511 0
M  V30 30 N 2.553894 0.600229 1.912625 0
M  V30 31 C 3.081333 -0.042303 2.960013 0
M  V30 32 C 2.787069 -0.229730 4.296728 0
M  V30 33 F 1.668898 0.366239 4.772624 0
M  V30 34 H 5.310661 -2.180439 5.354528 0
M  V30 35 H 5.945863 -1.913557 2.953606 0
M  V30 36 H 5.120705 -0.706033 0.603255 0
M  V30 37 H 2.687117 1.919077 -0.546212 0
M  V30 38 H 4.186650 1.097763 -0.973753 0
M  V30 39 H 2.878136 -0.354686 -2.293945 0
M  V30 40 H -0.177779 1.923850 1.620269 0
M  V30 41 H -0.342832 0.751264 3.013682 0
M  V30 42 H -1.432219 3.121443 3.076418 0
M  V30 43 H -2.335750 1.754586 3.747208 0
M  V30 44 H -4.100440 1.520758 0.549537 0
M  V30 45 H -4.536843 1.321621 2.280183 0
M  V30 46 H -2.943852 -0.482752 2.513610 0
M  V30 47 H -3.355684 -0.594403 0.780819 0
M  V30 48 H -0.324155 -3.076037 -4.540738 0
M  V30 49 H -4.956226 -4.915915 -1.829912 0
M  V30 50 H -5.974727 -3.855708 -4.144084 0
M  V30 END ATOM
M  V30 BEGIN BOND
M  V30 1 1 1 2
M  V30 2 2 2 3
M  V30 3 1 3 4
M  V30 4 2 4 5
M  V30 5 1 5 6
M  V30 6 1 6 7
M  V30 7 1 7 8
M  V30 8 1 8 9
M  V30 9 1 9 10
M  V30 10 2 10 11
M  V30 11 1 11 12
M  V30 12 1 12 13
M  V30 13 1 13 14
M  V30 14 1 14 15
M  V30 15 1 15 16
M  V30 16 1 16 17
M  V30 17 1 17 18
M  V30 18 2 12 19
M  V30 19 1 19 20
M  V30 20 2 20 21
M  V30 21 1 21 22
M  V30 22 2 22 23
M  V30 23 1 23 24
M  V30 24 1 24 25
M  V30 25 2 25 26
M  V30 26 1 26 27
M  V30 27 2 27 28
M  V30 28 1 28 29
M  V30 29 2 7 30
M  V30 30 1 30 31
M  V30 31 2 31 32
M  V30 32 1 32 33
M  V30 33 1 32 2
M  V30 34 1 31 5
M  V30 35 1 21 10
M  V30 36 1 29 25
M  V30 37 1 18 13
M  V30 38 1 24 20
M  V30 39 1 3 34
M  V30 40 1 4 35
M  V30 41 1 6 36
M  V30 42 1 8 37
M  V30 43 1 8 38
M  V30 44 1 9 39
M  V30 45 1 14 40
M  V30 46 1 14 41
M  V30 47 1 15 42
M  V30 48 1 15 43
M  V30 49 1 17 44
M  V30 50 1 17 45
M  V30 51 1 18 46
M  V30 52 1 18 47
M  V30 53 1 23 48
M  V30 54 1 27 49
M  V30 55 1 28 50
M  V30 END BOND
M  V30 END CTAB
M  END
>  <Dataset>  (896) 
ChEMBL_Kinases

>  <Ligand_Instance>  (896) 
nan

>  <PDB_ID>  (896) 
nan

>  <Standardized_SMILES>  (896) 
Fc1ccc2[nH]c(CNc3nc(N4CCOCC4)nc4c3ncn4-c3nccs3)nc2c1F

>  <Name>  (896) 
nan

>  <Pocket>  (896) 
nan

>  <ATP_Site>  (896) 
nan

>  <Peripheral>  (896) 
nan

>  <Num_H_Atoms_ProtBoundConf>  (896) 
nan

>  <Num_Resolved_Atoms>  (896) 
nan

>  <Num_Not_Resolved_Atoms>  (896) 
nan

$$$$
CHEMBL4857055
     RDKit          3D

  0  0  0  0  0  0  0  0  0  0999 V3000
M  V30 BEGIN CTAB
M  V30 COUNTS 60 65 0 0 0
M  V30 BEGIN ATOM
M  V30 1 C 2.584699 -0.950618 1.616573 0
M  V30 2 C 3.134516 0.401914 1.951331 0
M  V30 3 C 2.934714 0.718122 3.411666 0
M  V30 4 O 4.517934 0.443162 1.689414 0
M  V30 5 C 2.447308 1.440371 1.147457 0
M  V30 6 C 3.001945 1.747937 -0.065229 0
M  V30 7 C 2.459065 2.701952 -0.917453 0
M  V30 8 C 1.306059 3.344896 -0.479970 0
M  V30 9 C 0.776604 3.007304 0.749132 0
M  V30 10 N -0.403241 3.584517 1.327925 0
M  V30 11 C -0.503275 4.860216 1.749640 0
M  V30 12 C -1.780843 5.043522 2.242243 0
M  V30 13 F -2.408101 6.110895 2.780978 0
M  V30 14 C -2.421680 3.838925 2.095499 0
M  V30 15 C -3.677356 3.353607 2.377506 0
M  V30 16 N -3.991554 2.100470 2.104303 0
M  V30 17 C -3.176111 1.211155 1.555287 0
M  V30 18 N -3.604901 -0.114935 1.299075 0
M  V30 19 C -2.869432 -1.180364 0.723831 0
M  V30 20 C -1.568428 -1.135390 0.292843 0
M  V30 21 C -0.858958 -2.174464 -0.265581 0
M  V30 22 C -1.505397 -3.382681 -0.412005 0
M  V30 23 N -0.836581 -4.501902 -0.980932 0
M  V30 24 C -1.414863 -5.823343 -1.185183 0
M  V30 25 C -0.325937 -6.506582 -1.967037 0 CFG=2
M  V30 26 C 0.891454 -5.976173 -1.213697 0
M  V30 27 C 0.529736 -4.519444 -1.453189 0 CFG=1
M  V30 28 C 0.453563 -4.555868 -2.958843 0
M  V30 29 N -0.223744 -5.818635 -3.228435 0
M  V30 30 C -2.814637 -3.490571 0.002670 0
M  V30 31 C -3.460626 -2.409343 0.552214 0
M  V30 32 N -1.958094 1.699893 1.287200 0
M  V30 33 C -1.569332 2.939214 1.530706 0
M  V30 34 N 1.329303 2.075312 1.552952 0
M  V30 35 H 2.790080 -1.670933 2.448868 0
M  V30 36 H 3.068043 -1.366882 0.694937 0
M  V30 37 H 1.492806 -0.897689 1.510831 0
M  V30 38 H 3.144823 1.792351 3.560839 0
M  V30 39 H 3.669394 0.092557 3.977360 0
M  V30 40 H 1.880689 0.502980 3.681720 0
M  V30 41 H 4.942032 -0.296827 2.206158 0
M  V30 42 H 3.904184 1.252297 -0.419703 0
M  V30 43 H 2.852504 2.984359 -1.882034 0
M  V30 44 H 0.776950 4.108126 -1.039898 0
M  V30 45 H 0.223924 5.663485 1.744947 0
M  V30 46 H -4.424928 3.994179 2.827760 0
M  V30 47 H -4.591657 -0.334282 1.569950 0
M  V30 48 H -1.012245 -0.215729 0.382376 0
M  V30 49 H 0.167590 -2.065833 -0.583405 0
M  V30 50 H -1.442427 -6.291770 -0.181609 0
M  V30 51 H -2.389318 -5.802995 -1.699823 0
M  V30 52 H -0.375406 -7.581720 -2.011369 0
M  V30 53 H 1.835330 -6.275478 -1.703700 0
M  V30 54 H 0.834272 -6.265871 -0.156812 0
M  V30 55 H 1.199441 -3.790828 -1.040773 0
M  V30 56 H 1.490217 -4.676193 -3.351107 0
M  V30 57 H -0.055784 -3.687612 -3.402674 0
M  V30 58 H -1.203506 -5.563140 -3.516700 0
M  V30 59 H -3.313667 -4.442645 -0.116259 0
M  V30 60 H -4.500476 -2.591944 0.852098 0
M  V30 END ATOM
M  V30 BEGIN BOND
M  V30 1 1 1 2
M  V30 2 1 2 3
M  V30 3 1 2 4
M  V30 4 1 2 5
M  V30 5 2 5 6
M  V30 6 1 6 7
M  V30 7 2 7 8
M  V30 8 1 8 9
M  V30 9 1 9 10
M  V30 10 1 10 11
M  V30 11 2 11 12
M  V30 12 1 12 13
M  V30 13 1 12 14
M  V30 14 2 14 15
M  V30 15 1 15 16
M  V30 16 2 16 17
M  V30 17 1 17 18
M  V30 18 1 18 19
M  V30 19 2 19 20
M  V30 20 1 20 21
M  V30 21 2 21 22
M  V30 22 1 22 23
M  V30 23 1 23 24
M  V30 24 1 24 25
M  V30 25 1 25 26
M  V30 26 1 26 27
M  V30 27 1 27 28
M  V30 28 1 28 29
M  V30 29 1 22 30
M  V30 30 2 30 31
M  V30 31 1 17 32
M  V30 32 2 32 33
M  V30 33 2 9 34
M  V30 34 1 34 5
M  V30 35 1 33 10
M  V30 36 1 33 14
M  V30 37 1 31 19
M  V30 38 1 27 23
M  V30 39 1 29 25
M  V30 40 1 1 35
M  V30 41 1 1 36
M  V30 42 1 1 37
M  V30 43 1 3 38
M  V30 44 1 3 39
M  V30 45 1 3 40
M  V30 46 1 4 41
M  V30 47 1 6 42
M  V30 48 1 7 43
M  V30 49 1 8 44
M  V30 50 1 11 45
M  V30 51 1 15 46
M  V30 52 1 18 47
M  V30 53 1 20 48
M  V30 54 1 21 49
M  V30 55 1 24 50
M  V30 56 1 24 51
M  V30 57 1 25 52 CFG=3
M  V30 58 1 26 53
M  V30 59 1 26 54
M  V30 60 1 27 55 CFG=3
M  V30 61 1 28 56
M  V30 62 1 28 57
M  V30 63 1 29 58
M  V30 64 1 30 59
M  V30 65 1 31 60
M  V30 END BOND
M  V30 END CTAB
M  END
>  <Dataset>  (897) 
ChEMBL_Kinases

>  <Ligand_Instance>  (897) 
nan

>  <PDB_ID>  (897) 
nan

>  <Standardized_SMILES>  (897) 
CC(C)(O)c1cccc(-n2cc(F)c3cnc(Nc4ccc(N5C[C@@H]6C[C@H]5CN6)cc4)nc32)n1

>  <Name>  (897) 
nan

>  <Pocket>  (897) 
nan

>  <ATP_Site>  (897) 
nan

>  <Peripheral>  (897) 
nan

>  <Num_H_Atoms_ProtBoundConf>  (897) 
nan

>  <Num_Resolved_Atoms>  (897) 
nan

>  <Num_Not_Resolved_Atoms>  (897) 
nan

$$$$
CHEMBL4857770
     RDKit          3D

  0  0  0  0  0  0  0  0  0  0999 V3000
M  V30 BEGIN CTAB
M  V30 COUNTS 59 64 0 0 0
M  V30 BEGIN ATOM
M  V30 1 N 7.741911 -0.002664 1.549192 0
M  V30 2 C 7.192315 -1.355470 1.598637 0 CFG=1
M  V30 3 C 6.334574 -1.525602 2.833291 0
M  V30 4 C 5.392974 -0.355727 3.009248 0
M  V30 5 C 4.492272 -0.195977 1.796169 0
M  V30 6 N 5.068882 -0.866196 0.644276 0
M  V30 7 C 4.208030 -0.788480 -0.488130 0
M  V30 8 O 4.429003 -1.272755 -1.631542 0
M  V30 9 C 2.901993 -0.156572 -0.616563 0
M  V30 10 C 2.644328 1.202176 -0.584574 0
M  V30 11 C 1.349693 1.677192 -0.718464 0
M  V30 12 C 0.281612 0.814275 -0.887151 0
M  V30 13 C -1.090440 1.294308 -1.030868 0
M  V30 14 C -1.406512 2.512140 -1.635339 0
M  V30 15 C -2.712172 2.940989 -1.759922 0
M  V30 16 C -3.743767 2.159308 -1.280891 0
M  V30 17 N -5.091841 2.262690 -1.234205 0
M  V30 18 C -5.593563 1.159419 -0.628145 0
M  V30 19 C -4.535284 0.357885 -0.293303 0
M  V30 20 C -4.810814 -0.911673 0.380608 0
M  V30 21 C -4.123505 -1.408062 1.489182 0
M  V30 22 C -4.443385 -2.606824 2.063250 0
M  V30 23 C -5.468870 -3.384461 1.566532 0
M  V30 24 C -5.776527 -4.592045 2.159462 0
M  V30 25 N -6.777443 -5.326951 1.655050 0
M  V30 26 C -7.481731 -4.893128 0.575511 0
M  V30 27 C -7.220231 -3.696036 -0.058328 0
M  V30 28 C -6.197628 -2.951432 0.461583 0
M  V30 29 C -5.824715 -1.731181 -0.072228 0
M  V30 30 N -3.416131 0.986825 -0.700583 0
M  V30 31 C -2.150777 0.529484 -0.558198 0
M  V30 32 C 0.481539 -0.557647 -0.926807 0
M  V30 33 C 1.798142 -0.969325 -0.787432 0
M  V30 34 C 6.303273 -1.583951 0.395915 0
M  V30 35 H 8.493592 0.083388 2.286410 0
M  V30 36 H 8.167735 0.145645 0.595564 0
M  V30 37 H 8.018545 -2.092617 1.649828 0
M  V30 38 H 5.677003 -2.408262 2.630260 0
M  V30 39 H 6.911131 -1.620623 3.756494 0
M  V30 40 H 4.738543 -0.622881 3.863770 0
M  V30 41 H 5.894290 0.591727 3.234073 0
M  V30 42 H 3.508390 -0.708490 1.982515 0
M  V30 43 H 4.314042 0.854832 1.570481 0
M  V30 44 H 3.503833 1.848228 -0.450998 0
M  V30 45 H 1.187201 2.740885 -0.688816 0
M  V30 46 H -0.597776 3.116747 -2.005568 0
M  V30 47 H -2.980120 3.881330 -2.225154 0
M  V30 48 H -6.663332 1.050404 -0.492926 0
M  V30 49 H -3.315323 -0.750826 1.845726 0
M  V30 50 H -3.871837 -2.943327 2.928424 0
M  V30 51 H -5.211857 -4.943827 3.029765 0
M  V30 52 H -8.284157 -5.511914 0.194265 0
M  V30 53 H -7.786622 -3.361103 -0.917346 0
M  V30 54 H -6.408773 -1.426846 -0.926476 0
M  V30 55 H -1.916712 -0.416018 -0.087650 0
M  V30 56 H -0.308679 -1.279168 -1.055354 0
M  V30 57 H 1.952179 -2.057033 -0.819109 0
M  V30 58 H 6.786285 -1.264327 -0.546785 0
M  V30 59 H 6.106083 -2.685394 0.372921 0
M  V30 END ATOM
M  V30 BEGIN BOND
M  V30 1 1 1 2
M  V30 2 1 2 3
M  V30 3 1 3 4
M  V30 4 1 4 5
M  V30 5 1 5 6
M  V30 6 1 6 7
M  V30 7 2 7 8
M  V30 8 1 7 9
M  V30 9 2 9 10
M  V30 10 1 10 11
M  V30 11 2 11 12
M  V30 12 1 12 13
M  V30 13 1 13 14
M  V30 14 2 14 15
M  V30 15 1 15 16
M  V30 16 2 16 17
M  V30 17 1 17 18
M  V30 18 2 18 19
M  V30 19 1 19 20
M  V30 20 2 20 21
M  V30 21 1 21 22
M  V30 22 2 22 23
M  V30 23 1 23 24
M  V30 24 2 24 25
M  V30 25 1 25 26
M  V30 26 2 26 27
M  V30 27 1 27 28
M  V30 28 2 28 29
M  V30 29 1 19 30
M  V30 30 1 30 31
M  V30 31 1 12 32
M  V30 32 2 32 33
M  V30 33 1 6 34
M  V30 34 1 34 2
M  V30 35 1 33 9
M  V30 36 2 31 13
M  V30 37 1 30 16
M  V30 38 1 29 20
M  V30 39 1 28 23
M  V30 40 1 1 35
M  V30 41 1 1 36
M  V30 42 1 2 37 CFG=1
M  V30 43 1 3 38
M  V30 44 1 3 39
M  V30 45 1 4 40
M  V30 46 1 4 41
M  V30 47 1 5 42
M  V30 48 1 5 43
M  V30 49 1 10 44
M  V30 50 1 11 45
M  V30 51 1 14 46
M  V30 52 1 15 47
M  V30 53 1 18 48
M  V30 54 1 21 49
M  V30 55 1 22 50
M  V30 56 1 24 51
M  V30 57 1 26 52
M  V30 58 1 27 53
M  V30 59 1 29 54
M  V30 60 1 31 55
M  V30 61 1 32 56
M  V30 62 1 33 57
M  V30 63 1 34 58
M  V30 64 1 34 59
M  V30 END BOND
M  V30 END CTAB
M  END
>  <Dataset>  (898) 
ChEMBL_Kinases

>  <Ligand_Instance>  (898) 
nan

>  <PDB_ID>  (898) 
nan

>  <Standardized_SMILES>  (898) 
N[C@H]1CCCN(C(=O)c2ccc(-c3ccc4ncc(-c5ccc6cnccc6c5)n4c3)cc2)C1

>  <Name>  (898) 
nan

>  <Pocket>  (898) 
nan

>  <ATP_Site>  (898) 
nan

>  <Peripheral>  (898) 
nan

>  <Num_H_Atoms_ProtBoundConf>  (898) 
nan

>  <Num_Resolved_Atoms>  (898) 
nan

>  <Num_Not_Resolved_Atoms>  (898) 
nan

$$$$
CHEMBL4857156
     RDKit          3D

  0  0  0  0  0  0  0  0  0  0999 V3000
M  V30 BEGIN CTAB
M  V30 COUNTS 57 61 0 0 0
M  V30 BEGIN ATOM
M  V30 1 C 5.002669 -1.318342 -0.183649 0
M  V30 2 O 4.257030 -0.125717 -0.228611 0
M  V30 3 C 3.739079 0.499951 0.905736 0
M  V30 4 C 3.966495 -0.077185 2.163824 0
M  V30 5 C 3.468319 0.515298 3.313948 0
M  V30 6 F 3.684054 -0.036491 4.531569 0
M  V30 7 C 2.745605 1.679785 3.208950 0
M  V30 8 C 2.529585 2.235425 1.967678 0
M  V30 9 C 3.008276 1.676422 0.803354 0
M  V30 10 N 2.780818 2.247019 -0.474355 0
M  V30 11 C 2.015907 3.467631 -0.555138 0
M  V30 12 N 2.555645 4.717700 -0.580879 0
M  V30 13 C 1.739488 5.798162 -0.651683 0
M  V30 14 N 0.381290 5.668294 -0.698775 0
M  V30 15 C -0.112989 4.399076 -0.670964 0
M  V30 16 C -1.487605 4.300194 -0.752504 0
M  V30 17 C -2.008478 3.019096 -0.756481 0
M  V30 18 C -1.228862 1.888073 -0.683469 0
M  V30 19 C -1.785365 0.532448 -0.687145 0
M  V30 20 C -3.142216 0.223866 -0.759978 0
M  V30 21 C -3.517500 -1.104106 -0.755378 0
M  V30 22 C -2.628817 -2.158052 -0.682571 0
M  V30 23 C -3.126535 -3.525526 -0.679702 0
M  V30 24 O -4.081344 -3.933192 -1.401773 0
M  V30 25 N -2.663487 -4.640558 0.101796 0
M  V30 26 C -3.474594 -5.790868 -0.242483 0
M  V30 27 C -3.104255 -7.031587 0.487986 0
M  V30 28 N -2.234563 -6.902670 1.601703 0
M  V30 29 C -2.162782 -5.585827 2.189437 0
M  V30 30 C -1.574825 -4.689148 1.089905 0
M  V30 31 C -1.265241 -1.874826 -0.608994 0
M  V30 32 C -0.912851 -0.541976 -0.615107 0
M  V30 33 N 0.106243 2.033251 -0.603806 0
M  V30 34 C 0.660281 3.232872 -0.597629 0
M  V30 35 H 6.005783 -1.221232 0.252955 0
M  V30 36 H 5.048358 -1.688227 -1.246796 0
M  V30 37 H 4.468918 -2.103718 0.396039 0
M  V30 38 H 4.540031 -0.990055 2.189387 0
M  V30 39 H 2.323568 2.201875 4.059808 0
M  V30 40 H 1.967914 3.151131 1.811431 0
M  V30 41 H 3.153698 1.799295 -1.322548 0
M  V30 42 H 2.259230 6.750237 -0.666114 0
M  V30 43 H -2.165274 5.140680 -0.812293 0
M  V30 44 H -3.083913 2.933589 -0.820520 0
M  V30 45 H -3.823321 1.053722 -0.814383 0
M  V30 46 H -4.573829 -1.339822 -0.813262 0
M  V30 47 H -4.531778 -5.507480 -0.003539 0
M  V30 48 H -3.379407 -5.933511 -1.346008 0
M  V30 49 H -4.046720 -7.605786 0.738086 0
M  V30 50 H -2.588095 -7.715960 -0.238337 0
M  V30 51 H -2.592244 -7.539378 2.352171 0
M  V30 52 H -3.146657 -5.132128 2.414867 0
M  V30 53 H -1.512168 -5.643325 3.074200 0
M  V30 54 H -1.312905 -3.704681 1.461633 0
M  V30 55 H -0.703454 -5.165938 0.636553 0
M  V30 56 H -0.536245 -2.670369 -0.551979 0
M  V30 57 H 0.162052 -0.381160 -0.555074 0
M  V30 END ATOM
M  V30 BEGIN BOND
M  V30 1 1 1 2
M  V30 2 1 2 3
M  V30 3 2 3 4
M  V30 4 1 4 5
M  V30 5 1 5 6
M  V30 6 2 5 7
M  V30 7 1 7 8
M  V30 8 2 8 9
M  V30 9 1 9 10
M  V30 10 1 10 11
M  V30 11 2 11 12
M  V30 12 1 12 13
M  V30 13 2 13 14
M  V30 14 1 14 15
M  V30 15 2 15 16
M  V30 16 1 16 17
M  V30 17 2 17 18
M  V30 18 1 18 19
M  V30 19 2 19 20
M  V30 20 1 20 21
M  V30 21 2 21 22
M  V30 22 1 22 23
M  V30 23 2 23 24
M  V30 24 1 23 25
M  V30 25 1 25 26
M  V30 26 1 26 27
M  V30 27 1 27 28
M  V30 28 1 28 29
M  V30 29 1 29 30
M  V30 30 1 22 31
M  V30 31 2 31 32
M  V30 32 1 18 33
M  V30 33 2 33 34
M  V30 34 1 9 3
M  V30 35 1 34 11
M  V30 36 1 34 15
M  V30 37 1 32 19
M  V30 38 1 30 25
M  V30 39 1 1 35
M  V30 40 1 1 36
M  V30 41 1 1 37
M  V30 42 1 4 38
M  V30 43 1 7 39
M  V30 44 1 8 40
M  V30 45 1 10 41
M  V30 46 1 13 42
M  V30 47 1 16 43
M  V30 48 1 17 44
M  V30 49 1 20 45
M  V30 50 1 21 46
M  V30 51 1 26 47
M  V30 52 1 26 48
M  V30 53 1 27 49
M  V30 54 1 27 50
M  V30 55 1 28 51
M  V30 56 1 29 52
M  V30 57 1 29 53
M  V30 58 1 30 54
M  V30 59 1 30 55
M  V30 60 1 31 56
M  V30 61 1 32 57
M  V30 END BOND
M  V30 END CTAB
M  END
>  <Dataset>  (899) 
ChEMBL_Kinases

>  <Ligand_Instance>  (899) 
nan

>  <PDB_ID>  (899) 
nan

>  <Standardized_SMILES>  (899) 
COc1cc(F)ccc1Nc1ncnc2ccc(-c3ccc(C(=O)N4CCNCC4)cc3)nc12

>  <Name>  (899) 
nan

>  <Pocket>  (899) 
nan

>  <ATP_Site>  (899) 
nan

>  <Peripheral>  (899) 
nan

>  <Num_H_Atoms_ProtBoundConf>  (899) 
nan

>  <Num_Resolved_Atoms>  (899) 
nan

>  <Num_Not_Resolved_Atoms>  (899) 
nan

$$$$
CHEMBL4857159
     RDKit          3D

  0  0  0  0  0  0  0  0  0  0999 V3000
M  V30 BEGIN CTAB
M  V30 COUNTS 40 42 0 0 0
M  V30 BEGIN ATOM
M  V30 1 C -0.417081 -4.328490 1.854219 0
M  V30 2 O -0.234641 -3.299481 0.923844 0
M  V30 3 C 0.979884 -2.642128 0.825746 0
M  V30 4 C 2.067507 -2.939626 1.611340 0
M  V30 5 C 3.261952 -2.263179 1.485971 0
M  V30 6 C 3.371155 -1.256030 0.543582 0
M  V30 7 C 2.250799 -0.973668 -0.241987 0
M  V30 8 C 1.043170 -1.633413 -0.139229 0
M  V30 9 C -0.036428 -1.231215 -1.030445 0
M  V30 10 C -0.356435 -0.017967 -1.441511 0
M  V30 11 N 0.195810 1.267347 -1.185672 0
M  V30 12 C 0.253866 2.008439 0.042247 0
M  V30 13 C 0.841938 3.261697 0.072471 0
M  V30 14 C 0.861743 3.914602 1.283303 0
M  V30 15 C 0.324298 3.357935 2.422623 0
M  V30 16 C -0.250356 2.107621 2.342576 0
M  V30 17 S -0.909018 1.511923 3.911483 0
M  V30 18 C -1.611295 -0.136815 3.587052 0
M  V30 19 C -0.299091 1.408381 1.159797 0
M  V30 20 C -1.522736 -0.098807 -2.337031 0
M  V30 21 O -2.153649 0.821584 -2.950056 0
M  V30 22 N -1.908753 -1.480949 -2.452390 0
M  V30 23 C -0.962402 -2.185854 -1.622698 0
M  V30 24 O -1.083942 -3.436534 -1.550392 0
M  V30 25 H 0.468015 -4.992045 1.925499 0
M  V30 26 H -0.594478 -3.927445 2.886283 0
M  V30 27 H -1.268149 -4.963923 1.526201 0
M  V30 28 H 2.003106 -3.719228 2.350353 0
M  V30 29 H 4.117282 -2.496900 2.103236 0
M  V30 30 H 4.304909 -0.731445 0.450284 0
M  V30 31 H 2.436543 -0.171698 -0.947410 0
M  V30 32 H 0.614059 1.703935 -2.054316 0
M  V30 33 H 1.241313 3.628376 -0.868320 0
M  V30 34 H 1.346414 4.900265 1.215628 0
M  V30 35 H 0.433875 4.013057 3.264896 0
M  V30 36 H -0.745150 -0.775916 3.256462 0
M  V30 37 H -2.006303 -0.578690 4.517299 0
M  V30 38 H -2.376078 -0.075480 2.792810 0
M  V30 39 H -0.768094 0.440900 1.198850 0
M  V30 40 H -2.710080 -1.837581 -3.026771 0
M  V30 END ATOM
M  V30 BEGIN BOND
M  V30 1 1 1 2
M  V30 2 1 2 3
M  V30 3 2 3 4
M  V30 4 1 4 5
M  V30 5 2 5 6
M  V30 6 1 6 7
M  V30 7 2 7 8
M  V30 8 1 8 9
M  V30 9 2 9 10
M  V30 10 1 10 11
M  V30 11 1 11 12
M  V30 12 2 12 13
M  V30 13 1 13 14
M  V30 14 2 14 15
M  V30 15 1 15 16
M  V30 16 1 16 17
M  V30 17 1 17 18
M  V30 18 2 16 19
M  V30 19 1 10 20
M  V30 20 2 20 21
M  V30 21 1 20 22
M  V30 22 1 22 23
M  V30 23 2 23 24
M  V30 24 1 8 3
M  V30 25 1 23 9
M  V30 26 1 19 12
M  V30 27 1 1 25
M  V30 28 1 1 26
M  V30 29 1 1 27
M  V30 30 1 4 28
M  V30 31 1 5 29
M  V30 32 1 6 30
M  V30 33 1 7 31
M  V30 34 1 11 32
M  V30 35 1 13 33
M  V30 36 1 14 34
M  V30 37 1 15 35
M  V30 38 1 18 36
M  V30 39 1 18 37
M  V30 40 1 18 38
M  V30 41 1 19 39
M  V30 42 1 22 40
M  V30 END BOND
M  V30 END CTAB
M  END
>  <Dataset>  (900) 
ChEMBL_Kinases

>  <Ligand_Instance>  (900) 
nan

>  <PDB_ID>  (900) 
nan

>  <Standardized_SMILES>  (900) 
COc1ccccc1C1=C(Nc2cccc(SC)c2)C(=O)NC1=O

>  <Name>  (900) 
nan

>  <Pocket>  (900) 
nan

>  <ATP_Site>  (900) 
nan

>  <Peripheral>  (900) 
nan

>  <Num_H_Atoms_ProtBoundConf>  (900) 
nan

>  <Num_Resolved_Atoms>  (900) 
nan

>  <Num_Not_Resolved_Atoms>  (900) 
nan

$$$$
CHEMBL1512562
     RDKit          3D

  0  0  0  0  0  0  0  0  0  0999 V3000
M  V30 BEGIN CTAB
M  V30 COUNTS 38 40 0 0 0
M  V30 BEGIN ATOM
M  V30 1 C 0.427576 -5.939211 4.087713 0
M  V30 2 O 0.756138 -4.613769 3.662403 0
M  V30 3 C 0.070308 -4.029374 2.605548 0
M  V30 4 C -0.928171 -4.665429 1.929698 0
M  V30 5 C -1.546390 -3.980333 0.885169 0
M  V30 6 C -1.196186 -2.699552 0.508459 0
M  V30 7 C -0.172214 -2.099476 1.231865 0
M  V30 8 C 0.201751 -0.743492 0.836395 0
M  V30 9 N -0.401332 -0.072002 -0.184452 0
M  V30 10 C -0.016491 1.186984 -0.512222 0
M  V30 11 N -0.746327 1.745746 -1.600220 0
M  V30 12 C -1.528878 2.979324 -1.430243 0
M  V30 13 C -0.775654 1.156403 -2.932757 0
M  V30 14 C 1.000079 1.783904 0.205364 0
M  V30 15 C 1.330735 3.059958 -0.189037 0
M  V30 16 C 2.358693 3.665716 0.535329 0
M  V30 17 C 3.000836 3.030328 1.576109 0
M  V30 18 C 2.630358 1.751007 1.930727 0
M  V30 19 C 1.618056 1.113853 1.240965 0
M  V30 20 N 1.183784 -0.110722 1.497032 0
M  V30 21 C 0.474180 -2.748072 2.284700 0
M  V30 22 H -0.667584 -6.121285 4.094585 0
M  V30 23 H 0.750452 -6.107870 5.138876 0
M  V30 24 H 0.969080 -6.674645 3.459416 0
M  V30 25 H -1.232568 -5.661015 2.188865 0
M  V30 26 H -2.348674 -4.473519 0.331747 0
M  V30 27 H -1.694989 -2.187473 -0.310703 0
M  V30 28 H -1.474543 3.368179 -0.406579 0
M  V30 29 H -1.239681 3.732336 -2.169843 0
M  V30 30 H -2.590703 2.639036 -1.600880 0
M  V30 31 H -1.780000 0.703450 -3.065820 0
M  V30 32 H 0.049548 0.447734 -3.099067 0
M  V30 33 H -0.725322 2.009022 -3.652872 0
M  V30 34 H 0.844563 3.566422 -0.991770 0
M  V30 35 H 2.695148 4.686969 0.294866 0
M  V30 36 H 3.795591 3.477732 2.148293 0
M  V30 37 H 3.113363 1.220057 2.744343 0
M  V30 38 H 1.270189 -2.218054 2.810179 0
M  V30 END ATOM
M  V30 BEGIN BOND
M  V30 1 1 1 2
M  V30 2 1 2 3
M  V30 3 2 3 4
M  V30 4 1 4 5
M  V30 5 2 5 6
M  V30 6 1 6 7
M  V30 7 1 7 8
M  V30 8 2 8 9
M  V30 9 1 9 10
M  V30 10 1 10 11
M  V30 11 1 11 12
M  V30 12 1 11 13
M  V30 13 2 10 14
M  V30 14 1 14 15
M  V30 15 2 15 16
M  V30 16 1 16 17
M  V30 17 2 17 18
M  V30 18 1 18 19
M  V30 19 2 19 20
M  V30 20 2 7 21
M  V30 21 1 21 3
M  V30 22 1 20 8
M  V30 23 1 19 14
M  V30 24 1 1 22
M  V30 25 1 1 23
M  V30 26 1 1 24
M  V30 27 1 4 25
M  V30 28 1 5 26
M  V30 29 1 6 27
M  V30 30 1 12 28
M  V30 31 1 12 29
M  V30 32 1 12 30
M  V30 33 1 13 31
M  V30 34 1 13 32
M  V30 35 1 13 33
M  V30 36 1 15 34
M  V30 37 1 16 35
M  V30 38 1 17 36
M  V30 39 1 18 37
M  V30 40 1 21 38
M  V30 END BOND
M  V30 END CTAB
M  END
>  <Dataset>  (901) 
ChEMBL_Kinases

>  <Ligand_Instance>  (901) 
nan

>  <PDB_ID>  (901) 
nan

>  <Standardized_SMILES>  (901) 
COc1cccc(-c2nc(N(C)C)c3ccccc3n2)c1

>  <Name>  (901) 
nan

>  <Pocket>  (901) 
nan

>  <ATP_Site>  (901) 
nan

>  <Peripheral>  (901) 
nan

>  <Num_H_Atoms_ProtBoundConf>  (901) 
nan

>  <Num_Resolved_Atoms>  (901) 
nan

>  <Num_Not_Resolved_Atoms>  (901) 
nan

$$$$
CHEMBL1512023
     RDKit          3D

  0  0  0  0  0  0  0  0  0  0999 V3000
M  V30 BEGIN CTAB
M  V30 COUNTS 36 38 0 0 0
M  V30 BEGIN ATOM
M  V30 1 C -0.929761 -3.646240 1.578867 0
M  V30 2 C -0.038799 -4.399620 0.650562 0
M  V30 3 N 1.352111 -3.994936 0.690249 0
M  V30 4 C 1.858037 -2.709037 0.345874 0
M  V30 5 N 3.170345 -2.481379 0.427976 0
M  V30 6 C 3.796547 -1.339184 0.128824 0
M  V30 7 C 2.990459 -0.310067 -0.304338 0
M  V30 8 N 3.650958 0.841254 -0.616509 0
M  V30 9 C 2.913168 1.899990 -1.066190 0
M  V30 10 C 1.538078 1.706081 -1.165918 0
M  V30 11 O 0.957839 2.727885 -1.585021 0
M  V30 12 N 0.913151 0.558793 -0.850028 0
M  V30 13 C -0.523682 0.450660 -0.994057 0
M  V30 14 C -1.150212 0.920396 0.259283 0
M  V30 15 C -1.581275 2.251386 0.311293 0
M  V30 16 C -2.176137 2.803697 1.427628 0
M  V30 17 C -2.372099 2.038067 2.565395 0
M  V30 18 F -2.943367 2.480152 3.709221 0
M  V30 19 C -1.962617 0.725209 2.554838 0
M  V30 20 C -1.379064 0.234034 1.418869 0
M  V30 21 C 1.630920 -0.489685 -0.407069 0
M  V30 22 N 1.110734 -1.674827 -0.081023 0
M  V30 23 H -1.503357 -4.358933 2.237229 0
M  V30 24 H -0.395451 -2.968048 2.279338 0
M  V30 25 H -1.719069 -3.073786 1.050953 0
M  V30 26 H -0.077799 -5.487781 0.903112 0
M  V30 27 H -0.454636 -4.253115 -0.383356 0
M  V30 28 H 2.072537 -4.714689 1.004160 0
M  V30 29 H 4.869736 -1.245939 0.226450 0
M  V30 30 H 3.431588 2.806623 -1.312588 0
M  V30 31 H -0.835667 1.094882 -1.833541 0
M  V30 32 H -0.819276 -0.592775 -1.239329 0
M  V30 33 H -1.510241 2.980150 -0.481693 0
M  V30 34 H -2.523078 3.812168 1.520960 0
M  V30 35 H -2.087090 0.077220 3.408668 0
M  V30 36 H -1.059866 -0.795480 1.415893 0
M  V30 END ATOM
M  V30 BEGIN BOND
M  V30 1 1 1 2
M  V30 2 1 2 3
M  V30 3 1 3 4
M  V30 4 2 4 5
M  V30 5 1 5 6
M  V30 6 2 6 7
M  V30 7 1 7 8
M  V30 8 2 8 9
M  V30 9 1 9 10
M  V30 10 2 10 11
M  V30 11 1 10 12
M  V30 12 1 12 13
M  V30 13 1 13 14
M  V30 14 2 14 15
M  V30 15 1 15 16
M  V30 16 2 16 17
M  V30 17 1 17 18
M  V30 18 1 17 19
M  V30 19 2 19 20
M  V30 20 1 12 21
M  V30 21 2 21 22
M  V30 22 1 22 4
M  V30 23 1 21 7
M  V30 24 1 20 14
M  V30 25 1 1 23
M  V30 26 1 1 24
M  V30 27 1 1 25
M  V30 28 1 2 26
M  V30 29 1 2 27
M  V30 30 1 3 28
M  V30 31 1 6 29
M  V30 32 1 9 30
M  V30 33 1 13 31
M  V30 34 1 13 32
M  V30 35 1 15 33
M  V30 36 1 16 34
M  V30 37 1 19 35
M  V30 38 1 20 36
M  V30 END BOND
M  V30 END CTAB
M  END
>  <Dataset>  (902) 
ChEMBL_Kinases

>  <Ligand_Instance>  (902) 
nan

>  <PDB_ID>  (902) 
nan

>  <Standardized_SMILES>  (902) 
CCNc1ncc2ncc(=O)n(Cc3ccc(F)cc3)c2n1

>  <Name>  (902) 
nan

>  <Pocket>  (902) 
nan

>  <ATP_Site>  (902) 
nan

>  <Peripheral>  (902) 
nan

>  <Num_H_Atoms_ProtBoundConf>  (902) 
nan

>  <Num_Resolved_Atoms>  (902) 
nan

>  <Num_Not_Resolved_Atoms>  (902) 
nan

$$$$
CHEMBL4857253
     RDKit          3D

  0  0  0  0  0  0  0  0  0  0999 V3000
M  V30 BEGIN CTAB
M  V30 COUNTS 48 51 0 0 0
M  V30 BEGIN ATOM
M  V30 1 O 1.813652 -4.016519 3.924924 0
M  V30 2 C 1.177878 -4.118654 2.835750 0
M  V30 3 O 1.027939 -5.492639 2.806186 0
M  V30 4 C 0.781457 -3.009158 1.959403 0
M  V30 5 C 1.164009 -1.773773 2.436058 0
M  V30 6 C 0.816371 -0.682652 1.661751 0
M  V30 7 C 0.127558 -0.761274 0.472784 0
M  V30 8 C -0.214558 0.419445 -0.305508 0
M  V30 9 C -0.903230 0.319842 -1.490984 0
M  V30 10 C -1.222059 1.436447 -2.218800 0
M  V30 11 N -0.843384 2.613356 -1.739695 0
M  V30 12 C -0.170354 2.783444 -0.592344 0
M  V30 13 N 0.171926 4.100148 -0.198226 0
M  V30 14 C 0.871777 4.539286 0.954513 0
M  V30 15 C 1.123331 5.891441 1.185141 0
M  V30 16 C 1.798789 6.337628 2.294282 0
M  V30 17 C 2.265955 5.460613 3.243777 0
M  V30 18 C 2.043685 4.112068 3.063658 0
M  V30 19 C 1.362305 3.718481 1.936100 0
M  V30 20 N 0.110870 1.657447 0.071350 0
M  V30 21 C -0.228312 -2.017822 0.045645 0
M  V30 22 C 0.080153 -3.157175 0.758934 0
M  V30 23 C -0.278190 -4.519657 0.329588 0
M  V30 24 C -1.547881 -5.050862 0.878167 0
M  V30 25 C -2.581240 -4.258428 0.116523 0
M  V30 26 C -2.012724 -4.391025 -1.303542 0
M  V30 27 C -0.554325 -4.603875 -1.156109 0
M  V30 28 H 0.367642 -5.944282 3.425560 0
M  V30 29 H 1.706551 -1.618302 3.358099 0
M  V30 30 H 1.098847 0.294761 2.003684 0
M  V30 31 H -1.231732 -0.611864 -1.920341 0
M  V30 32 H -1.768195 1.376756 -3.161886 0
M  V30 33 H -0.123332 4.888520 -0.834475 0
M  V30 34 H 0.773057 6.626073 0.461365 0
M  V30 35 H 1.954058 7.401976 2.401283 0
M  V30 36 H 2.796538 5.821506 4.113420 0
M  V30 37 H 2.411620 3.430815 3.810013 0
M  V30 38 H 1.229462 2.661978 1.866996 0
M  V30 39 H -0.758235 -2.225411 -0.847895 0
M  V30 40 H 0.604815 -5.190320 0.555253 0
M  V30 41 H -1.623202 -6.109441 0.556357 0
M  V30 42 H -1.679153 -5.041393 1.959348 0
M  V30 43 H -2.565229 -3.230501 0.486755 0
M  V30 44 H -3.592382 -4.702972 0.183845 0
M  V30 45 H -2.499559 -5.335452 -1.691059 0
M  V30 46 H -2.345328 -3.606205 -1.977641 0
M  V30 47 H -0.277303 -5.651470 -1.470773 0
M  V30 48 H 0.083690 -3.938118 -1.752506 0
M  V30 END ATOM
M  V30 BEGIN BOND
M  V30 1 2 1 2
M  V30 2 1 2 3
M  V30 3 1 2 4
M  V30 4 2 4 5
M  V30 5 1 5 6
M  V30 6 2 6 7
M  V30 7 1 7 8
M  V30 8 2 8 9
M  V30 9 1 9 10
M  V30 10 2 10 11
M  V30 11 1 11 12
M  V30 12 1 12 13
M  V30 13 1 13 14
M  V30 14 2 14 15
M  V30 15 1 15 16
M  V30 16 2 16 17
M  V30 17 1 17 18
M  V30 18 2 18 19
M  V30 19 2 12 20
M  V30 20 1 7 21
M  V30 21 2 21 22
M  V30 22 1 22 23
M  V30 23 1 23 24
M  V30 24 1 24 25
M  V30 25 1 25 26
M  V30 26 1 26 27
M  V30 27 1 22 4
M  V30 28 1 27 23
M  V30 29 1 20 8
M  V30 30 1 19 14
M  V30 31 1 3 28
M  V30 32 1 5 29
M  V30 33 1 6 30
M  V30 34 1 9 31
M  V30 35 1 10 32
M  V30 36 1 13 33
M  V30 37 1 15 34
M  V30 38 1 16 35
M  V30 39 1 17 36
M  V30 40 1 18 37
M  V30 41 1 19 38
M  V30 42 1 21 39
M  V30 43 1 23 40
M  V30 44 1 24 41
M  V30 45 1 24 42
M  V30 46 1 25 43
M  V30 47 1 25 44
M  V30 48 1 26 45
M  V30 49 1 26 46
M  V30 50 1 27 47
M  V30 51 1 27 48
M  V30 END BOND
M  V30 END CTAB
M  END
>  <Dataset>  (903) 
ChEMBL_Kinases

>  <Ligand_Instance>  (903) 
nan

>  <PDB_ID>  (903) 
nan

>  <Standardized_SMILES>  (903) 
O=C(O)c1ccc(-c2ccnc(Nc3ccccc3)n2)cc1C1CCCC1

>  <Name>  (903) 
nan

>  <Pocket>  (903) 
nan

>  <ATP_Site>  (903) 
nan

>  <Peripheral>  (903) 
nan

>  <Num_H_Atoms_ProtBoundConf>  (903) 
nan

>  <Num_Resolved_Atoms>  (903) 
nan

>  <Num_Not_Resolved_Atoms>  (903) 
nan

$$$$
CHEMBL4866810
     RDKit          3D

  0  0  0  0  0  0  0  0  0  0999 V3000
M  V30 BEGIN CTAB
M  V30 COUNTS 51 54 0 0 0
M  V30 BEGIN ATOM
M  V30 1 C 2.550680 -4.777601 3.388220 0
M  V30 2 N 3.111857 -3.917191 4.404064 0
M  V30 3 N 3.861275 -4.313669 5.402244 0
M  V30 4 C 4.234063 -3.278362 6.184596 0
M  V30 5 C 3.688374 -2.123310 5.658680 0
M  V30 6 C 2.991218 -2.584910 4.537538 0
M  V30 7 C 2.230949 -1.738639 3.627855 0
M  V30 8 C 2.669412 -0.534841 3.121065 0
M  V30 9 C 1.904187 0.222627 2.262987 0
M  V30 10 C 0.630048 -0.195508 1.858030 0
M  V30 11 C -0.055298 0.711519 0.950150 0
M  V30 12 O 0.449017 1.795295 0.550394 0
M  V30 13 N -1.328412 0.556576 0.385524 0
M  V30 14 C -1.932033 1.503046 -0.504109 0 CFG=2
M  V30 15 C -3.244138 2.056147 -0.009723 0
M  V30 16 N -3.910068 2.668717 -1.125566 0
M  V30 17 C -3.012190 3.059604 -2.191429 0
M  V30 18 C -2.361012 1.854893 -2.863606 0
M  V30 19 C -2.255193 0.799710 -1.811320 0 CFG=1
M  V30 20 C -1.299741 -0.286820 -2.105562 0
M  V30 21 C -1.686684 -1.607524 -2.218092 0
M  V30 22 C -0.866275 -2.680312 -2.489158 0
M  V30 23 F -1.357957 -3.926713 -2.575326 0
M  V30 24 C 0.470841 -2.370993 -2.660157 0
M  V30 25 C 0.936176 -1.065722 -2.562067 0
M  V30 26 F 2.266677 -0.838640 -2.742834 0
M  V30 27 C 0.053519 -0.029299 -2.285931 0
M  V30 28 C 0.229256 -1.401900 2.385909 0
M  V30 29 F -0.990817 -1.809560 2.002569 0
M  V30 30 C 0.981617 -2.161676 3.238730 0
M  V30 31 H 2.440953 -4.290979 2.412130 0
M  V30 32 H 3.267421 -5.628667 3.229653 0
M  V30 33 H 1.615715 -5.260115 3.757257 0
M  V30 34 H 4.846565 -3.244568 7.083400 0
M  V30 35 H 3.742071 -1.091014 5.976169 0
M  V30 36 H 3.640006 -0.185155 3.410564 0
M  V30 37 H 2.327487 1.155107 1.913741 0
M  V30 38 H -1.882592 -0.296275 0.618655 0
M  V30 39 H -1.281956 2.382239 -0.703674 0
M  V30 40 H -3.073338 2.786061 0.822490 0
M  V30 41 H -3.872594 1.191329 0.298154 0
M  V30 42 H -4.383809 3.542455 -0.818333 0
M  V30 43 H -3.690059 3.509424 -2.973703 0
M  V30 44 H -2.286513 3.825709 -1.908781 0
M  V30 45 H -2.930598 1.536377 -3.757118 0
M  V30 46 H -1.334525 2.157997 -3.155729 0
M  V30 47 H -3.267130 0.323529 -1.713820 0
M  V30 48 H -2.741616 -1.828193 -2.080085 0
M  V30 49 H 1.160204 -3.188156 -2.876848 0
M  V30 50 H 0.429640 0.983263 -2.212236 0
M  V30 51 H 0.563025 -3.092021 3.589098 0
M  V30 END ATOM
M  V30 BEGIN BOND
M  V30 1 1 1 2
M  V30 2 1 2 3
M  V30 3 2 3 4
M  V30 4 1 4 5
M  V30 5 2 5 6
M  V30 6 1 6 7
M  V30 7 2 7 8
M  V30 8 1 8 9
M  V30 9 2 9 10
M  V30 10 1 10 11
M  V30 11 2 11 12
M  V30 12 1 11 13
M  V30 13 1 13 14
M  V30 14 1 14 15
M  V30 15 1 15 16
M  V30 16 1 16 17
M  V30 17 1 17 18
M  V30 18 1 18 19
M  V30 19 1 19 20
M  V30 20 2 20 21
M  V30 21 1 21 22
M  V30 22 1 22 23
M  V30 23 2 22 24
M  V30 24 1 24 25
M  V30 25 1 25 26
M  V30 26 2 25 27
M  V30 27 1 10 28
M  V30 28 1 28 29
M  V30 29 2 28 30
M  V30 30 1 6 2
M  V30 31 1 30 7
M  V30 32 1 19 14
M  V30 33 1 27 20
M  V30 34 1 1 31
M  V30 35 1 1 32
M  V30 36 1 1 33
M  V30 37 1 4 34
M  V30 38 1 5 35
M  V30 39 1 8 36
M  V30 40 1 9 37
M  V30 41 1 13 38
M  V30 42 1 14 39 CFG=3
M  V30 43 1 15 40
M  V30 44 1 15 41
M  V30 45 1 16 42
M  V30 46 1 17 43
M  V30 47 1 17 44
M  V30 48 1 18 45
M  V30 49 1 18 46
M  V30 50 1 19 47 CFG=1
M  V30 51 1 21 48
M  V30 52 1 24 49
M  V30 53 1 27 50
M  V30 54 1 30 51
M  V30 END BOND
M  V30 END CTAB
M  END
>  <Dataset>  (904) 
ChEMBL_Kinases

>  <Ligand_Instance>  (904) 
nan

>  <PDB_ID>  (904) 
nan

>  <Standardized_SMILES>  (904) 
Cn1nccc1-c1ccc(C(=O)N[C@@H]2CNCC[C@H]2c2cc(F)cc(F)c2)c(F)c1

>  <Name>  (904) 
nan

>  <Pocket>  (904) 
nan

>  <ATP_Site>  (904) 
nan

>  <Peripheral>  (904) 
nan

>  <Num_H_Atoms_ProtBoundConf>  (904) 
nan

>  <Num_Resolved_Atoms>  (904) 
nan

>  <Num_Not_Resolved_Atoms>  (904) 
nan

$$$$
CHEMBL4857347
     RDKit          3D

  0  0  0  0  0  0  0  0  0  0999 V3000
M  V30 BEGIN CTAB
M  V30 COUNTS 44 47 0 0 0
M  V30 BEGIN ATOM
M  V30 1 N 0.287997 -6.238341 -0.433810 0
M  V30 2 C 0.877481 -5.348927 -0.866369 0
M  V30 3 C 1.602538 -4.233669 -1.404715 0
M  V30 4 C 2.985342 -4.349603 -1.411062 0
M  V30 5 C 3.740331 -3.301669 -1.920200 0
M  V30 6 C 3.098736 -2.187817 -2.399608 0
M  V30 7 C 1.727937 -2.032339 -2.411734 0
M  V30 8 C 1.004326 -0.839495 -2.922625 0
M  V30 9 N 0.848378 0.069018 -1.798984 0
M  V30 10 C 1.910388 0.993192 -1.642427 0
M  V30 11 C 1.744041 2.080341 -0.654081 0
M  V30 12 O 1.421852 1.731659 0.651267 0
M  V30 13 C 0.269911 1.094321 1.136831 0
M  V30 14 C -0.062107 1.337276 2.463864 0
M  V30 15 C -1.191932 0.723509 2.971568 0
M  V30 16 C -1.500850 1.008539 4.371500 0
M  V30 17 C -2.813279 1.032123 4.830311 0
M  V30 18 C -3.040598 1.309244 6.172964 0
M  V30 19 N -2.030775 1.552924 7.031094 0
M  V30 20 C -0.759179 1.538227 6.624357 0
M  V30 21 C -0.486616 1.264177 5.283866 0
M  V30 22 C -1.982677 -0.109605 2.203878 0
M  V30 23 C -1.669744 -0.364686 0.880903 0
M  V30 24 C -0.534681 0.252462 0.372466 0
M  V30 25 C -0.367229 -0.140445 -1.048189 0
M  V30 26 O -1.328736 -0.688314 -1.648244 0
M  V30 27 C 1.005114 -3.091250 -1.899027 0
M  V30 28 H 3.506656 -5.227819 -1.033695 0
M  V30 29 H 4.836471 -3.356254 -1.942128 0
M  V30 30 H 3.694875 -1.377802 -2.794179 0
M  V30 31 H 0.039597 -1.180979 -3.346859 0
M  V30 32 H 1.592656 -0.386168 -3.745111 0
M  V30 33 H 2.059021 1.480672 -2.635776 0
M  V30 34 H 2.850989 0.426116 -1.460081 0
M  V30 35 H 1.009929 2.851776 -0.984520 0
M  V30 36 H 2.722971 2.618789 -0.594276 0
M  V30 37 H 0.598150 1.999290 3.010517 0
M  V30 38 H -3.600884 0.831619 4.112979 0
M  V30 39 H -4.091105 1.301583 6.416214 0
M  V30 40 H 0.050545 1.737289 7.329766 0
M  V30 41 H 0.548855 1.256536 4.972106 0
M  V30 42 H -2.864467 -0.573952 2.640501 0
M  V30 43 H -2.255262 -1.008778 0.237369 0
M  V30 44 H -0.057083 -3.123590 -1.839035 0
M  V30 END ATOM
M  V30 BEGIN BOND
M  V30 1 3 1 2
M  V30 2 1 2 3
M  V30 3 2 3 4
M  V30 4 1 4 5
M  V30 5 2 5 6
M  V30 6 1 6 7
M  V30 7 1 7 8
M  V30 8 1 8 9
M  V30 9 1 9 10
M  V30 10 1 10 11
M  V30 11 1 11 12
M  V30 12 1 12 13
M  V30 13 2 13 14
M  V30 14 1 14 15
M  V30 15 1 15 16
M  V30 16 2 16 17
M  V30 17 1 17 18
M  V30 18 2 18 19
M  V30 19 1 19 20
M  V30 20 2 20 21
M  V30 21 2 15 22
M  V30 22 1 22 23
M  V30 23 2 23 24
M  V30 24 1 24 25
M  V30 25 2 25 26
M  V30 26 2 7 27
M  V30 27 1 27 3
M  V30 28 1 25 9
M  V30 29 1 24 13
M  V30 30 1 21 16
M  V30 31 1 4 28
M  V30 32 1 5 29
M  V30 33 1 6 30
M  V30 34 1 8 31
M  V30 35 1 8 32
M  V30 36 1 10 33
M  V30 37 1 10 34
M  V30 38 1 11 35
M  V30 39 1 11 36
M  V30 40 1 14 37
M  V30 41 1 17 38
M  V30 42 1 18 39
M  V30 43 1 20 40
M  V30 44 1 21 41
M  V30 45 1 22 42
M  V30 46 1 23 43
M  V30 47 1 27 44
M  V30 END BOND
M  V30 END CTAB
M  END
>  <Dataset>  (905) 
ChEMBL_Kinases

>  <Ligand_Instance>  (905) 
nan

>  <PDB_ID>  (905) 
nan

>  <Standardized_SMILES>  (905) 
N#Cc1cccc(CN2CCOc3cc(-c4ccncc4)ccc3C2=O)c1

>  <Name>  (905) 
nan

>  <Pocket>  (905) 
nan

>  <ATP_Site>  (905) 
nan

>  <Peripheral>  (905) 
nan

>  <Num_H_Atoms_ProtBoundConf>  (905) 
nan

>  <Num_Resolved_Atoms>  (905) 
nan

>  <Num_Not_Resolved_Atoms>  (905) 
nan

$$$$
CHEMBL4866741
     RDKit          3D

  0  0  0  0  0  0  0  0  0  0999 V3000
M  V30 BEGIN CTAB
M  V30 COUNTS 50 54 0 0 0
M  V30 BEGIN ATOM
M  V30 1 O 3.883839 -5.062992 0.096463 0
M  V30 2 C 2.726080 -4.517091 0.069878 0
M  V30 3 O 2.171633 -5.738420 0.387387 0
M  V30 4 C 2.409082 -3.102330 -0.219624 0
M  V30 5 C 3.559843 -2.387763 -0.477002 0
M  V30 6 C 3.416489 -1.048438 -0.767820 0
M  V30 7 C 2.143128 -0.516794 -0.781993 0
M  V30 8 C 2.020052 0.906571 -1.095951 0
M  V30 9 C 2.620128 1.649276 -2.120182 0
M  V30 10 O 2.213289 2.901973 -2.016625 0
M  V30 11 C 1.392872 3.057586 -1.010157 0
M  V30 12 N 0.753283 4.149612 -0.551684 0
M  V30 13 C -0.057957 4.070398 0.522684 0
M  V30 14 C -0.262197 2.876736 1.188389 0
M  V30 15 C -1.140168 2.761030 2.362642 0
M  V30 16 C -0.807400 1.803846 3.324458 0
M  V30 17 C -1.565710 1.605189 4.477327 0
M  V30 18 C -2.678997 2.405208 4.635653 0
M  V30 19 C -3.043663 3.366721 3.704407 0
M  V30 20 C -2.262735 3.531051 2.573715 0
M  V30 21 C 0.409219 1.770103 0.693552 0
M  V30 22 C 1.242235 1.808654 -0.395539 0
M  V30 23 C 1.024616 -1.276126 -0.517391 0
M  V30 24 C 1.124493 -2.596233 -0.227003 0
M  V30 25 C -0.013038 -3.505617 0.066423 0
M  V30 26 C -0.633831 -4.070933 -1.167223 0
M  V30 27 C -2.044688 -4.392204 -0.723515 0
M  V30 28 C -2.384291 -3.051931 -0.045908 0
M  V30 29 C -1.124557 -2.795011 0.775107 0
M  V30 30 H 1.990407 -5.956500 1.357819 0
M  V30 31 H 4.563628 -2.763316 -0.475512 0
M  V30 32 H 4.269902 -0.408327 -0.983393 0
M  V30 33 H 3.281047 1.153189 -2.806155 0
M  V30 34 H -0.586969 4.923088 0.919239 0
M  V30 35 H 0.068526 1.152258 3.230822 0
M  V30 36 H -1.266233 0.844211 5.202029 0
M  V30 37 H -3.274314 2.267421 5.515234 0
M  V30 38 H -3.917944 3.952193 3.888929 0
M  V30 39 H -2.516388 4.276311 1.818517 0
M  V30 40 H 0.265369 0.828633 1.198006 0
M  V30 41 H 0.087954 -0.786662 -0.557590 0
M  V30 42 H 0.323677 -4.379881 0.673925 0
M  V30 43 H -0.759399 -3.314002 -1.990107 0
M  V30 44 H -0.101786 -4.978348 -1.524117 0
M  V30 45 H -2.028070 -5.167472 0.050310 0
M  V30 46 H -2.728827 -4.622457 -1.547072 0
M  V30 47 H -3.295524 -3.108908 0.548549 0
M  V30 48 H -2.391786 -2.256283 -0.818117 0
M  V30 49 H -1.277794 -3.175066 1.811796 0
M  V30 50 H -0.895002 -1.723592 0.895687 0
M  V30 END ATOM
M  V30 BEGIN BOND
M  V30 1 2 1 2
M  V30 2 1 2 3
M  V30 3 1 2 4
M  V30 4 2 4 5
M  V30 5 1 5 6
M  V30 6 2 6 7
M  V30 7 1 7 8
M  V30 8 2 8 9
M  V30 9 1 9 10
M  V30 10 1 10 11
M  V30 11 2 11 12
M  V30 12 1 12 13
M  V30 13 2 13 14
M  V30 14 1 14 15
M  V30 15 2 15 16
M  V30 16 1 16 17
M  V30 17 2 17 18
M  V30 18 1 18 19
M  V30 19 2 19 20
M  V30 20 1 14 21
M  V30 21 2 21 22
M  V30 22 1 7 23
M  V30 23 2 23 24
M  V30 24 1 24 25
M  V30 25 1 25 26
M  V30 26 1 26 27
M  V30 27 1 27 28
M  V30 28 1 28 29
M  V30 29 1 24 4
M  V30 30 1 29 25
M  V30 31 1 22 8
M  V30 32 1 22 11
M  V30 33 1 20 15
M  V30 34 1 3 30
M  V30 35 1 5 31
M  V30 36 1 6 32
M  V30 37 1 9 33
M  V30 38 1 13 34
M  V30 39 1 16 35
M  V30 40 1 17 36
M  V30 41 1 18 37
M  V30 42 1 19 38
M  V30 43 1 20 39
M  V30 44 1 21 40
M  V30 45 1 23 41
M  V30 46 1 25 42
M  V30 47 1 26 43
M  V30 48 1 26 44
M  V30 49 1 27 45
M  V30 50 1 27 46
M  V30 51 1 28 47
M  V30 52 1 28 48
M  V30 53 1 29 49
M  V30 54 1 29 50
M  V30 END BOND
M  V30 END CTAB
M  END
>  <Dataset>  (906) 
ChEMBL_Kinases

>  <Ligand_Instance>  (906) 
nan

>  <PDB_ID>  (906) 
nan

>  <Standardized_SMILES>  (906) 
O=C(O)c1ccc(-c2coc3ncc(-c4ccccc4)cc23)cc1C1CCCC1

>  <Name>  (906) 
nan

>  <Pocket>  (906) 
nan

>  <ATP_Site>  (906) 
nan

>  <Peripheral>  (906) 
nan

>  <Num_H_Atoms_ProtBoundConf>  (906) 
nan

>  <Num_Resolved_Atoms>  (906) 
nan

>  <Num_Not_Resolved_Atoms>  (906) 
nan

$$$$
CHEMBL4857509
     RDKit          3D

  0  0  0  0  0  0  0  0  0  0999 V3000
M  V30 BEGIN CTAB
M  V30 COUNTS 58 63 0 0 0
M  V30 BEGIN ATOM
M  V30 1 N 5.910723 -3.595981 1.163990 0
M  V30 2 C 5.329643 -2.549461 0.366601 0
M  V30 3 C 4.931081 -1.428023 1.310731 0
M  V30 4 C 4.482067 -0.199257 0.600712 0
M  V30 5 N 4.609171 -0.246634 -0.840051 0
M  V30 6 C 3.600377 0.244176 -1.747684 0
M  V30 7 O 3.744021 0.190291 -3.012653 0
M  V30 8 C 2.395599 0.809195 -1.093261 0
M  V30 9 C 2.242255 2.070732 -0.557678 0
M  V30 10 C 1.035017 2.413655 0.014638 0
M  V30 11 C -0.032938 1.545470 0.075716 0
M  V30 12 C -1.281173 1.973770 0.689723 0
M  V30 13 C -2.398633 1.178105 0.793276 0
M  V30 14 N -3.578455 1.526229 1.348355 0
M  V30 15 C -4.747147 0.832808 1.503509 0
M  V30 16 C -4.985390 -0.557103 1.053463 0
M  V30 17 C -6.125644 -0.880449 0.311135 0
M  V30 18 C -6.335129 -2.182303 -0.093068 0
M  V30 19 C -5.431492 -3.188920 0.223612 0
M  V30 20 C -5.572607 -4.523158 -0.148082 0
M  V30 21 N -4.692230 -5.468800 0.166810 0
M  V30 22 C -3.587869 -5.208962 0.874882 0
M  V30 23 C -3.403429 -3.878427 1.271401 0
M  V30 24 C -4.307364 -2.880157 0.953713 0
M  V30 25 C -4.118464 -1.571325 1.346978 0
M  V30 26 C -5.597302 1.728804 2.140611 0
M  V30 27 N -4.917438 2.884925 2.333195 0
M  V30 28 C -3.687206 2.764734 1.851740 0
M  V30 29 C -2.577060 3.614818 1.771284 0
M  V30 30 N -1.406234 3.211595 1.199217 0
M  V30 31 C 0.149627 0.293657 -0.467076 0
M  V30 32 C 1.347183 -0.118970 -1.062379 0
M  V30 33 C 5.825444 -0.825427 -1.373202 0
M  V30 34 C 6.370976 -1.947813 -0.559084 0
M  V30 35 H 6.190266 -3.296301 2.119262 0
M  V30 36 H 5.237509 -4.382598 1.251209 0
M  V30 37 H 4.436290 -2.887862 -0.165280 0
M  V30 38 H 5.860434 -1.209430 1.914503 0
M  V30 39 H 4.175781 -1.762499 2.070088 0
M  V30 40 H 3.391593 -0.039538 0.849401 0
M  V30 41 H 5.007411 0.681901 1.037392 0
M  V30 42 H 3.111463 2.692131 -0.638035 0
M  V30 43 H 1.002141 3.436555 0.415225 0
M  V30 44 H -2.351076 0.178589 0.394972 0
M  V30 45 H -6.852073 -0.123889 0.045932 0
M  V30 46 H -7.176441 -2.521765 -0.662652 0
M  V30 47 H -6.467883 -4.746882 -0.725405 0
M  V30 48 H -2.823285 -5.925104 1.170551 0
M  V30 49 H -2.508369 -3.628982 1.853291 0
M  V30 50 H -3.214076 -1.399232 1.926571 0
M  V30 51 H -6.622012 1.473344 2.408182 0
M  V30 52 H -2.715312 4.609060 2.193099 0
M  V30 53 H -0.646790 -0.439174 -0.454310 0
M  V30 54 H 1.409438 -1.132417 -1.470574 0
M  V30 55 H 5.541749 -1.265703 -2.375256 0
M  V30 56 H 6.560360 -0.035342 -1.550740 0
M  V30 57 H 7.213526 -1.588208 0.069012 0
M  V30 58 H 6.793983 -2.756299 -1.200245 0
M  V30 END ATOM
M  V30 BEGIN BOND
M  V30 1 1 1 2
M  V30 2 1 2 3
M  V30 3 1 3 4
M  V30 4 1 4 5
M  V30 5 1 5 6
M  V30 6 2 6 7
M  V30 7 1 6 8
M  V30 8 2 8 9
M  V30 9 1 9 10
M  V30 10 2 10 11
M  V30 11 1 11 12
M  V30 12 2 12 13
M  V30 13 1 13 14
M  V30 14 1 14 15
M  V30 15 1 15 16
M  V30 16 2 16 17
M  V30 17 1 17 18
M  V30 18 2 18 19
M  V30 19 1 19 20
M  V30 20 2 20 21
M  V30 21 1 21 22
M  V30 22 2 22 23
M  V30 23 1 23 24
M  V30 24 2 24 25
M  V30 25 2 15 26
M  V30 26 1 26 27
M  V30 27 2 27 28
M  V30 28 1 28 29
M  V30 29 2 29 30
M  V30 30 1 11 31
M  V30 31 2 31 32
M  V30 32 1 5 33
M  V30 33 1 33 34
M  V30 34 1 34 2
M  V30 35 1 32 8
M  V30 36 1 30 12
M  V30 37 1 28 14
M  V30 38 1 25 16
M  V30 39 1 24 19
M  V30 40 1 1 35
M  V30 41 1 1 36
M  V30 42 1 2 37
M  V30 43 1 3 38
M  V30 44 1 3 39
M  V30 45 1 4 40
M  V30 46 1 4 41
M  V30 47 1 9 42
M  V30 48 1 10 43
M  V30 49 1 13 44
M  V30 50 1 17 45
M  V30 51 1 18 46
M  V30 52 1 20 47
M  V30 53 1 22 48
M  V30 54 1 23 49
M  V30 55 1 25 50
M  V30 56 1 26 51
M  V30 57 1 29 52
M  V30 58 1 31 53
M  V30 59 1 32 54
M  V30 60 1 33 55
M  V30 61 1 33 56
M  V30 62 1 34 57
M  V30 63 1 34 58
M  V30 END BOND
M  V30 END CTAB
M  END
>  <Dataset>  (907) 
ChEMBL_Kinases

>  <Ligand_Instance>  (907) 
nan

>  <PDB_ID>  (907) 
nan

>  <Standardized_SMILES>  (907) 
NC1CCN(C(=O)c2ccc(-c3cn4c(-c5ccc6cnccc6c5)cnc4cn3)cc2)CC1

>  <Name>  (907) 
nan

>  <Pocket>  (907) 
nan

>  <ATP_Site>  (907) 
nan

>  <Peripheral>  (907) 
nan

>  <Num_H_Atoms_ProtBoundConf>  (907) 
nan

>  <Num_Resolved_Atoms>  (907) 
nan

>  <Num_Not_Resolved_Atoms>  (907) 
nan

$$$$
CHEMBL4866649
     RDKit          3D

  0  0  0  0  0  0  0  0  0  0999 V3000
M  V30 BEGIN CTAB
M  V30 COUNTS 44 47 0 0 0
M  V30 BEGIN ATOM
M  V30 1 N -4.235285 2.114683 1.271201 0
M  V30 2 C -3.119062 2.937530 1.570394 0
M  V30 3 O -3.853824 3.366808 2.487819 0
M  V30 4 C -1.899427 2.876670 0.795602 0
M  V30 5 C -1.865522 2.064780 -0.312843 0
M  V30 6 C -0.663930 2.088726 -0.957373 0
M  V30 7 C 0.409037 2.841340 -0.550401 0
M  V30 8 N 1.670376 2.888297 -1.191726 0
M  V30 9 S 2.445983 1.445966 -1.740960 0
M  V30 10 O 1.504797 0.746649 -2.669070 0
M  V30 11 O 3.738353 1.805907 -2.438047 0
M  V30 12 C 2.773650 0.370084 -0.393862 0
M  V30 13 C 3.941252 0.380743 0.338485 0
M  V30 14 C 4.081323 -0.516821 1.372887 0
M  V30 15 C 3.106330 -1.431170 1.715046 0
M  V30 16 C 1.922121 -1.469042 1.000777 0
M  V30 17 C 0.797007 -2.388328 1.249822 0
M  V30 18 N -0.471194 -1.884757 1.259317 0
M  V30 19 N -1.325137 -2.891865 1.502265 0
M  V30 20 C -0.648453 -4.058811 1.654820 0
M  V30 21 C -0.959081 -5.375769 1.909454 0
M  V30 22 C 0.044766 -6.346571 2.001576 0
M  V30 23 F -0.310085 -7.624686 2.252158 0
M  V30 24 C 1.356869 -5.949893 1.830400 0
M  V30 25 C 1.712021 -4.620591 1.570148 0
M  V30 26 C 0.664495 -3.719635 1.493792 0
M  V30 27 C 1.799126 -0.548678 -0.046976 0
M  V30 28 C 0.337568 3.647460 0.572013 0
M  V30 29 C -0.873270 3.661185 1.271333 0
M  V30 30 H -5.041891 1.928470 0.607385 0
M  V30 31 H -4.955050 1.367278 1.313749 0
M  V30 32 H -2.676672 1.466020 -0.659338 0
M  V30 33 H -0.548183 1.469881 -1.854787 0
M  V30 34 H 2.155393 3.823849 -1.341521 0
M  V30 35 H 4.705703 1.101062 0.067168 0
M  V30 36 H 5.008773 -0.498741 1.943626 0
M  V30 37 H 3.191690 -2.148859 2.524895 0
M  V30 38 H -2.376616 -2.882042 1.582157 0
M  V30 39 H -2.016654 -5.601794 2.030952 0
M  V30 40 H 2.118553 -6.705274 1.903881 0
M  V30 41 H 2.754772 -4.357503 1.444329 0
M  V30 42 H 0.878443 -0.567486 -0.612397 0
M  V30 43 H 1.138033 4.256137 0.938867 0
M  V30 44 H -1.019214 4.267975 2.170572 0
M  V30 END ATOM
M  V30 BEGIN BOND
M  V30 1 1 1 2
M  V30 2 2 2 3
M  V30 3 1 2 4
M  V30 4 2 4 5
M  V30 5 1 5 6
M  V30 6 2 6 7
M  V30 7 1 7 8
M  V30 8 1 8 9
M  V30 9 2 9 10
M  V30 10 2 9 11
M  V30 11 1 9 12
M  V30 12 2 12 13
M  V30 13 1 13 14
M  V30 14 2 14 15
M  V30 15 1 15 16
M  V30 16 1 16 17
M  V30 17 2 17 18
M  V30 18 1 18 19
M  V30 19 1 19 20
M  V30 20 2 20 21
M  V30 21 1 21 22
M  V30 22 1 22 23
M  V30 23 2 22 24
M  V30 24 1 24 25
M  V30 25 2 25 26
M  V30 26 2 16 27
M  V30 27 1 7 28
M  V30 28 2 28 29
M  V30 29 1 29 4
M  V30 30 1 27 12
M  V30 31 1 26 17
M  V30 32 1 26 20
M  V30 33 1 1 30
M  V30 34 1 1 31
M  V30 35 1 5 32
M  V30 36 1 6 33
M  V30 37 1 8 34
M  V30 38 1 13 35
M  V30 39 1 14 36
M  V30 40 1 15 37
M  V30 41 1 19 38
M  V30 42 1 21 39
M  V30 43 1 24 40
M  V30 44 1 25 41
M  V30 45 1 27 42
M  V30 46 1 28 43
M  V30 47 1 29 44
M  V30 END BOND
M  V30 END CTAB
M  END
>  <Dataset>  (908) 
ChEMBL_Kinases

>  <Ligand_Instance>  (908) 
nan

>  <PDB_ID>  (908) 
nan

>  <Standardized_SMILES>  (908) 
NC(=O)c1ccc(NS(=O)(=O)c2cccc(-c3n[nH]c4cc(F)ccc34)c2)cc1

>  <Name>  (908) 
nan

>  <Pocket>  (908) 
nan

>  <ATP_Site>  (908) 
nan

>  <Peripheral>  (908) 
nan

>  <Num_H_Atoms_ProtBoundConf>  (908) 
nan

>  <Num_Resolved_Atoms>  (908) 
nan

>  <Num_Not_Resolved_Atoms>  (908) 
nan

$$$$
CHEMBL4866954
     RDKit          3D

  0  0  0  0  0  0  0  0  0  0999 V3000
M  V30 BEGIN CTAB
M  V30 COUNTS 31 33 0 0 0
M  V30 BEGIN ATOM
M  V30 1 C -0.855967 -2.789280 4.853916 0
M  V30 2 C -0.524209 -2.641718 3.403320 0
M  V30 3 O -1.538768 -2.284687 2.727322 0
M  V30 4 N 0.754047 -2.862904 2.808974 0
M  V30 5 C 0.632052 -2.610386 1.402328 0
M  V30 6 C 0.286608 -3.722375 0.666426 0
M  V30 7 C 0.133155 -3.627202 -0.707228 0
M  V30 8 C 0.332657 -2.400473 -1.320757 0
M  V30 9 C 0.678129 -1.285139 -0.590566 0
M  V30 10 C 0.895257 0.020119 -1.204688 0
M  V30 11 N 1.609018 0.226473 -2.327591 0
M  V30 12 N 1.633662 1.519499 -2.648513 0
M  V30 13 C 0.925884 2.229982 -1.735808 0
M  V30 14 N 0.617958 3.541091 -1.558607 0
M  V30 15 C -0.145057 3.894922 -0.484280 0
M  V30 16 C -0.626087 2.974772 0.443873 0
M  V30 17 Br -1.685315 3.574739 1.911407 0
M  V30 18 C -0.301466 1.646348 0.245270 0
M  V30 19 C 0.471271 1.282430 -0.841528 0
M  V30 20 C 0.826478 -1.397072 0.772778 0
M  V30 21 H 0.064800 -2.894813 5.463395 0
M  V30 22 H -1.528014 -3.656246 5.024708 0
M  V30 23 H -1.339893 -1.841423 5.166925 0
M  V30 24 H 1.501078 -3.152765 3.477273 0
M  V30 25 H 0.117173 -4.705344 1.083055 0
M  V30 26 H -0.140996 -4.503101 -1.302999 0
M  V30 27 H 0.220706 -2.282552 -2.409163 0
M  V30 28 H 2.117388 1.942760 -3.471721 0
M  V30 29 H -0.393516 4.939332 -0.338349 0
M  V30 30 H -0.674493 0.946629 0.961995 0
M  V30 31 H 1.091098 -0.605928 1.444294 0
M  V30 END ATOM
M  V30 BEGIN BOND
M  V30 1 1 1 2
M  V30 2 2 2 3
M  V30 3 1 2 4
M  V30 4 1 4 5
M  V30 5 2 5 6
M  V30 6 1 6 7
M  V30 7 2 7 8
M  V30 8 1 8 9
M  V30 9 1 9 10
M  V30 10 2 10 11
M  V30 11 1 11 12
M  V30 12 1 12 13
M  V30 13 2 13 14
M  V30 14 1 14 15
M  V30 15 2 15 16
M  V30 16 1 16 17
M  V30 17 1 16 18
M  V30 18 2 18 19
M  V30 19 2 9 20
M  V30 20 1 20 5
M  V30 21 1 19 10
M  V30 22 1 19 13
M  V30 23 1 1 21
M  V30 24 1 1 22
M  V30 25 1 1 23
M  V30 26 1 4 24
M  V30 27 1 6 25
M  V30 28 1 7 26
M  V30 29 1 8 27
M  V30 30 1 12 28
M  V30 31 1 15 29
M  V30 32 1 18 30
M  V30 33 1 20 31
M  V30 END BOND
M  V30 END CTAB
M  END
>  <Dataset>  (909) 
ChEMBL_Kinases

>  <Ligand_Instance>  (909) 
nan

>  <PDB_ID>  (909) 
nan

>  <Standardized_SMILES>  (909) 
CC(=O)Nc1cccc(-c2n[nH]c3ncc(Br)cc23)c1

>  <Name>  (909) 
nan

>  <Pocket>  (909) 
nan

>  <ATP_Site>  (909) 
nan

>  <Peripheral>  (909) 
nan

>  <Num_H_Atoms_ProtBoundConf>  (909) 
nan

>  <Num_Resolved_Atoms>  (909) 
nan

>  <Num_Not_Resolved_Atoms>  (909) 
nan

$$$$
CHEMBL4863867
     RDKit          3D

  0  0  0  0  0  0  0  0  0  0999 V3000
M  V30 BEGIN CTAB
M  V30 COUNTS 59 63 0 0 0
M  V30 BEGIN ATOM
M  V30 1 C 2.382093 -1.611677 3.949224 0
M  V30 2 N 2.998147 -1.115093 5.131060 0
M  V30 3 C 3.082036 -2.092391 6.187983 0
M  V30 4 C 4.137179 -0.292678 4.989749 0
M  V30 5 C 3.951206 1.070300 4.433506 0
M  V30 6 N 3.398358 1.157465 3.112135 0
M  V30 7 C 2.120919 1.276750 2.645462 0
M  V30 8 C 2.081598 1.316794 1.269023 0
M  V30 9 C 0.879822 1.436678 0.450552 0
M  V30 10 C 0.903437 0.831958 -0.776414 0
M  V30 11 C -0.207992 0.909976 -1.592423 0
M  V30 12 C -1.340089 1.573859 -1.216643 0
M  V30 13 C -2.401011 1.607978 -2.087499 0
M  V30 14 N -2.430970 0.993500 -3.369432 0
M  V30 15 C -2.311870 -0.409430 -3.691333 0
M  V30 16 C -2.200228 -0.860773 -4.992063 0
M  V30 17 C -2.101877 -2.232631 -5.172328 0
M  V30 18 N -2.107753 -3.139648 -4.177920 0
M  V30 19 C -2.214373 -2.738744 -2.905536 0
M  V30 20 C -2.219768 -3.697775 -1.810190 0
M  V30 21 C -2.323982 -3.382619 -0.473332 0
M  V30 22 C -2.325941 -4.307680 0.544727 0
M  V30 23 C -2.216725 -5.656051 0.228476 0
M  V30 24 C -2.110620 -6.007315 -1.102004 0
M  V30 25 C -2.112615 -5.042705 -2.098305 0
M  V30 26 F -2.002136 -5.549560 -3.339250 0
M  V30 27 C -2.313781 -1.385866 -2.694638 0
M  V30 28 C -3.510408 2.300412 -1.650541 0
M  V30 29 C -3.557453 2.923026 -0.413168 0
M  V30 30 N -2.466774 2.836597 0.380034 0
M  V30 31 C -1.343237 2.176253 0.021726 0
M  V30 32 C -0.242498 2.119514 0.871653 0
M  V30 33 C 3.409516 1.215474 0.914681 0
M  V30 34 N 4.169337 1.122449 2.019111 0
M  V30 35 H 1.350476 -1.238298 3.752854 0
M  V30 36 H 2.995936 -1.403503 3.057579 0
M  V30 37 H 2.379937 -2.732468 4.028315 0
M  V30 38 H 2.187897 -2.101883 6.842624 0
M  V30 39 H 3.998904 -1.877439 6.776057 0
M  V30 40 H 3.229852 -3.090709 5.690730 0
M  V30 41 H 4.634824 -0.246674 6.007139 0
M  V30 42 H 4.857861 -0.824390 4.312639 0
M  V30 43 H 3.289828 1.715349 5.095280 0
M  V30 44 H 4.950779 1.573330 4.431872 0
M  V30 45 H 1.285768 1.327456 3.353083 0
M  V30 46 H 1.795475 0.289660 -1.111547 0
M  V30 47 H -0.120680 0.418279 -2.552723 0
M  V30 48 H -2.554550 1.632177 -4.181459 0
M  V30 49 H -2.192014 -0.157593 -5.805580 0
M  V30 50 H -2.013369 -2.629081 -6.171107 0
M  V30 51 H -2.409800 -2.347665 -0.202260 0
M  V30 52 H -2.411945 -3.977484 1.586768 0
M  V30 53 H -2.225071 -6.323233 1.087382 0
M  V30 54 H -2.029446 -7.076344 -1.259631 0
M  V30 55 H -2.405893 -0.973758 -1.694848 0
M  V30 56 H -4.406212 2.389984 -2.265933 0
M  V30 57 H -4.436431 3.478187 -0.055901 0
M  V30 58 H -0.257083 2.597006 1.841629 0
M  V30 59 H 3.722278 1.217807 -0.139494 0
M  V30 END ATOM
M  V30 BEGIN BOND
M  V30 1 1 1 2
M  V30 2 1 2 3
M  V30 3 1 2 4
M  V30 4 1 4 5
M  V30 5 1 5 6
M  V30 6 1 6 7
M  V30 7 2 7 8
M  V30 8 1 8 9
M  V30 9 2 9 10
M  V30 10 1 10 11
M  V30 11 2 11 12
M  V30 12 1 12 13
M  V30 13 1 13 14
M  V30 14 1 14 15
M  V30 15 2 15 16
M  V30 16 1 16 17
M  V30 17 2 17 18
M  V30 18 1 18 19
M  V30 19 1 19 20
M  V30 20 2 20 21
M  V30 21 1 21 22
M  V30 22 2 22 23
M  V30 23 1 23 24
M  V30 24 2 24 25
M  V30 25 1 25 26
M  V30 26 2 19 27
M  V30 27 2 13 28
M  V30 28 1 28 29
M  V30 29 2 29 30
M  V30 30 1 30 31
M  V30 31 2 31 32
M  V30 32 1 8 33
M  V30 33 2 33 34
M  V30 34 1 34 6
M  V30 35 1 32 9
M  V30 36 1 31 12
M  V30 37 1 27 15
M  V30 38 1 25 20
M  V30 39 1 1 35
M  V30 40 1 1 36
M  V30 41 1 1 37
M  V30 42 1 3 38
M  V30 43 1 3 39
M  V30 44 1 3 40
M  V30 45 1 4 41
M  V30 46 1 4 42
M  V30 47 1 5 43
M  V30 48 1 5 44
M  V30 49 1 7 45
M  V30 50 1 10 46
M  V30 51 1 11 47
M  V30 52 1 14 48
M  V30 53 1 16 49
M  V30 54 1 17 50
M  V30 55 1 21 51
M  V30 56 1 22 52
M  V30 57 1 23 53
M  V30 58 1 24 54
M  V30 59 1 27 55
M  V30 60 1 28 56
M  V30 61 1 29 57
M  V30 62 1 32 58
M  V30 63 1 33 59
M  V30 END BOND
M  V30 END CTAB
M  END
>  <Dataset>  (910) 
ChEMBL_Kinases

>  <Ligand_Instance>  (910) 
nan

>  <PDB_ID>  (910) 
nan

>  <Standardized_SMILES>  (910) 
CN(C)CCn1cc(-c2ccc3c(Nc4ccnc(-c5ccccc5F)c4)ccnc3c2)cn1

>  <Name>  (910) 
nan

>  <Pocket>  (910) 
nan

>  <ATP_Site>  (910) 
nan

>  <Peripheral>  (910) 
nan

>  <Num_H_Atoms_ProtBoundConf>  (910) 
nan

>  <Num_Resolved_Atoms>  (910) 
nan

>  <Num_Not_Resolved_Atoms>  (910) 
nan

$$$$
CHEMBL4863747
     RDKit          3D

  0  0  0  0  0  0  0  0  0  0999 V3000
M  V30 BEGIN CTAB
M  V30 COUNTS 67 71 0 0 0
M  V30 BEGIN ATOM
M  V30 1 C 6.393653 -0.537737 5.538711 0
M  V30 2 N 5.687864 -1.589963 4.861416 0
M  V30 3 C 4.364908 -1.798044 5.335168 0
M  V30 4 C 3.256739 -1.371845 4.431137 0
M  V30 5 C 3.795783 -0.384210 3.432132 0
M  V30 6 N 2.717829 0.098335 2.610829 0
M  V30 7 C 2.458910 1.447024 2.167375 0
M  V30 8 O 3.371289 2.196453 2.615746 0
M  V30 9 C 1.313561 1.788933 1.340838 0
M  V30 10 C 0.252182 0.967427 1.033649 0
M  V30 11 C -0.778481 1.386403 0.225499 0
M  V30 12 C -0.754974 2.675886 -0.301278 0
M  V30 13 N -1.856686 3.053290 -1.124867 0
M  V30 14 C -3.033172 2.266517 -1.177581 0
M  V30 15 N -4.011041 2.997716 -0.557397 0
M  V30 16 C -5.280922 2.503015 -0.434218 0
M  V30 17 C -5.642570 1.263248 -0.916903 0
M  V30 18 C -6.752964 0.453058 -0.983975 0
M  V30 19 F -7.919774 0.926753 -0.434499 0
M  V30 20 C -6.399714 -0.711337 -1.629855 0
M  V30 21 N -5.085932 -0.610213 -1.952824 0
M  V30 22 C -4.408367 -1.676969 -2.632246 0
M  V30 23 C -4.991829 -2.292846 -3.718329 0
M  V30 24 C -4.215783 -3.297173 -4.253375 0
M  V30 25 C -2.984525 -3.646217 -3.752180 0
M  V30 26 C -2.444508 -2.991958 -2.655652 0
M  V30 27 C -1.136787 -3.244251 -2.001511 0
M  V30 28 C -0.328897 -4.330584 -2.648886 0
M  V30 29 C -1.446740 -3.651601 -0.554592 0
M  V30 30 O -0.441280 -2.020792 -1.999441 0
M  V30 31 N -3.204597 -2.009056 -2.132317 0
M  V30 32 C -4.618697 0.569225 -1.531655 0
M  V30 33 N -3.350595 1.058438 -1.657913 0
M  V30 34 C 0.288626 3.529816 -0.018784 0
M  V30 35 C 1.303695 3.063591 0.800066 0
M  V30 36 C 4.813445 -1.165394 2.603220 0
M  V30 37 C 5.917360 -1.707391 3.467408 0
M  V30 38 H 5.630948 0.113899 6.030687 0
M  V30 39 H 6.947360 -0.998794 6.406723 0
M  V30 40 H 7.124109 -0.003188 4.929987 0
M  V30 41 H 4.164374 -2.838052 5.670577 0
M  V30 42 H 4.261949 -1.183236 6.281222 0
M  V30 43 H 2.880325 -2.286367 3.914793 0
M  V30 44 H 2.447618 -0.862501 4.990773 0
M  V30 45 H 4.342505 0.404545 3.951406 0
M  V30 46 H 2.035119 -0.661162 2.303564 0
M  V30 47 H 0.273050 -0.035733 1.468288 0
M  V30 48 H -1.558030 0.673715 0.046133 0
M  V30 49 H -1.798310 3.919855 -1.694831 0
M  V30 50 H -6.098545 3.050221 0.050934 0
M  V30 51 H -7.157416 -1.465682 -1.768907 0
M  V30 52 H -5.959711 -2.013540 -4.105594 0
M  V30 53 H -4.560858 -3.859136 -5.108799 0
M  V30 54 H -2.372809 -4.435293 -4.166573 0
M  V30 55 H -0.402816 -4.251604 -3.733803 0
M  V30 56 H -0.505586 -5.331053 -2.248743 0
M  V30 57 H 0.751295 -4.093996 -2.402664 0
M  V30 58 H -0.775394 -4.482886 -0.258719 0
M  V30 59 H -2.481750 -4.050969 -0.460971 0
M  V30 60 H -1.348270 -2.811301 0.134985 0
M  V30 61 H 0.480323 -2.130742 -2.326771 0
M  V30 62 H 0.235534 4.500475 -0.460896 0
M  V30 63 H 2.080949 3.815318 0.961883 0
M  V30 64 H 4.267095 -2.024577 2.167917 0
M  V30 65 H 5.198128 -0.551571 1.754694 0
M  V30 66 H 6.819561 -1.070496 3.224044 0
M  V30 67 H 6.243003 -2.743908 3.160518 0
M  V30 END ATOM
M  V30 BEGIN BOND
M  V30 1 1 1 2
M  V30 2 1 2 3
M  V30 3 1 3 4
M  V30 4 1 4 5
M  V30 5 1 5 6
M  V30 6 1 6 7
M  V30 7 2 7 8
M  V30 8 1 7 9
M  V30 9 2 9 10
M  V30 10 1 10 11
M  V30 11 2 11 12
M  V30 12 1 12 13
M  V30 13 1 13 14
M  V30 14 2 14 15
M  V30 15 1 15 16
M  V30 16 2 16 17
M  V30 17 1 17 18
M  V30 18 1 18 19
M  V30 19 2 18 20
M  V30 20 1 20 21
M  V30 21 1 21 22
M  V30 22 2 22 23
M  V30 23 1 23 24
M  V30 24 2 24 25
M  V30 25 1 25 26
M  V30 26 1 26 27
M  V30 27 1 27 28
M  V30 28 1 27 29
M  V30 29 1 27 30
M  V30 30 2 26 31
M  V30 31 1 21 32
M  V30 32 2 32 33
M  V30 33 1 12 34
M  V30 34 2 34 35
M  V30 35 1 5 36
M  V30 36 1 36 37
M  V30 37 1 37 2
M  V30 38 1 35 9
M  V30 39 1 33 14
M  V30 40 1 32 17
M  V30 41 1 31 22
M  V30 42 1 1 38
M  V30 43 1 1 39
M  V30 44 1 1 40
M  V30 45 1 3 41
M  V30 46 1 3 42
M  V30 47 1 4 43
M  V30 48 1 4 44
M  V30 49 1 5 45
M  V30 50 1 6 46
M  V30 51 1 10 47
M  V30 52 1 11 48
M  V30 53 1 13 49
M  V30 54 1 16 50
M  V30 55 1 20 51
M  V30 56 1 23 52
M  V30 57 1 24 53
M  V30 58 1 25 54
M  V30 59 1 28 55
M  V30 60 1 28 56
M  V30 61 1 28 57
M  V30 62 1 29 58
M  V30 63 1 29 59
M  V30 64 1 29 60
M  V30 65 1 30 61
M  V30 66 1 34 62
M  V30 67 1 35 63
M  V30 68 1 36 64
M  V30 69 1 36 65
M  V30 70 1 37 66
M  V30 71 1 37 67
M  V30 END BOND
M  V30 END CTAB
M  END
>  <Dataset>  (911) 
ChEMBL_Kinases

>  <Ligand_Instance>  (911) 
nan

>  <PDB_ID>  (911) 
nan

>  <Standardized_SMILES>  (911) 
CN1CCC(NC(=O)c2ccc(Nc3ncc4c(F)cn(-c5cccc(C(C)(C)O)n5)c4n3)cc2)CC1

>  <Name>  (911) 
nan

>  <Pocket>  (911) 
nan

>  <ATP_Site>  (911) 
nan

>  <Peripheral>  (911) 
nan

>  <Num_H_Atoms_ProtBoundConf>  (911) 
nan

>  <Num_Resolved_Atoms>  (911) 
nan

>  <Num_Not_Resolved_Atoms>  (911) 
nan

$$$$
CHEMBL4863726
     RDKit          3D

  0  0  0  0  0  0  0  0  0  0999 V3000
M  V30 BEGIN CTAB
M  V30 COUNTS 45 48 0 0 0
M  V30 BEGIN ATOM
M  V30 1 C -0.732332 -5.889399 -2.149783 0
M  V30 2 C -0.089686 -5.501860 -0.881351 0
M  V30 3 N 0.488983 -6.262501 0.060319 0
M  V30 4 N 0.946613 -5.511688 1.049336 0
M  V30 5 C 0.675634 -4.228874 0.775771 0
M  V30 6 C 0.917506 -3.045039 1.440665 0
M  V30 7 C 0.487603 -1.868686 0.851497 0
M  V30 8 C -0.172888 -1.778934 -0.363940 0
M  V30 9 C -0.578175 -0.477899 -0.884500 0
M  V30 10 C -1.233533 -0.390532 -2.091470 0
M  V30 11 N -1.572196 0.845497 -2.499963 0
M  V30 12 C -1.281183 1.930275 -1.760954 0
M  V30 13 C -0.613212 1.805894 -0.537134 0
M  V30 14 N -0.300783 2.966747 0.258265 0
M  V30 15 C 0.386149 2.917078 1.527007 0
M  V30 16 C 1.754406 2.312499 1.335687 0
M  V30 17 C 2.556910 2.330836 2.619184 0
M  V30 18 C 1.662980 2.336407 3.837558 0
M  V30 19 C 0.445292 1.477285 3.562955 0
M  V30 20 O -0.335054 1.364728 4.712976 0
M  V30 21 C -0.428191 2.087653 2.485173 0
M  V30 22 N -0.267405 0.578314 -0.113772 0
M  V30 23 C -0.382147 -2.997379 -0.974274 0
M  V30 24 C 0.021202 -4.193855 -0.438267 0
M  V30 25 H -1.784452 -5.517328 -2.174747 0
M  V30 26 H -0.152666 -5.557662 -3.032165 0
M  V30 27 H -0.821795 -6.997970 -2.147795 0
M  V30 28 H 1.435552 -5.889361 1.892870 0
M  V30 29 H 1.429207 -3.048467 2.394253 0
M  V30 30 H 0.707595 -0.977184 1.422596 0
M  V30 31 H -1.484258 -1.237109 -2.712271 0
M  V30 32 H -1.569749 2.903101 -2.123553 0
M  V30 33 H -0.611433 3.896022 -0.148034 0
M  V30 34 H 0.516249 3.954308 1.884838 0
M  V30 35 H 2.306673 2.949323 0.607652 0
M  V30 36 H 1.747854 1.302428 0.895055 0
M  V30 37 H 3.215839 3.206347 2.677204 0
M  V30 38 H 3.189816 1.423371 2.623278 0
M  V30 39 H 1.376911 3.342204 4.178032 0
M  V30 40 H 2.191026 1.844865 4.695743 0
M  V30 41 H 0.819546 0.476977 3.326991 0
M  V30 42 H -0.997469 0.641602 4.537079 0
M  V30 43 H -1.116556 2.806250 3.011323 0
M  V30 44 H -1.034276 1.301729 2.015507 0
M  V30 45 H -0.891273 -3.003017 -1.924698 0
M  V30 END ATOM
M  V30 BEGIN BOND
M  V30 1 1 1 2
M  V30 2 2 2 3
M  V30 3 1 3 4
M  V30 4 1 4 5
M  V30 5 2 5 6
M  V30 6 1 6 7
M  V30 7 2 7 8
M  V30 8 1 8 9
M  V30 9 2 9 10
M  V30 10 1 10 11
M  V30 11 2 11 12
M  V30 12 1 12 13
M  V30 13 1 13 14
M  V30 14 1 14 15
M  V30 15 1 15 16
M  V30 16 1 16 17
M  V30 17 1 17 18
M  V30 18 1 18 19
M  V30 19 1 19 20
M  V30 20 1 19 21
M  V30 21 2 13 22
M  V30 22 1 8 23
M  V30 23 2 23 24
M  V30 24 1 24 2
M  V30 25 1 24 5
M  V30 26 1 22 9
M  V30 27 1 21 15
M  V30 28 1 1 25
M  V30 29 1 1 26
M  V30 30 1 1 27
M  V30 31 1 4 28
M  V30 32 1 6 29
M  V30 33 1 7 30
M  V30 34 1 10 31
M  V30 35 1 12 32
M  V30 36 1 14 33
M  V30 37 1 15 34
M  V30 38 1 16 35
M  V30 39 1 16 36
M  V30 40 1 17 37
M  V30 41 1 17 38
M  V30 42 1 18 39
M  V30 43 1 18 40
M  V30 44 1 19 41
M  V30 45 1 20 42
M  V30 46 1 21 43
M  V30 47 1 21 44
M  V30 48 1 23 45
M  V30 END BOND
M  V30 END CTAB
M  END
>  <Dataset>  (912) 
ChEMBL_Kinases

>  <Ligand_Instance>  (912) 
nan

>  <PDB_ID>  (912) 
nan

>  <Standardized_SMILES>  (912) 
Cc1n[nH]c2ccc(-c3cncc(NC4CCCC(O)C4)n3)cc12

>  <Name>  (912) 
nan

>  <Pocket>  (912) 
nan

>  <ATP_Site>  (912) 
nan

>  <Peripheral>  (912) 
nan

>  <Num_H_Atoms_ProtBoundConf>  (912) 
nan

>  <Num_Resolved_Atoms>  (912) 
nan

>  <Num_Not_Resolved_Atoms>  (912) 
nan

$$$$
CHEMBL4863662
     RDKit          3D

  0  0  0  0  0  0  0  0  0  0999 V3000
M  V30 BEGIN CTAB
M  V30 COUNTS 36 39 0 0 0
M  V30 BEGIN ATOM
M  V30 1 O 3.574760 -5.713629 1.670632 0
M  V30 2 C 2.858883 -4.706502 1.001038 0
M  V30 3 C 2.193240 -5.156386 -0.126043 0
M  V30 4 C 1.472641 -4.182710 -0.814694 0
M  V30 5 C 1.384744 -2.840221 -0.453472 0
M  V30 6 C 2.079478 -2.478110 0.683734 0
M  V30 7 C 2.009308 -1.078251 1.091714 0
M  V30 8 C 3.030425 -0.388676 1.753516 0
M  V30 9 N 2.907404 0.894404 2.101842 0
M  V30 10 C 1.815275 1.636599 1.857682 0
M  V30 11 N 1.429494 2.899279 2.084889 0
M  V30 12 N 0.197879 3.044929 1.592899 0
M  V30 13 C -0.236181 1.919836 1.050950 0
M  V30 14 C -1.544230 1.746724 0.425586 0
M  V30 15 C -2.339930 0.645362 0.669166 0
M  V30 16 C -3.582651 0.427996 0.108205 0
M  V30 17 C -4.048061 1.396956 -0.759827 0
M  V30 18 C -3.308628 2.523280 -1.050573 0
M  V30 19 O -3.789738 3.478461 -1.918752 0
M  V30 20 C -2.067758 2.694566 -0.461834 0
M  V30 21 C 0.769323 0.984445 1.196774 0
M  V30 22 C 0.872982 -0.340873 0.826748 0
M  V30 23 C 2.800547 -3.389079 1.395904 0
M  V30 24 H 3.798794 -5.616573 2.644116 0
M  V30 25 H 2.189555 -6.165250 -0.498408 0
M  V30 26 H 0.938593 -4.505093 -1.704778 0
M  V30 27 H 0.792872 -2.170739 -1.066468 0
M  V30 28 H 3.928585 -0.970206 1.963309 0
M  V30 29 H 1.997360 3.633067 2.562630 0
M  V30 30 H -2.001106 -0.130199 1.344853 0
M  V30 31 H -4.157998 -0.472829 0.349901 0
M  V30 32 H -5.014409 1.283968 -1.231148 0
M  V30 33 H -4.654852 3.326448 -2.399434 0
M  V30 34 H -1.489608 3.594087 -0.701079 0
M  V30 35 H 0.056793 -0.831132 0.316819 0
M  V30 36 H 3.349881 -3.120821 2.288588 0
M  V30 END ATOM
M  V30 BEGIN BOND
M  V30 1 1 1 2
M  V30 2 2 2 3
M  V30 3 1 3 4
M  V30 4 2 4 5
M  V30 5 1 5 6
M  V30 6 1 6 7
M  V30 7 2 7 8
M  V30 8 1 8 9
M  V30 9 2 9 10
M  V30 10 1 10 11
M  V30 11 1 11 12
M  V30 12 2 12 13
M  V30 13 1 13 14
M  V30 14 2 14 15
M  V30 15 1 15 16
M  V30 16 2 16 17
M  V30 17 1 17 18
M  V30 18 1 18 19
M  V30 19 2 18 20
M  V30 20 1 13 21
M  V30 21 2 21 22
M  V30 22 2 6 23
M  V30 23 1 23 2
M  V30 24 1 22 7
M  V30 25 1 21 10
M  V30 26 1 20 14
M  V30 27 1 1 24
M  V30 28 1 3 25
M  V30 29 1 4 26
M  V30 30 1 5 27
M  V30 31 1 8 28
M  V30 32 1 11 29
M  V30 33 1 15 30
M  V30 34 1 16 31
M  V30 35 1 17 32
M  V30 36 1 19 33
M  V30 37 1 20 34
M  V30 38 1 22 35
M  V30 39 1 23 36
M  V30 END BOND
M  V30 END CTAB
M  END
>  <Dataset>  (913) 
ChEMBL_Kinases

>  <Ligand_Instance>  (913) 
nan

>  <PDB_ID>  (913) 
nan

>  <Standardized_SMILES>  (913) 
Oc1cccc(-c2cnc3[nH]nc(-c4cccc(O)c4)c3c2)c1

>  <Name>  (913) 
nan

>  <Pocket>  (913) 
nan

>  <ATP_Site>  (913) 
nan

>  <Peripheral>  (913) 
nan

>  <Num_H_Atoms_ProtBoundConf>  (913) 
nan

>  <Num_Resolved_Atoms>  (913) 
nan

>  <Num_Not_Resolved_Atoms>  (913) 
nan

$$$$
CHEMBL4863524
     RDKit          3D

  0  0  0  0  0  0  0  0  0  0999 V3000
M  V30 BEGIN CTAB
M  V30 COUNTS 48 52 0 0 0
M  V30 BEGIN ATOM
M  V30 1 C -2.315174 -0.442303 1.402505 0
M  V30 2 C -1.326447 -0.924218 0.404256 0
M  V30 3 N -0.288915 -0.165301 -0.055983 0
M  V30 4 C 0.596014 -0.617784 -0.959426 0
M  V30 5 C 0.532004 -1.888114 -1.499301 0
M  V30 6 C 1.598687 -1.989136 -2.381894 0
M  V30 7 N 2.249425 -0.810971 -2.344486 0
M  V30 8 N 1.663145 0.024100 -1.497316 0
M  V30 9 C 2.064460 1.357462 -1.192403 0
M  V30 10 C 2.362968 2.199413 -2.271906 0
M  V30 11 S 2.832659 3.819569 -1.395338 0
M  V30 12 C 2.579790 3.182309 0.181280 0
M  V30 13 C 2.777123 3.966109 1.448592 0
M  V30 14 O 3.150606 5.153285 1.264017 0
M  V30 15 N 2.538634 3.335128 2.674425 0
M  V30 16 C 2.712376 4.043522 3.949607 0
M  V30 17 C 1.569323 3.743095 4.885599 0
M  V30 18 O 2.289957 2.667798 5.444558 0
M  V30 19 C 3.482998 3.140517 4.902970 0
M  V30 20 C 2.197619 1.930396 0.046506 0
M  V30 21 C -0.502899 -2.688318 -1.060178 0
M  V30 22 C -1.390244 -2.189423 -0.133507 0
M  V30 23 N -2.464536 -2.993645 0.327169 0
M  V30 24 C -2.927352 -4.305394 0.050770 0
M  V30 25 C -3.032986 -5.362740 0.951454 0
M  V30 26 C -3.502492 -6.594018 0.574958 0
M  V30 27 F -3.540607 -7.519070 1.586123 0
M  V30 28 C -3.892484 -6.834259 -0.725775 0
M  V30 29 C -3.797154 -5.799992 -1.638929 0
M  V30 30 C -3.323208 -4.565601 -1.247606 0
M  V30 31 Cl -3.302493 -3.406437 -2.579346 0
M  V30 32 H -3.358810 -0.671555 1.100145 0
M  V30 33 H -2.098181 -0.910004 2.398496 0
M  V30 34 H -2.223280 0.652067 1.533468 0
M  V30 35 H 1.793234 -2.892039 -2.953672 0
M  V30 36 H 2.331913 1.973283 -3.367396 0
M  V30 37 H 2.228465 2.340899 2.755451 0
M  V30 38 H 3.035350 5.080627 3.881493 0
M  V30 39 H 1.468931 4.538292 5.649363 0
M  V30 40 H 0.641093 3.398095 4.400663 0
M  V30 41 H 4.129467 3.675123 5.634529 0
M  V30 42 H 4.025958 2.301966 4.410322 0
M  V30 43 H 1.977630 1.321067 0.939287 0
M  V30 44 H -0.550126 -3.682912 -1.479905 0
M  V30 45 H -3.167200 -2.700763 1.030826 0
M  V30 46 H -2.718420 -5.133423 1.955855 0
M  V30 47 H -4.239180 -7.847628 -0.872785 0
M  V30 48 H -4.123613 -6.076285 -2.632809 0
M  V30 END ATOM
M  V30 BEGIN BOND
M  V30 1 1 1 2
M  V30 2 2 2 3
M  V30 3 1 3 4
M  V30 4 2 4 5
M  V30 5 1 5 6
M  V30 6 2 6 7
M  V30 7 1 7 8
M  V30 8 1 8 9
M  V30 9 2 9 10
M  V30 10 1 10 11
M  V30 11 1 11 12
M  V30 12 1 12 13
M  V30 13 2 13 14
M  V30 14 1 13 15
M  V30 15 1 15 16
M  V30 16 1 16 17
M  V30 17 1 17 18
M  V30 18 1 18 19
M  V30 19 2 12 20
M  V30 20 1 5 21
M  V30 21 2 21 22
M  V30 22 1 22 23
M  V30 23 1 23 24
M  V30 24 2 24 25
M  V30 25 1 25 26
M  V30 26 1 26 27
M  V30 27 2 26 28
M  V30 28 1 28 29
M  V30 29 2 29 30
M  V30 30 1 30 31
M  V30 31 1 22 2
M  V30 32 1 30 24
M  V30 33 1 8 4
M  V30 34 1 20 9
M  V30 35 1 19 16
M  V30 36 1 1 32
M  V30 37 1 1 33
M  V30 38 1 1 34
M  V30 39 1 6 35
M  V30 40 1 10 36
M  V30 41 1 15 37
M  V30 42 1 16 38
M  V30 43 1 17 39
M  V30 44 1 17 40
M  V30 45 1 19 41
M  V30 46 1 19 42
M  V30 47 1 20 43
M  V30 48 1 21 44
M  V30 49 1 23 45
M  V30 50 1 25 46
M  V30 51 1 28 47
M  V30 52 1 29 48
M  V30 END BOND
M  V30 END CTAB
M  END
>  <Dataset>  (914) 
ChEMBL_Kinases

>  <Ligand_Instance>  (914) 
nan

>  <PDB_ID>  (914) 
nan

>  <Standardized_SMILES>  (914) 
Cc1nc2c(cnn2-c2csc(C(=O)NC3COC3)c2)cc1Nc1cc(F)ccc1Cl

>  <Name>  (914) 
nan

>  <Pocket>  (914) 
nan

>  <ATP_Site>  (914) 
nan

>  <Peripheral>  (914) 
nan

>  <Num_H_Atoms_ProtBoundConf>  (914) 
nan

>  <Num_Resolved_Atoms>  (914) 
nan

>  <Num_Not_Resolved_Atoms>  (914) 
nan

$$$$
CHEMBL4863077
     RDKit          3D

  0  0  0  0  0  0  0  0  0  0999 V3000
M  V30 BEGIN CTAB
M  V30 COUNTS 43 46 0 0 0
M  V30 BEGIN ATOM
M  V30 1 C 1.337113 -3.739087 3.203435 0
M  V30 2 O 0.971688 -3.400434 1.882408 0
M  V30 3 C -0.270719 -2.884189 1.599872 0
M  V30 4 C -1.271635 -2.637203 2.513055 0
M  V30 5 C -2.499777 -2.108544 2.099019 0
M  V30 6 C -2.682849 -1.842477 0.764646 0
M  V30 7 C -1.678933 -2.085065 -0.183324 0
M  V30 8 C -0.460932 -2.613944 0.264560 0
M  V30 9 C 0.447266 -2.745808 -0.873985 0
M  V30 10 C 1.652576 -2.245786 -0.718003 0
M  V30 11 N 2.525296 -1.568905 0.166135 0
M  V30 12 C 1.927672 -0.320430 0.502956 0
M  V30 13 C 1.804779 0.688053 -0.430990 0
M  V30 14 C 1.247043 1.931427 -0.183044 0
M  V30 15 C 0.777544 2.176932 1.109489 0
M  V30 16 C 0.199205 3.482230 1.396740 0
M  V30 17 C 0.290386 4.056829 2.614309 0
M  V30 18 C -0.247637 5.271651 2.874684 0
M  V30 19 S -1.009099 5.804008 1.314124 0
M  V30 20 C -0.487074 4.224105 0.417658 0
M  V30 21 C 0.868535 1.214050 2.088625 0
M  V30 22 C 1.440341 0.003624 1.745653 0
M  V30 23 C 2.340516 -2.522236 -2.001296 0
M  V30 24 O 3.490019 -2.322956 -2.531123 0
M  V30 25 N 1.462885 -3.208271 -2.900022 0
M  V30 26 C 0.231959 -3.357163 -2.171014 0
M  V30 27 O -0.903697 -3.878623 -2.438013 0
M  V30 28 H 1.797439 -2.841991 3.677430 0
M  V30 29 H 2.072030 -4.584220 3.201892 0
M  V30 30 H 0.487723 -4.085232 3.820562 0
M  V30 31 H -1.095132 -2.855289 3.542401 0
M  V30 32 H -3.258441 -1.925258 2.847419 0
M  V30 33 H -3.644043 -1.432762 0.479983 0
M  V30 34 H -1.971172 -1.828811 -1.193019 0
M  V30 35 H 3.437899 -1.952845 0.498591 0
M  V30 36 H 2.160215 0.530920 -1.451644 0
M  V30 37 H 1.167582 2.707575 -0.954659 0
M  V30 38 H 0.786430 3.617351 3.486635 0
M  V30 39 H -0.320179 5.918976 3.696299 0
M  V30 40 H -0.633262 3.850660 -0.643051 0
M  V30 41 H 0.497531 1.446426 3.065406 0
M  V30 42 H 1.498168 -0.726850 2.543478 0
M  V30 43 H 1.489714 -3.589818 -3.855484 0
M  V30 END ATOM
M  V30 BEGIN BOND
M  V30 1 1 1 2
M  V30 2 1 2 3
M  V30 3 2 3 4
M  V30 4 1 4 5
M  V30 5 2 5 6
M  V30 6 1 6 7
M  V30 7 2 7 8
M  V30 8 1 8 9
M  V30 9 2 9 10
M  V30 10 1 10 11
M  V30 11 1 11 12
M  V30 12 2 12 13
M  V30 13 1 13 14
M  V30 14 2 14 15
M  V30 15 1 15 16
M  V30 16 1 16 17
M  V30 17 2 17 18
M  V30 18 1 18 19
M  V30 19 1 19 20
M  V30 20 1 15 21
M  V30 21 2 21 22
M  V30 22 1 10 23
M  V30 23 2 23 24
M  V30 24 1 23 25
M  V30 25 1 25 26
M  V30 26 2 26 27
M  V30 27 1 8 3
M  V30 28 1 26 9
M  V30 29 1 22 12
M  V30 30 2 20 16
M  V30 31 1 1 28
M  V30 32 1 1 29
M  V30 33 1 1 30
M  V30 34 1 4 31
M  V30 35 1 5 32
M  V30 36 1 6 33
M  V30 37 1 7 34
M  V30 38 1 11 35
M  V30 39 1 13 36
M  V30 40 1 14 37
M  V30 41 1 17 38
M  V30 42 1 18 39
M  V30 43 1 20 40
M  V30 44 1 21 41
M  V30 45 1 22 42
M  V30 46 1 25 43
M  V30 END BOND
M  V30 END CTAB
M  END
>  <Dataset>  (915) 
ChEMBL_Kinases

>  <Ligand_Instance>  (915) 
nan

>  <PDB_ID>  (915) 
nan

>  <Standardized_SMILES>  (915) 
COc1ccccc1C1=C(Nc2ccc(-c3ccsc3)cc2)C(=O)NC1=O

>  <Name>  (915) 
nan

>  <Pocket>  (915) 
nan

>  <ATP_Site>  (915) 
nan

>  <Peripheral>  (915) 
nan

>  <Num_H_Atoms_ProtBoundConf>  (915) 
nan

>  <Num_Resolved_Atoms>  (915) 
nan

>  <Num_Not_Resolved_Atoms>  (915) 
nan

$$$$
CHEMBL4862897
     RDKit          3D

  0  0  0  0  0  0  0  0  0  0999 V3000
M  V30 BEGIN CTAB
M  V30 COUNTS 40 42 0 0 0
M  V30 BEGIN ATOM
M  V30 1 C -0.545306 -2.720251 1.361135 0
M  V30 2 O 0.551727 -2.026032 0.846869 0
M  V30 3 C 1.826187 -2.257653 0.996126 0
M  V30 4 C 2.601187 -3.223822 1.669689 0
M  V30 5 C 4.001836 -3.405244 1.781222 0
M  V30 6 C 4.624088 -2.419551 1.080532 0
M  V30 7 C 4.096284 -1.389021 0.357293 0
M  V30 8 C 2.729922 -1.393195 0.372774 0
M  V30 9 N 2.155587 -0.345795 -0.443560 0
M  V30 10 C 0.790655 -0.365005 -0.767585 0
M  V30 11 C -0.407493 0.150278 -0.543670 0
M  V30 12 C -0.658769 1.200101 0.399180 0
M  V30 13 C 0.270941 2.208180 0.484042 0
M  V30 14 C 0.473764 3.343927 1.176464 0
M  V30 15 C -0.653577 3.407197 2.021953 0
M  V30 16 C -1.770774 2.538867 2.168821 0
M  V30 17 C -1.675735 1.432167 1.287134 0
M  V30 18 O -2.627576 0.411420 1.205384 0
M  V30 19 C -3.802630 0.324760 1.945411 0
M  V30 20 C -1.441012 -0.487450 -1.387701 0
M  V30 21 O -2.666308 -0.154998 -1.343824 0
M  V30 22 N -0.792722 -1.475551 -2.189231 0
M  V30 23 C 0.570693 -1.399017 -1.807415 0
M  V30 24 O 1.265971 -2.253187 -2.468165 0
M  V30 25 H -0.343896 -3.289382 2.286520 0
M  V30 26 H -1.355750 -1.966385 1.677901 0
M  V30 27 H -1.002129 -3.338915 0.544199 0
M  V30 28 H 1.968465 -3.968874 2.192105 0
M  V30 29 H 4.330464 -4.223330 2.359199 0
M  V30 30 H 5.721382 -2.494138 1.133094 0
M  V30 31 H 4.671634 -0.657632 -0.162824 0
M  V30 32 H 2.664801 0.469593 -0.837688 0
M  V30 33 H 1.172852 2.181730 -0.176708 0
M  V30 34 H 0.940663 4.219829 1.440164 0
M  V30 35 H -0.925862 4.180275 2.785605 0
M  V30 36 H -2.630082 2.568609 2.792810 0
M  V30 37 H -3.893952 -0.688653 2.377394 0
M  V30 38 H -3.960718 1.097593 2.716681 0
M  V30 39 H -4.667602 0.376380 1.209465 0
M  V30 40 H -1.403731 -2.016268 -2.834969 0
M  V30 END ATOM
M  V30 BEGIN BOND
M  V30 1 1 1 2
M  V30 2 1 2 3
M  V30 3 2 3 4
M  V30 4 1 4 5
M  V30 5 2 5 6
M  V30 6 1 6 7
M  V30 7 2 7 8
M  V30 8 1 8 9
M  V30 9 1 9 10
M  V30 10 2 10 11
M  V30 11 1 11 12
M  V30 12 2 12 13
M  V30 13 1 13 14
M  V30 14 2 14 15
M  V30 15 1 15 16
M  V30 16 2 16 17
M  V30 17 1 17 18
M  V30 18 1 18 19
M  V30 19 1 11 20
M  V30 20 2 20 21
M  V30 21 1 20 22
M  V30 22 1 22 23
M  V30 23 2 23 24
M  V30 24 1 8 3
M  V30 25 1 23 10
M  V30 26 1 17 12
M  V30 27 1 1 25
M  V30 28 1 1 26
M  V30 29 1 1 27
M  V30 30 1 4 28
M  V30 31 1 5 29
M  V30 32 1 6 30
M  V30 33 1 7 31
M  V30 34 1 9 32
M  V30 35 1 13 33
M  V30 36 1 14 34
M  V30 37 1 15 35
M  V30 38 1 16 36
M  V30 39 1 19 37
M  V30 40 1 19 38
M  V30 41 1 19 39
M  V30 42 1 22 40
M  V30 END BOND
M  V30 END CTAB
M  END
>  <Dataset>  (916) 
ChEMBL_Kinases

>  <Ligand_Instance>  (916) 
nan

>  <PDB_ID>  (916) 
nan

>  <Standardized_SMILES>  (916) 
COc1ccccc1NC1=C(c2ccccc2OC)C(=O)NC1=O

>  <Name>  (916) 
nan

>  <Pocket>  (916) 
nan

>  <ATP_Site>  (916) 
nan

>  <Peripheral>  (916) 
nan

>  <Num_H_Atoms_ProtBoundConf>  (916) 
nan

>  <Num_Resolved_Atoms>  (916) 
nan

>  <Num_Not_Resolved_Atoms>  (916) 
nan

$$$$
CHEMBL4861249
     RDKit          3D

  0  0  0  0  0  0  0  0  0  0999 V3000
M  V30 BEGIN CTAB
M  V30 COUNTS 45 47 0 0 0
M  V30 BEGIN ATOM
M  V30 1 N 1.651099 -3.949713 4.393943 0
M  V30 2 C 1.718335 -3.161195 3.540956 0
M  V30 3 C 1.784248 -2.182630 2.510082 0
M  V30 4 C 2.997691 -1.546923 2.382773 0
M  V30 5 N 3.084381 -0.629042 1.407908 0
M  V30 6 C 2.067186 -0.327427 0.591156 0
M  V30 7 N 2.201071 0.649924 -0.429804 0
M  V30 8 C 1.174998 1.050247 -1.356977 0
M  V30 9 C 1.592440 2.107811 -2.291721 0
M  V30 10 C 1.918632 1.719318 -3.577695 0
M  V30 11 N 2.323817 2.653628 -4.484043 0
M  V30 12 C 2.413297 3.954729 -4.150550 0
M  V30 13 C 2.076006 4.288235 -2.854971 0
M  V30 14 C 1.648584 3.413123 -1.845615 0
M  V30 15 C 1.303848 3.875461 -0.500328 0
M  V30 16 F 2.040930 3.330798 0.518793 0
M  V30 17 F 1.615824 5.244871 -0.456080 0
M  V30 18 F -0.055809 3.836760 -0.251396 0
M  V30 19 C 0.879768 -0.993877 0.765299 0
M  V30 20 C 0.668224 -1.961411 1.735935 0
M  V30 21 N -0.573491 -2.582547 1.851049 0
M  V30 22 C -1.240089 -3.531098 2.654618 0
M  V30 23 C -1.574488 -3.146505 4.050221 0
M  V30 24 C -2.858241 -2.346417 4.190177 0
M  V30 25 O -3.890651 -2.881726 3.460553 0
M  V30 26 C -3.573455 -3.033271 2.110904 0
M  V30 27 C -2.507037 -4.089180 1.999766 0
M  V30 28 H 3.843908 -1.760011 3.020500 0
M  V30 29 H 3.123561 1.124518 -0.530266 0
M  V30 30 H 0.267029 1.299541 -0.761714 0
M  V30 31 H 0.888874 0.111774 -1.898392 0
M  V30 32 H 1.857856 0.665758 -3.886702 0
M  V30 33 H 2.727025 4.745734 -4.819561 0
M  V30 34 H 2.146274 5.351909 -2.572713 0
M  V30 35 H 0.080022 -0.705364 0.065944 0
M  V30 36 H -1.278433 -2.269090 1.123006 0
M  V30 37 H -0.505195 -4.406908 2.761276 0
M  V30 38 H -1.800599 -4.110539 4.597006 0
M  V30 39 H -0.815410 -2.644228 4.635851 0
M  V30 40 H -3.150787 -2.342890 5.259258 0
M  V30 41 H -2.585715 -1.311670 3.905681 0
M  V30 42 H -3.239782 -2.110486 1.637311 0
M  V30 43 H -4.485205 -3.445898 1.632720 0
M  V30 44 H -2.309494 -4.381595 0.953070 0
M  V30 45 H -2.822212 -4.945505 2.632917 0
M  V30 END ATOM
M  V30 BEGIN BOND
M  V30 1 3 1 2
M  V30 2 1 2 3
M  V30 3 2 3 4
M  V30 4 1 4 5
M  V30 5 2 5 6
M  V30 6 1 6 7
M  V30 7 1 7 8
M  V30 8 1 8 9
M  V30 9 2 9 10
M  V30 10 1 10 11
M  V30 11 2 11 12
M  V30 12 1 12 13
M  V30 13 2 13 14
M  V30 14 1 14 15
M  V30 15 1 15 16
M  V30 16 1 15 17
M  V30 17 1 15 18
M  V30 18 1 6 19
M  V30 19 2 19 20
M  V30 20 1 20 21
M  V30 21 1 21 22
M  V30 22 1 22 23
M  V30 23 1 23 24
M  V30 24 1 24 25
M  V30 25 1 25 26
M  V30 26 1 26 27
M  V30 27 1 20 3
M  V30 28 1 27 22
M  V30 29 1 14 9
M  V30 30 1 4 28
M  V30 31 1 7 29
M  V30 32 1 8 30
M  V30 33 1 8 31
M  V30 34 1 10 32
M  V30 35 1 12 33
M  V30 36 1 13 34
M  V30 37 1 19 35
M  V30 38 1 21 36
M  V30 39 1 22 37
M  V30 40 1 23 38
M  V30 41 1 23 39
M  V30 42 1 24 40
M  V30 43 1 24 41
M  V30 44 1 26 42
M  V30 45 1 26 43
M  V30 46 1 27 44
M  V30 47 1 27 45
M  V30 END BOND
M  V30 END CTAB
M  END
>  <Dataset>  (917) 
ChEMBL_Kinases

>  <Ligand_Instance>  (917) 
nan

>  <PDB_ID>  (917) 
nan

>  <Standardized_SMILES>  (917) 
N#Cc1cnc(NCc2cnccc2C(F)(F)F)cc1NC1CCOCC1

>  <Name>  (917) 
nan

>  <Pocket>  (917) 
nan

>  <ATP_Site>  (917) 
nan

>  <Peripheral>  (917) 
nan

>  <Num_H_Atoms_ProtBoundConf>  (917) 
nan

>  <Num_Resolved_Atoms>  (917) 
nan

>  <Num_Not_Resolved_Atoms>  (917) 
nan

$$$$
CHEMBL4861251
     RDKit          3D

  0  0  0  0  0  0  0  0  0  0999 V3000
M  V30 BEGIN CTAB
M  V30 COUNTS 54 58 0 0 0
M  V30 BEGIN ATOM
M  V30 1 O -2.018773 -2.602374 2.400620 0
M  V30 2 C -2.180184 -1.380480 2.129678 0
M  V30 3 C -2.045717 -0.956132 0.743545 0
M  V30 4 C -2.964531 -0.451958 -0.151852 0
M  V30 5 C -2.578042 -0.111732 -1.424600 0
M  V30 6 C -1.291286 -0.237913 -1.903985 0
M  V30 7 C -0.902080 0.121693 -3.259901 0
M  V30 8 C -1.858369 0.586077 -4.136853 0
M  V30 9 C -1.543928 0.918967 -5.436489 0
M  V30 10 C -0.233917 0.778059 -5.853191 0
M  V30 11 N 0.126978 1.073705 -7.119471 0
M  V30 12 C 1.401565 0.918854 -7.511559 0
M  V30 13 N 2.321460 0.470869 -6.652000 0
M  V30 14 C 2.022169 0.157937 -5.372644 0
M  V30 15 N 3.070155 -0.312342 -4.565597 0
M  V30 16 C 3.369144 -0.572352 -3.223168 0
M  V30 17 C 3.996674 -1.625393 -2.618523 0
M  V30 18 C 4.208966 -1.634161 -1.264616 0
M  V30 19 C 3.820085 -0.616650 -0.435084 0
M  V30 20 O 4.062028 -0.682192 0.927170 0
M  V30 21 C 3.183820 0.460937 -1.018634 0
M  V30 22 C 2.966606 0.470770 -2.398617 0
M  V30 23 C 0.716337 0.313361 -4.966064 0
M  V30 24 N 0.362855 -0.001884 -3.698598 0
M  V30 25 C -0.371598 -0.744454 -1.005349 0
M  V30 26 C -0.740970 -1.093135 0.285793 0
M  V30 27 N -2.485296 -0.432377 3.142502 0
M  V30 28 C -2.678233 0.984117 2.783211 0
M  V30 29 C -4.174285 1.218541 3.026668 0
M  V30 30 N -4.508493 0.857979 4.372473 0
M  V30 31 C -3.425674 0.390993 5.178494 0
M  V30 32 C -2.621383 -0.725919 4.555118 0
M  V30 33 H -3.955183 -0.364628 0.267103 0
M  V30 34 H -3.362575 0.272350 -2.040399 0
M  V30 35 H -2.893457 0.731492 -3.923937 0
M  V30 36 H -2.249612 1.290639 -6.167386 0
M  V30 37 H 1.722422 1.148292 -8.520549 0
M  V30 38 H 3.976213 -0.592406 -5.019460 0
M  V30 39 H 4.283225 -2.404002 -3.330565 0
M  V30 40 H 4.710184 -2.506829 -0.877682 0
M  V30 41 H 4.598647 -1.416212 1.355938 0
M  V30 42 H 2.890214 1.237546 -0.317631 0
M  V30 43 H 2.463324 1.410149 -2.648443 0
M  V30 44 H 0.641573 -0.855915 -1.360035 0
M  V30 45 H 0.098594 -1.479183 0.885939 0
M  V30 46 H -2.394857 1.161767 1.748761 0
M  V30 47 H -2.057079 1.583034 3.467862 0
M  V30 48 H -4.707170 0.504155 2.364734 0
M  V30 49 H -4.460446 2.243272 2.747932 0
M  V30 50 H -4.875346 1.718393 4.835132 0
M  V30 51 H -3.888523 0.011087 6.130402 0
M  V30 52 H -2.755586 1.257105 5.422396 0
M  V30 53 H -3.027372 -1.734266 4.770250 0
M  V30 54 H -1.591778 -0.638497 5.021573 0
M  V30 END ATOM
M  V30 BEGIN BOND
M  V30 1 2 1 2
M  V30 2 1 2 3
M  V30 3 2 3 4
M  V30 4 1 4 5
M  V30 5 2 5 6
M  V30 6 1 6 7
M  V30 7 2 7 8
M  V30 8 1 8 9
M  V30 9 2 9 10
M  V30 10 1 10 11
M  V30 11 2 11 12
M  V30 12 1 12 13
M  V30 13 2 13 14
M  V30 14 1 14 15
M  V30 15 1 15 16
M  V30 16 2 16 17
M  V30 17 1 17 18
M  V30 18 2 18 19
M  V30 19 1 19 20
M  V30 20 1 19 21
M  V30 21 2 21 22
M  V30 22 1 14 23
M  V30 23 2 23 24
M  V30 24 1 6 25
M  V30 25 2 25 26
M  V30 26 1 2 27
M  V30 27 1 27 28
M  V30 28 1 28 29
M  V30 29 1 29 30
M  V30 30 1 30 31
M  V30 31 1 31 32
M  V30 32 1 26 3
M  V30 33 1 32 27
M  V30 34 1 24 7
M  V30 35 1 23 10
M  V30 36 1 22 16
M  V30 37 1 4 33
M  V30 38 1 5 34
M  V30 39 1 8 35
M  V30 40 1 9 36
M  V30 41 1 12 37
M  V30 42 1 15 38
M  V30 43 1 17 39
M  V30 44 1 18 40
M  V30 45 1 20 41
M  V30 46 1 21 42
M  V30 47 1 22 43
M  V30 48 1 25 44
M  V30 49 1 26 45
M  V30 50 1 28 46
M  V30 51 1 28 47
M  V30 52 1 29 48
M  V30 53 1 29 49
M  V30 54 1 30 50
M  V30 55 1 31 51
M  V30 56 1 31 52
M  V30 57 1 32 53
M  V30 58 1 32 54
M  V30 END BOND
M  V30 END CTAB
M  END
>  <Dataset>  (918) 
ChEMBL_Kinases

>  <Ligand_Instance>  (918) 
nan

>  <PDB_ID>  (918) 
nan

>  <Standardized_SMILES>  (918) 
O=C(c1ccc(-c2ccc3ncnc(Nc4ccc(O)cc4)c3n2)cc1)N1CCNCC1

>  <Name>  (918) 
nan

>  <Pocket>  (918) 
nan

>  <ATP_Site>  (918) 
nan

>  <Peripheral>  (918) 
nan

>  <Num_H_Atoms_ProtBoundConf>  (918) 
nan

>  <Num_Resolved_Atoms>  (918) 
nan

>  <Num_Not_Resolved_Atoms>  (918) 
nan

$$$$
CHEMBL4859969
     RDKit          3D

  0  0  0  0  0  0  0  0  0  0999 V3000
M  V30 BEGIN CTAB
M  V30 COUNTS 53 56 0 0 0
M  V30 BEGIN ATOM
M  V30 1 C -0.193274 -0.249755 4.649317 0
M  V30 2 C 0.079906 -0.812080 3.305440 0
M  V30 3 N 1.285995 -0.863124 2.728580 0
M  V30 4 C 1.501962 -1.381853 1.498547 0
M  V30 5 N 2.842341 -1.365024 1.023229 0
M  V30 6 C 3.480521 -0.250471 0.334666 0
M  V30 7 N 4.477531 0.049103 -0.155889 0
M  V30 8 C 4.745472 1.230208 -0.723806 0
M  V30 9 C 3.753008 2.215526 -0.744130 0
M  V30 10 C 3.963971 3.547328 -1.345737 0
M  V30 11 O 4.910912 4.124576 -1.927488 0
M  V30 12 N 2.738079 4.285953 -1.174379 0
M  V30 13 C 2.412463 5.610389 -1.570350 0
M  V30 14 C 2.602394 6.694922 -0.792455 0
M  V30 15 Cl 3.269051 6.692974 0.820357 0
M  V30 16 C 2.241102 7.946129 -1.299744 0
M  V30 17 S 1.565980 7.596711 -3.037069 0
M  V30 18 C 1.866355 5.747883 -2.851420 0
M  V30 19 Cl 1.494214 4.609855 -4.083940 0
M  V30 20 S 2.365384 1.277298 0.144797 0
M  V30 21 C 0.444256 -1.899393 0.762039 0
M  V30 22 C -0.788007 -1.838868 1.370515 0
M  V30 23 N -1.912922 -2.353634 0.678903 0
M  V30 24 C -1.892269 -2.983750 -0.623759 0
M  V30 25 C -2.924104 -4.100523 -0.668040 0
M  V30 26 N -3.008400 -4.652670 0.670163 0
M  V30 27 C -3.390916 -6.024496 0.689070 0
M  V30 28 C -3.446478 -6.493871 2.125590 0
M  V30 29 O -2.154597 -6.305749 2.638602 0
M  V30 30 C -3.769314 -3.762501 1.480500 0
M  V30 31 C -3.282565 -2.345848 1.146668 0
M  V30 32 N -0.960654 -1.314938 2.594896 0
M  V30 33 H 0.704321 -0.405249 5.301993 0
M  V30 34 H -1.046393 -0.718283 5.148241 0
M  V30 35 H -0.389007 0.857665 4.532253 0
M  V30 36 H 3.507652 -2.156831 1.121797 0
M  V30 37 H 5.748696 1.355098 -1.148327 0
M  V30 38 H 1.823480 3.993732 -0.715686 0
M  V30 39 H 2.279392 8.955679 -0.912512 0
M  V30 40 H 0.652979 -2.304274 -0.212740 0
M  V30 41 H -0.900227 -3.484034 -0.782091 0
M  V30 42 H -2.051130 -2.243177 -1.426954 0
M  V30 43 H -3.885504 -3.615956 -0.967636 0
M  V30 44 H -2.672142 -4.845205 -1.426202 0
M  V30 45 H -2.595102 -6.625741 0.176498 0
M  V30 46 H -4.335937 -6.225014 0.145986 0
M  V30 47 H -3.752928 -7.560144 2.202243 0
M  V30 48 H -4.157950 -5.894261 2.722443 0
M  V30 49 H -1.844558 -5.416631 2.298229 0
M  V30 50 H -4.857472 -3.770838 1.213316 0
M  V30 51 H -3.702834 -3.937616 2.568661 0
M  V30 52 H -3.964512 -1.831824 0.446016 0
M  V30 53 H -3.292157 -1.771384 2.118402 0
M  V30 END ATOM
M  V30 BEGIN BOND
M  V30 1 1 1 2
M  V30 2 2 2 3
M  V30 3 1 3 4
M  V30 4 1 4 5
M  V30 5 1 5 6
M  V30 6 2 6 7
M  V30 7 1 7 8
M  V30 8 2 8 9
M  V30 9 1 9 10
M  V30 10 2 10 11
M  V30 11 1 10 12
M  V30 12 1 12 13
M  V30 13 1 13 14
M  V30 14 1 14 15
M  V30 15 2 14 16
M  V30 16 1 16 17
M  V30 17 1 17 18
M  V30 18 1 18 19
M  V30 19 1 9 20
M  V30 20 2 4 21
M  V30 21 1 21 22
M  V30 22 1 22 23
M  V30 23 1 23 24
M  V30 24 1 24 25
M  V30 25 1 25 26
M  V30 26 1 26 27
M  V30 27 1 27 28
M  V30 28 1 28 29
M  V30 29 1 26 30
M  V30 30 1 30 31
M  V30 31 2 22 32
M  V30 32 1 32 2
M  V30 33 1 20 6
M  V30 34 1 31 23
M  V30 35 2 18 13
M  V30 36 1 1 33
M  V30 37 1 1 34
M  V30 38 1 1 35
M  V30 39 1 5 36
M  V30 40 1 8 37
M  V30 41 1 12 38
M  V30 42 1 16 39
M  V30 43 1 21 40
M  V30 44 1 24 41
M  V30 45 1 24 42
M  V30 46 1 25 43
M  V30 47 1 25 44
M  V30 48 1 27 45
M  V30 49 1 27 46
M  V30 50 1 28 47
M  V30 51 1 28 48
M  V30 52 1 29 49
M  V30 53 1 30 50
M  V30 54 1 30 51
M  V30 55 1 31 52
M  V30 56 1 31 53
M  V30 END BOND
M  V30 END CTAB
M  END
>  <Dataset>  (919) 
ChEMBL_Kinases

>  <Ligand_Instance>  (919) 
nan

>  <PDB_ID>  (919) 
nan

>  <Standardized_SMILES>  (919) 
Cc1nc(Nc2ncc(C(=O)Nc3c(Cl)csc3Cl)s2)cc(N2CCN(CCO)CC2)n1

>  <Name>  (919) 
nan

>  <Pocket>  (919) 
nan

>  <ATP_Site>  (919) 
nan

>  <Peripheral>  (919) 
nan

>  <Num_H_Atoms_ProtBoundConf>  (919) 
nan

>  <Num_Resolved_Atoms>  (919) 
nan

>  <Num_Not_Resolved_Atoms>  (919) 
nan

$$$$
CHEMBL4862562
     RDKit          3D

  0  0  0  0  0  0  0  0  0  0999 V3000
M  V30 BEGIN CTAB
M  V30 COUNTS 39 42 0 0 0
M  V30 BEGIN ATOM
M  V30 1 O -2.971244 -3.472279 1.900131 0
M  V30 2 C -1.904652 -3.679875 1.294728 0
M  V30 3 O -1.851741 -5.034960 1.029555 0
M  V30 4 C -0.836923 -2.779833 0.882293 0
M  V30 5 C 0.223744 -3.324614 0.190247 0
M  V30 6 C 1.296912 -2.604529 -0.278190 0
M  V30 7 C 1.319128 -1.236584 -0.041154 0
M  V30 8 C 2.474402 -0.512949 -0.555227 0
M  V30 9 N 3.001452 -0.682822 -1.805617 0
M  V30 10 C 4.085913 0.115571 -2.045936 0
M  V30 11 N 4.646456 1.001010 -1.209556 0
M  V30 12 C 4.116040 1.168438 0.041645 0
M  V30 13 C 4.663903 2.052361 0.896805 0
M  V30 14 C 3.978309 2.093917 2.158853 0
M  V30 15 S 2.587770 0.820576 1.959782 0
M  V30 16 C 3.054367 0.424593 0.353666 0
M  V30 17 C 0.264899 -0.676515 0.650442 0
M  V30 18 C -0.800048 -1.423363 1.109582 0
M  V30 19 C -1.899213 -0.774980 1.864871 0
M  V30 20 C -3.111397 -0.524568 1.041484 0
M  V30 21 C -2.835238 0.831615 0.434061 0
M  V30 22 C -2.045280 1.579752 1.482921 0
M  V30 23 C -1.567533 0.555965 2.428894 0
M  V30 24 H -2.204916 -5.740080 1.649245 0
M  V30 25 H 0.237384 -4.394520 -0.012430 0
M  V30 26 H 2.099355 -3.103828 -0.817690 0
M  V30 27 H 4.497024 -0.030218 -3.048252 0
M  V30 28 H 5.502250 2.724394 0.822447 0
M  V30 29 H 4.316425 2.821670 3.056931 0
M  V30 30 H 0.370047 0.369769 0.785225 0
M  V30 31 H -2.162411 -1.512091 2.677309 0
M  V30 32 H -3.978879 -0.414040 1.722775 0
M  V30 33 H -3.353380 -1.288621 0.283003 0
M  V30 34 H -3.769463 1.402652 0.255213 0
M  V30 35 H -2.325113 0.768898 -0.545008 0
M  V30 36 H -1.185179 2.131513 1.048780 0
M  V30 37 H -2.677149 2.372666 1.969866 0
M  V30 38 H -2.159702 0.666673 3.373504 0
M  V30 39 H -0.509357 0.668431 2.740916 0
M  V30 END ATOM
M  V30 BEGIN BOND
M  V30 1 2 1 2
M  V30 2 1 2 3
M  V30 3 1 2 4
M  V30 4 2 4 5
M  V30 5 1 5 6
M  V30 6 2 6 7
M  V30 7 1 7 8
M  V30 8 2 8 9
M  V30 9 1 9 10
M  V30 10 2 10 11
M  V30 11 1 11 12
M  V30 12 1 12 13
M  V30 13 2 13 14
M  V30 14 1 14 15
M  V30 15 1 15 16
M  V30 16 1 7 17
M  V30 17 2 17 18
M  V30 18 1 18 19
M  V30 19 1 19 20
M  V30 20 1 20 21
M  V30 21 1 21 22
M  V30 22 1 22 23
M  V30 23 1 18 4
M  V30 24 1 23 19
M  V30 25 1 16 8
M  V30 26 2 16 12
M  V30 27 1 3 24
M  V30 28 1 5 25
M  V30 29 1 6 26
M  V30 30 1 10 27
M  V30 31 1 13 28
M  V30 32 1 14 29
M  V30 33 1 17 30
M  V30 34 1 19 31
M  V30 35 1 20 32
M  V30 36 1 20 33
M  V30 37 1 21 34
M  V30 38 1 21 35
M  V30 39 1 22 36
M  V30 40 1 22 37
M  V30 41 1 23 38
M  V30 42 1 23 39
M  V30 END BOND
M  V30 END CTAB
M  END
>  <Dataset>  (920) 
ChEMBL_Kinases

>  <Ligand_Instance>  (920) 
nan

>  <PDB_ID>  (920) 
nan

>  <Standardized_SMILES>  (920) 
O=C(O)c1ccc(-c2ncnc3ccsc23)cc1C1CCCC1

>  <Name>  (920) 
nan

>  <Pocket>  (920) 
nan

>  <ATP_Site>  (920) 
nan

>  <Peripheral>  (920) 
nan

>  <Num_H_Atoms_ProtBoundConf>  (920) 
nan

>  <Num_Resolved_Atoms>  (920) 
nan

>  <Num_Not_Resolved_Atoms>  (920) 
nan

$$$$
CHEMBL4862514
     RDKit          3D

  0  0  0  0  0  0  0  0  0  0999 V3000
M  V30 BEGIN CTAB
M  V30 COUNTS 55 60 0 0 0
M  V30 BEGIN ATOM
M  V30 1 O -3.457978 -3.350986 0.013694 0
M  V30 2 C -2.440430 -4.008136 -0.340762 0
M  V30 3 C -1.261854 -3.182599 -0.242544 0
M  V30 4 C -1.086127 -2.321458 0.823278 0
M  V30 5 C 0.025231 -1.490651 0.988105 0
M  V30 6 C 1.009212 -1.531641 0.028162 0
M  V30 7 C 2.188911 -0.666136 0.173930 0
M  V30 8 C 3.439256 -1.023155 -0.295502 0
M  V30 9 C 4.498794 -0.128661 -0.111060 0
M  V30 10 C 4.327715 1.082700 0.518586 0
M  V30 11 N 5.142411 2.125955 0.832980 0
M  V30 12 C 4.377120 3.051211 1.463808 0
M  V30 13 C 3.080985 2.584223 1.543612 0
M  V30 14 C 2.069175 3.418079 2.188163 0
M  V30 15 C 2.303893 4.067602 3.388800 0
M  V30 16 N 1.326019 4.837585 3.954137 0
M  V30 17 C 0.123285 4.980415 3.361847 0
M  V30 18 C -0.862029 5.769719 3.951129 0
M  V30 19 C -2.117057 5.931835 3.352614 0
M  V30 20 C -2.374288 5.284028 2.139766 0
M  V30 21 C -1.383300 4.510334 1.578893 0
M  V30 22 C -0.131497 4.341425 2.164609 0
M  V30 23 C 0.846993 3.547230 1.560664 0
M  V30 24 N 3.107038 1.373911 0.949096 0
M  V30 25 C 2.041006 0.565644 0.808264 0
M  V30 26 C 0.847321 -2.386654 -1.041460 0
M  V30 27 C -0.253783 -3.198450 -1.188952 0
M  V30 28 N -2.515989 -5.380458 -0.770457 0
M  V30 29 C -1.588537 -6.392679 -1.226237 0
M  V30 30 C -1.825999 -6.656983 -2.691285 0
M  V30 31 O -3.159323 -6.578369 -3.003226 0
M  V30 32 C -4.009453 -6.901180 -1.972151 0
M  V30 33 C -3.841182 -5.982843 -0.778640 0
M  V30 34 H -1.873252 -2.299580 1.576581 0
M  V30 35 H 0.062930 -0.852911 1.861325 0
M  V30 36 H 3.577780 -1.961692 -0.784549 0
M  V30 37 H 5.486607 -0.392799 -0.473076 0
M  V30 38 H 4.943018 3.922053 1.752783 0
M  V30 39 H 3.285330 3.952268 3.873622 0
M  V30 40 H -0.685647 6.283043 4.893000 0
M  V30 41 H -2.889145 6.543484 3.803434 0
M  V30 42 H -3.342845 5.375069 1.625140 0
M  V30 43 H -1.599269 4.009620 0.628430 0
M  V30 44 H 0.555194 3.097042 0.638908 0
M  V30 45 H 1.051001 0.812756 1.163869 0
M  V30 46 H 1.672107 -2.355505 -1.754103 0
M  V30 47 H -0.319264 -3.846124 -2.052826 0
M  V30 48 H -0.532245 -6.051560 -1.142150 0
M  V30 49 H -1.702885 -7.324962 -0.609819 0
M  V30 50 H -1.220768 -5.903212 -3.275574 0
M  V30 51 H -1.471977 -7.675891 -2.998154 0
M  V30 52 H -5.056099 -6.797803 -2.340920 0
M  V30 53 H -3.841151 -7.974334 -1.713229 0
M  V30 54 H -4.613043 -5.191482 -0.833289 0
M  V30 55 H -3.986831 -6.599277 0.145980 0
M  V30 END ATOM
M  V30 BEGIN BOND
M  V30 1 2 1 2
M  V30 2 1 2 3
M  V30 3 2 3 4
M  V30 4 1 4 5
M  V30 5 2 5 6
M  V30 6 1 6 7
M  V30 7 1 7 8
M  V30 8 2 8 9
M  V30 9 1 9 10
M  V30 10 2 10 11
M  V30 11 1 11 12
M  V30 12 2 12 13
M  V30 13 1 13 14
M  V30 14 2 14 15
M  V30 15 1 15 16
M  V30 16 2 16 17
M  V30 17 1 17 18
M  V30 18 2 18 19
M  V30 19 1 19 20
M  V30 20 2 20 21
M  V30 21 1 21 22
M  V30 22 2 22 23
M  V30 23 1 13 24
M  V30 24 1 24 25
M  V30 25 1 6 26
M  V30 26 2 26 27
M  V30 27 1 2 28
M  V30 28 1 28 29
M  V30 29 1 29 30
M  V30 30 1 30 31
M  V30 31 1 31 32
M  V30 32 1 32 33
M  V30 33 1 27 3
M  V30 34 1 33 28
M  V30 35 2 25 7
M  V30 36 1 24 10
M  V30 37 1 23 14
M  V30 38 1 22 17
M  V30 39 1 4 34
M  V30 40 1 5 35
M  V30 41 1 8 36
M  V30 42 1 9 37
M  V30 43 1 12 38
M  V30 44 1 15 39
M  V30 45 1 18 40
M  V30 46 1 19 41
M  V30 47 1 20 42
M  V30 48 1 21 43
M  V30 49 1 23 44
M  V30 50 1 25 45
M  V30 51 1 26 46
M  V30 52 1 27 47
M  V30 53 1 29 48
M  V30 54 1 29 49
M  V30 55 1 30 50
M  V30 56 1 30 51
M  V30 57 1 32 52
M  V30 58 1 32 53
M  V30 59 1 33 54
M  V30 60 1 33 55
M  V30 END BOND
M  V30 END CTAB
M  END
>  <Dataset>  (921) 
ChEMBL_Kinases

>  <Ligand_Instance>  (921) 
nan

>  <PDB_ID>  (921) 
nan

>  <Standardized_SMILES>  (921) 
O=C(c1ccc(-c2ccc3ncc(-c4cnc5ccccc5c4)n3c2)cc1)N1CCOCC1

>  <Name>  (921) 
nan

>  <Pocket>  (921) 
nan

>  <ATP_Site>  (921) 
nan

>  <Peripheral>  (921) 
nan

>  <Num_H_Atoms_ProtBoundConf>  (921) 
nan

>  <Num_Resolved_Atoms>  (921) 
nan

>  <Num_Not_Resolved_Atoms>  (921) 
nan

$$$$
CHEMBL4861646
     RDKit          3D

  0  0  0  0  0  0  0  0  0  0999 V3000
M  V30 BEGIN CTAB
M  V30 COUNTS 44 49 0 0 0
M  V30 BEGIN ATOM
M  V30 1 O 2.681882 -3.212592 0.842009 0
M  V30 2 S 2.548073 -2.131024 -0.161307 0
M  V30 3 O 1.854029 -2.516045 -1.414453 0
M  V30 4 C 4.119335 -1.330979 -0.505424 0
M  V30 5 C 3.672571 0.071101 -0.743925 0
M  V30 6 O 3.449448 0.275832 -2.101783 0
M  V30 7 C 4.066096 1.441239 -2.481040 0
M  V30 8 C 4.908774 1.858512 -1.319645 0
M  V30 9 O 4.723184 0.899968 -0.356308 0
M  V30 10 C 2.498101 0.368053 0.076195 0
M  V30 11 C 2.063852 1.626816 0.473487 0
M  V30 12 C 0.938301 1.761851 1.246024 0
M  V30 13 N 0.539966 3.011349 1.627629 0
M  V30 14 C -0.556670 3.166669 2.390762 0
M  V30 15 C -1.286898 2.069906 2.793379 0
M  V30 16 C -0.950432 0.755329 2.447830 0
M  V30 17 N -1.724106 -0.325999 2.886584 0
M  V30 18 C -2.470419 -1.299000 2.158303 0
M  V30 19 C -2.611973 -1.068268 0.786298 0
M  V30 20 C -3.335767 -2.029002 0.117956 0
M  V30 21 C -3.867443 -3.130810 0.801467 0
M  V30 22 S -4.823557 -4.529932 0.301113 0
M  V30 23 C -4.872141 -5.215625 2.097488 0
M  V30 24 N -4.270736 -4.415113 2.648107 0
M  V30 25 C -3.693313 -3.315137 2.194365 0
M  V30 26 C -2.961162 -2.344354 2.873612 0
M  V30 27 C 0.183612 0.688258 1.667927 0
M  V30 28 C 0.619445 -0.556150 1.271360 0
M  V30 29 C 1.734015 -0.706925 0.504937 0
M  V30 30 H 4.842115 -1.464636 0.321424 0
M  V30 31 H 4.500147 -1.761441 -1.460092 0
M  V30 32 H 3.305471 2.197885 -2.776363 0
M  V30 33 H 4.717121 1.325746 -3.372635 0
M  V30 34 H 4.678940 2.892373 -1.001420 0
M  V30 35 H 6.003781 1.823836 -1.584378 0
M  V30 36 H 2.586715 2.542742 0.195091 0
M  V30 37 H -0.838651 4.173081 2.672001 0
M  V30 38 H -2.161001 2.261570 3.407564 0
M  V30 39 H -1.655513 -0.295856 3.923477 0
M  V30 40 H -2.213210 -0.234154 0.250589 0
M  V30 41 H -3.547339 -2.019121 -0.939303 0
M  V30 42 H -5.328751 -6.135657 2.605060 0
M  V30 43 H -2.772635 -2.400719 3.957267 0
M  V30 44 H 0.104628 -1.444396 1.556357 0
M  V30 END ATOM
M  V30 BEGIN BOND
M  V30 1 2 1 2
M  V30 2 2 2 3
M  V30 3 1 2 4
M  V30 4 1 4 5
M  V30 5 1 5 6
M  V30 6 1 6 7
M  V30 7 1 7 8
M  V30 8 1 8 9
M  V30 9 1 5 10
M  V30 10 2 10 11
M  V30 11 1 11 12
M  V30 12 2 12 13
M  V30 13 1 13 14
M  V30 14 2 14 15
M  V30 15 1 15 16
M  V30 16 1 16 17
M  V30 17 1 17 18
M  V30 18 2 18 19
M  V30 19 1 19 20
M  V30 20 2 20 21
M  V30 21 1 21 22
M  V30 22 1 22 23
M  V30 23 2 23 24
M  V30 24 1 24 25
M  V30 25 2 25 26
M  V30 26 2 16 27
M  V30 27 1 27 28
M  V30 28 2 28 29
M  V30 29 1 29 2
M  V30 30 1 9 5
M  V30 31 1 29 10
M  V30 32 1 27 12
M  V30 33 1 26 18
M  V30 34 1 25 21
M  V30 35 1 4 30
M  V30 36 1 4 31
M  V30 37 1 7 32
M  V30 38 1 7 33
M  V30 39 1 8 34
M  V30 40 1 8 35
M  V30 41 1 11 36
M  V30 42 1 14 37
M  V30 43 1 15 38
M  V30 44 1 17 39
M  V30 45 1 19 40
M  V30 46 1 20 41
M  V30 47 1 23 42
M  V30 48 1 26 43
M  V30 49 1 28 44
M  V30 END BOND
M  V30 END CTAB
M  END
>  <Dataset>  (922) 
ChEMBL_Kinases

>  <Ligand_Instance>  (922) 
nan

>  <PDB_ID>  (922) 
nan

>  <Standardized_SMILES>  (922) 
O=S1(=O)CC2(OCCO2)c2cc3nccc(Nc4ccc5scnc5c4)c3cc21

>  <Name>  (922) 
nan

>  <Pocket>  (922) 
nan

>  <ATP_Site>  (922) 
nan

>  <Peripheral>  (922) 
nan

>  <Num_H_Atoms_ProtBoundConf>  (922) 
nan

>  <Num_Resolved_Atoms>  (922) 
nan

>  <Num_Not_Resolved_Atoms>  (922) 
nan

$$$$
CHEMBL4861789
     RDKit          3D

  0  0  0  0  0  0  0  0  0  0999 V3000
M  V30 BEGIN CTAB
M  V30 COUNTS 49 51 0 0 0
M  V30 BEGIN ATOM
M  V30 1 N 1.802876 -3.066810 5.646252 0
M  V30 2 C 1.898829 -2.574670 4.623487 0
M  V30 3 C 2.026580 -1.975920 3.325125 0
M  V30 4 C 3.204172 -1.460970 2.860830 0
M  V30 5 N 3.422570 -0.896477 1.662849 0
M  V30 6 C 2.410269 -0.799690 0.785042 0
M  V30 7 N 2.127074 -0.323747 -0.516382 0
M  V30 8 C 1.474287 0.550835 -1.423421 0
M  V30 9 C 1.769789 1.961135 -1.459733 0
M  V30 10 C 2.645440 2.388629 -2.475404 0
M  V30 11 C 3.071765 3.678229 -2.739052 0
M  V30 12 C 2.589504 4.684160 -1.914567 0
M  V30 13 C 1.732624 4.293609 -0.913019 0
M  V30 14 C 1.318386 2.972819 -0.670302 0
M  V30 15 C 0.406464 2.672053 0.428103 0
M  V30 16 F 0.934027 1.852411 1.411438 0
M  V30 17 F 0.103352 3.858052 1.078020 0
M  V30 18 F -0.824791 2.204320 -0.004187 0
M  V30 19 C 1.180801 -1.312183 1.217254 0
M  V30 20 C 0.918392 -1.908329 2.462466 0
M  V30 21 N -0.363510 -2.393958 2.880522 0
M  V30 22 C -1.524924 -2.376116 2.007573 0 CFG=1
M  V30 23 C -1.402974 -3.403046 0.894908 0
M  V30 24 C -2.771901 -4.076488 0.686777 0
M  V30 25 C -3.744003 -2.901864 0.516760 0 CFG=1
M  V30 26 O -4.882316 -3.302219 -0.147643 0
M  V30 27 C -3.991075 -2.347180 1.892888 0
M  V30 28 C -2.798452 -2.605456 2.788075 0
M  V30 29 H 4.107164 -1.467592 3.459124 0
M  V30 30 H 2.801599 -1.057300 -0.901870 0
M  V30 31 H 0.334938 0.369257 -1.370032 0
M  V30 32 H 1.669316 0.121362 -2.456140 0
M  V30 33 H 3.076523 1.652547 -3.177830 0
M  V30 34 H 3.730750 3.913284 -3.531233 0
M  V30 35 H 2.872773 5.692925 -2.062604 0
M  V30 36 H 1.346324 5.093818 -0.259734 0
M  V30 37 H 0.233337 -1.318410 0.670104 0
M  V30 38 H -0.429858 -2.764581 3.848717 0
M  V30 39 H -1.637441 -1.350859 1.534222 0
M  V30 40 H -0.628018 -4.157181 1.187143 0
M  V30 41 H -1.136045 -3.010438 -0.082345 0
M  V30 42 H -3.043242 -4.718803 1.523458 0
M  V30 43 H -2.782496 -4.613327 -0.287550 0
M  V30 44 H -3.186711 -2.098329 -0.041328 0
M  V30 45 H -4.683755 -4.141946 -0.670463 0
M  V30 46 H -4.854269 -2.890116 2.325483 0
M  V30 47 H -4.250933 -1.282589 1.806267 0
M  V30 48 H -2.852476 -3.617742 3.227962 0
M  V30 49 H -2.827833 -1.852559 3.599591 0
M  V30 END ATOM
M  V30 BEGIN BOND
M  V30 1 3 1 2
M  V30 2 1 2 3
M  V30 3 2 3 4
M  V30 4 1 4 5
M  V30 5 2 5 6
M  V30 6 1 6 7
M  V30 7 1 7 8
M  V30 8 1 8 9
M  V30 9 2 9 10
M  V30 10 1 10 11
M  V30 11 2 11 12
M  V30 12 1 12 13
M  V30 13 2 13 14
M  V30 14 1 14 15
M  V30 15 1 15 16
M  V30 16 1 15 17
M  V30 17 1 15 18
M  V30 18 1 6 19
M  V30 19 2 19 20
M  V30 20 1 20 21
M  V30 21 1 21 22
M  V30 22 1 22 23
M  V30 23 1 23 24
M  V30 24 1 24 25
M  V30 25 1 25 26
M  V30 26 1 25 27
M  V30 27 1 27 28
M  V30 28 1 20 3
M  V30 29 1 28 22
M  V30 30 1 14 9
M  V30 31 1 4 29
M  V30 32 1 7 30
M  V30 33 1 8 31
M  V30 34 1 8 32
M  V30 35 1 10 33
M  V30 36 1 11 34
M  V30 37 1 12 35
M  V30 38 1 13 36
M  V30 39 1 19 37
M  V30 40 1 21 38
M  V30 41 1 22 39 CFG=3
M  V30 42 1 23 40
M  V30 43 1 23 41
M  V30 44 1 24 42
M  V30 45 1 24 43
M  V30 46 1 25 44 CFG=3
M  V30 47 1 26 45
M  V30 48 1 27 46
M  V30 49 1 27 47
M  V30 50 1 28 48
M  V30 51 1 28 49
M  V30 END BOND
M  V30 END CTAB
M  END
>  <Dataset>  (923) 
ChEMBL_Kinases

>  <Ligand_Instance>  (923) 
nan

>  <PDB_ID>  (923) 
nan

>  <Standardized_SMILES>  (923) 
N#Cc1cnc(NCc2ccccc2C(F)(F)F)cc1N[C@H]1CC[C@@H](O)CC1

>  <Name>  (923) 
nan

>  <Pocket>  (923) 
nan

>  <ATP_Site>  (923) 
nan

>  <Peripheral>  (923) 
nan

>  <Num_H_Atoms_ProtBoundConf>  (923) 
nan

>  <Num_Resolved_Atoms>  (923) 
nan

>  <Num_Not_Resolved_Atoms>  (923) 
nan

$$$$
CHEMBL4862069
     RDKit          3D

  0  0  0  0  0  0  0  0  0  0999 V3000
M  V30 BEGIN CTAB
M  V30 COUNTS 58 63 0 0 0
M  V30 BEGIN ATOM
M  V30 1 N 4.887021 -2.141573 1.220462 0
M  V30 2 C 5.636463 -1.162236 1.977503 0 CFG=2
M  V30 3 C 4.858889 -0.962153 3.278528 0
M  V30 4 C 3.460242 -0.555218 2.851001 0
M  V30 5 C 3.606328 0.765716 2.127407 0
M  V30 6 N 4.337569 0.603180 0.913436 0
M  V30 7 C 3.910878 0.800580 -0.426892 0
M  V30 8 O 4.545247 0.664016 -1.509957 0
M  V30 9 C 2.515141 1.226141 -0.496724 0
M  V30 10 C 1.999685 2.495654 -0.660751 0
M  V30 11 C 0.633741 2.703520 -0.703567 0
M  V30 12 C -0.248571 1.645656 -0.583449 0
M  V30 13 C -1.696599 1.801657 -0.627116 0
M  V30 14 C -2.346519 3.004435 -0.797952 0
M  V30 15 C -3.724541 3.022202 -0.827603 0
M  V30 16 C -4.518506 1.878696 -0.693116 0
M  V30 17 N -5.833873 1.606742 -0.685360 0
M  V30 18 C -5.952291 0.269493 -0.511984 0
M  V30 19 C -4.694169 -0.284401 -0.412746 0
M  V30 20 C -4.262330 -1.684936 -0.220954 0
M  V30 21 C -3.261412 -1.824924 0.749927 0
M  V30 22 C -2.696184 -3.028423 1.101205 0
M  V30 23 C -3.170067 -4.138667 0.434682 0
M  V30 24 C -2.617786 -5.368215 0.767200 0
M  V30 25 N -3.071624 -6.457656 0.123312 0
M  V30 26 C -4.035148 -6.339608 -0.814819 0
M  V30 27 C -4.621131 -5.142283 -1.186143 0
M  V30 28 C -4.154076 -4.028867 -0.524764 0
M  V30 29 C -4.709957 -2.818493 -0.865014 0
M  V30 30 N -3.811200 0.751407 -0.530456 0
M  V30 31 N -2.496205 0.728761 -0.501120 0
M  V30 32 C 0.286218 0.386075 -0.420596 0
M  V30 33 C 1.649655 0.154653 -0.374532 0
M  V30 34 C 5.696841 0.172154 1.223082 0
M  V30 35 H 5.472669 -2.655578 0.528766 0
M  V30 36 H 4.492375 -2.829772 1.912776 0
M  V30 37 H 6.667270 -1.470497 2.204766 0
M  V30 38 H 5.326511 -0.195304 3.911510 0
M  V30 39 H 4.764855 -1.955257 3.756014 0
M  V30 40 H 2.775372 -0.495348 3.697064 0
M  V30 41 H 3.135248 -1.303085 2.075727 0
M  V30 42 H 2.593023 1.184695 2.014340 0
M  V30 43 H 4.131385 1.449797 2.854619 0
M  V30 44 H 2.748824 3.245726 -0.744546 0
M  V30 45 H 0.272824 3.692081 -0.830490 0
M  V30 46 H -1.754775 3.899241 -0.905572 0
M  V30 47 H -4.263413 3.970486 -0.963462 0
M  V30 48 H -6.852868 -0.351958 -0.449554 0
M  V30 49 H -2.857048 -0.965063 1.303713 0
M  V30 50 H -1.928412 -3.109206 1.853901 0
M  V30 51 H -1.837882 -5.397892 1.537396 0
M  V30 52 H -4.335284 -7.270676 -1.279413 0
M  V30 53 H -5.389427 -5.070485 -1.935932 0
M  V30 54 H -5.475181 -2.626435 -1.590797 0
M  V30 55 H -0.419648 -0.455375 -0.326106 0
M  V30 56 H 1.938634 -0.900056 -0.240401 0
M  V30 57 H 6.205047 0.905653 1.845475 0
M  V30 58 H 6.232779 -0.076630 0.265338 0
M  V30 END ATOM
M  V30 BEGIN BOND
M  V30 1 1 1 2
M  V30 2 1 2 3
M  V30 3 1 3 4
M  V30 4 1 4 5
M  V30 5 1 5 6
M  V30 6 1 6 7
M  V30 7 2 7 8
M  V30 8 1 7 9
M  V30 9 2 9 10
M  V30 10 1 10 11
M  V30 11 2 11 12
M  V30 12 1 12 13
M  V30 13 1 13 14
M  V30 14 2 14 15
M  V30 15 1 15 16
M  V30 16 2 16 17
M  V30 17 1 17 18
M  V30 18 2 18 19
M  V30 19 1 19 20
M  V30 20 2 20 21
M  V30 21 1 21 22
M  V30 22 2 22 23
M  V30 23 1 23 24
M  V30 24 2 24 25
M  V30 25 1 25 26
M  V30 26 2 26 27
M  V30 27 1 27 28
M  V30 28 2 28 29
M  V30 29 1 19 30
M  V30 30 1 30 31
M  V30 31 1 12 32
M  V30 32 2 32 33
M  V30 33 1 6 34
M  V30 34 1 34 2
M  V30 35 1 33 9
M  V30 36 2 31 13
M  V30 37 1 30 16
M  V30 38 1 29 20
M  V30 39 1 28 23
M  V30 40 1 1 35
M  V30 41 1 1 36
M  V30 42 1 2 37 CFG=1
M  V30 43 1 3 38
M  V30 44 1 3 39
M  V30 45 1 4 40
M  V30 46 1 4 41
M  V30 47 1 5 42
M  V30 48 1 5 43
M  V30 49 1 10 44
M  V30 50 1 11 45
M  V30 51 1 14 46
M  V30 52 1 15 47
M  V30 53 1 18 48
M  V30 54 1 21 49
M  V30 55 1 22 50
M  V30 56 1 24 51
M  V30 57 1 26 52
M  V30 58 1 27 53
M  V30 59 1 29 54
M  V30 60 1 32 55
M  V30 61 1 33 56
M  V30 62 1 34 57
M  V30 63 1 34 58
M  V30 END BOND
M  V30 END CTAB
M  END
>  <Dataset>  (924) 
ChEMBL_Kinases

>  <Ligand_Instance>  (924) 
nan

>  <PDB_ID>  (924) 
nan

>  <Standardized_SMILES>  (924) 
N[C@@H]1CCCN(C(=O)c2ccc(-c3ccc4ncc(-c5ccc6cnccc6c5)n4n3)cc2)C1

>  <Name>  (924) 
nan

>  <Pocket>  (924) 
nan

>  <ATP_Site>  (924) 
nan

>  <Peripheral>  (924) 
nan

>  <Num_H_Atoms_ProtBoundConf>  (924) 
nan

>  <Num_Resolved_Atoms>  (924) 
nan

>  <Num_Not_Resolved_Atoms>  (924) 
nan

$$$$
CHEMBL4861883
     RDKit          3D

  0  0  0  0  0  0  0  0  0  0999 V3000
M  V30 BEGIN CTAB
M  V30 COUNTS 54 56 0 0 0
M  V30 BEGIN ATOM
M  V30 1 C -1.672025 -2.224382 3.855145 0
M  V30 2 C -1.162409 -2.519189 2.458226 0
M  V30 3 C -2.220487 -2.006954 1.496561 0
M  V30 4 C 0.094799 -1.756802 2.168922 0
M  V30 5 C 1.201957 -2.576135 1.574760 0 CFG=2
M  V30 6 N 1.140433 -2.742741 0.144529 0
M  V30 7 C 1.253449 -1.825808 -0.893387 0
M  V30 8 C 1.485458 -0.466983 -0.826591 0
M  V30 9 C 1.569553 0.360890 -1.919819 0
M  V30 10 N 1.773354 1.748119 -1.791730 0
M  V30 11 C 1.285015 3.104085 -1.704055 0
M  V30 12 C 0.359283 3.356801 -0.600915 0
M  V30 13 C 0.893017 3.875201 0.588050 0
M  V30 14 N 0.211671 4.151722 1.723160 0
M  V30 15 C -1.117999 3.923916 1.769132 0
M  V30 16 C -1.675719 3.418039 0.627886 0
M  V30 17 C -0.995135 3.126496 -0.551778 0
M  V30 18 C -1.680339 2.610611 -1.744189 0
M  V30 19 F -3.042663 2.519092 -1.403353 0
M  V30 20 F -1.638257 3.521539 -2.806070 0
M  V30 21 F -1.339154 1.352598 -2.134228 0
M  V30 22 N 1.423726 -0.153114 -3.138580 0
M  V30 23 C 1.199142 -1.445372 -3.310739 0
M  V30 24 C 1.118678 -2.248942 -2.203724 0
M  V30 25 C 0.872064 -3.648542 -2.467307 0
M  V30 26 N 0.666296 -4.769784 -2.693032 0
M  V30 27 C 1.450234 -3.865500 2.315320 0
M  V30 28 C 0.218564 -4.638751 2.640964 0
M  V30 29 C -1.086537 -4.004415 2.266317 0 CFG=2
M  V30 30 O -1.509352 -4.386055 0.992029 0
M  V30 31 H -1.340407 -1.192773 4.176187 0
M  V30 32 H -2.778157 -2.178376 3.819413 0
M  V30 33 H -1.329792 -2.983422 4.587663 0
M  V30 34 H -3.220918 -1.874034 1.982727 0
M  V30 35 H -1.943466 -0.994265 1.110548 0
M  V30 36 H -2.415712 -2.724102 0.655341 0
M  V30 37 H 0.431495 -1.310639 3.131854 0
M  V30 38 H -0.076156 -0.899423 1.493554 0
M  V30 39 H 2.131895 -1.970999 1.731978 0
M  V30 40 H 0.980965 -3.743233 -0.106385 0
M  V30 41 H 1.615116 -0.029275 0.130379 0
M  V30 42 H 2.837149 1.635832 -1.739309 0
M  V30 43 H 0.869876 3.445907 -2.691818 0
M  V30 44 H 2.179535 3.771747 -1.567837 0
M  V30 45 H 1.949678 4.099192 0.670715 0
M  V30 46 H -1.693299 4.131354 2.654597 0
M  V30 47 H -2.752952 3.225924 0.646100 0
M  V30 48 H 1.087349 -1.823615 -4.315927 0
M  V30 49 H 2.134138 -4.459063 1.675560 0
M  V30 50 H 2.014122 -3.692326 3.263366 0
M  V30 51 H 0.188939 -4.941571 3.709282 0
M  V30 52 H 0.230172 -5.610436 2.071321 0
M  V30 53 H -1.872163 -4.451897 2.942073 0
M  V30 54 H -2.413063 -4.743601 0.945808 0
M  V30 END ATOM
M  V30 BEGIN BOND
M  V30 1 1 1 2
M  V30 2 1 2 3
M  V30 3 1 2 4
M  V30 4 1 4 5
M  V30 5 1 5 6
M  V30 6 1 6 7
M  V30 7 2 7 8
M  V30 8 1 8 9
M  V30 9 1 9 10
M  V30 10 1 10 11
M  V30 11 1 11 12
M  V30 12 2 12 13
M  V30 13 1 13 14
M  V30 14 2 14 15
M  V30 15 1 15 16
M  V30 16 2 16 17
M  V30 17 1 17 18
M  V30 18 1 18 19
M  V30 19 1 18 20
M  V30 20 1 18 21
M  V30 21 2 9 22
M  V30 22 1 22 23
M  V30 23 2 23 24
M  V30 24 1 24 25
M  V30 25 3 25 26
M  V30 26 1 5 27
M  V30 27 1 27 28
M  V30 28 1 28 29
M  V30 29 1 29 30
M  V30 30 1 29 2
M  V30 31 1 24 7
M  V30 32 1 17 12
M  V30 33 1 1 31
M  V30 34 1 1 32
M  V30 35 1 1 33
M  V30 36 1 3 34
M  V30 37 1 3 35
M  V30 38 1 3 36
M  V30 39 1 4 37
M  V30 40 1 4 38
M  V30 41 1 5 39 CFG=3
M  V30 42 1 6 40
M  V30 43 1 8 41
M  V30 44 1 10 42
M  V30 45 1 11 43
M  V30 46 1 11 44
M  V30 47 1 13 45
M  V30 48 1 15 46
M  V30 49 1 16 47
M  V30 50 1 23 48
M  V30 51 1 27 49
M  V30 52 1 27 50
M  V30 53 1 28 51
M  V30 54 1 28 52
M  V30 55 1 29 53 CFG=1
M  V30 56 1 30 54
M  V30 END BOND
M  V30 END CTAB
M  END
>  <Dataset>  (925) 
ChEMBL_Kinases

>  <Ligand_Instance>  (925) 
nan

>  <PDB_ID>  (925) 
nan

>  <Standardized_SMILES>  (925) 
CC1(C)C[C@H](Nc2cc(NCc3cnccc3C(F)(F)F)ncc2C#N)CC[C@@H]1O

>  <Name>  (925) 
nan

>  <Pocket>  (925) 
nan

>  <ATP_Site>  (925) 
nan

>  <Peripheral>  (925) 
nan

>  <Num_H_Atoms_ProtBoundConf>  (925) 
nan

>  <Num_Resolved_Atoms>  (925) 
nan

>  <Num_Not_Resolved_Atoms>  (925) 
nan

$$$$
CHEMBL4861887
     RDKit          3D

  0  0  0  0  0  0  0  0  0  0999 V3000
M  V30 BEGIN CTAB
M  V30 COUNTS 54 58 0 0 0
M  V30 BEGIN ATOM
M  V30 1 C 4.178276 -7.222509 1.631904 0
M  V30 2 S 5.052653 -5.691432 1.586680 0
M  V30 3 O 5.473907 -5.357797 3.005439 0
M  V30 4 O 6.285280 -5.847432 0.746158 0
M  V30 5 C 4.019659 -4.434439 0.944947 0
M  V30 6 C 3.186194 -3.610435 1.655018 0
M  V30 7 C 2.431400 -2.665836 1.020788 0
M  V30 8 C 2.470786 -2.494584 -0.365984 0
M  V30 9 C 1.610403 -1.444765 -0.900238 0
M  V30 10 C 1.381245 -0.334459 -0.113585 0
M  V30 11 C 0.572352 0.683862 -0.578749 0
M  V30 12 C -0.022223 0.627356 -1.819940 0
M  V30 13 C -0.817255 1.675087 -2.233755 0
M  V30 14 N -1.077908 2.835261 -1.454571 0
M  V30 15 C -1.689388 3.113800 -0.200583 0
M  V30 16 C -1.648727 4.393493 0.304825 0
M  V30 17 C -2.266266 4.570690 1.505142 0
M  V30 18 N -2.881877 3.575713 2.171427 0
M  V30 19 C -2.947555 2.311983 1.718468 0
M  V30 20 C -3.640413 1.340583 2.537161 0
M  V30 21 C -4.186472 1.762545 3.727333 0
M  V30 22 C -4.866346 0.919317 4.579885 0
M  V30 23 F -5.387178 1.374746 5.739617 0
M  V30 24 C -5.037519 -0.414651 4.279022 0
M  V30 25 C -4.504112 -0.873925 3.094629 0
M  V30 26 C -3.835064 0.008968 2.279924 0
M  V30 27 F -3.340224 -0.508974 1.137547 0
M  V30 28 C -2.331477 2.132686 0.519875 0
M  V30 29 C -1.372930 1.536662 -3.502441 0
M  V30 30 C -1.171523 0.447778 -4.322880 0
M  V30 31 N -0.381363 -0.515572 -3.822339 0
M  V30 32 C 0.200908 -0.475800 -2.611836 0
M  V30 33 C 1.014440 -1.513560 -2.158961 0
M  V30 34 C 3.307293 -3.323508 -1.066307 0
M  V30 35 C 4.071353 -4.279095 -0.428526 0
M  V30 36 H 3.162776 -7.167586 1.165052 0
M  V30 37 H 4.007726 -7.583245 2.662110 0
M  V30 38 H 4.772969 -8.024939 1.119139 0
M  V30 39 H 3.198489 -3.790685 2.725574 0
M  V30 40 H 1.820830 -2.092434 1.734350 0
M  V30 41 H 1.830782 -0.240806 0.881309 0
M  V30 42 H 0.430990 1.532227 0.074769 0
M  V30 43 H -0.694638 3.608484 -2.016623 0
M  V30 44 H -1.163397 5.215286 -0.203504 0
M  V30 45 H -2.281301 5.543406 1.972143 0
M  V30 46 H -4.111392 2.798647 4.066610 0
M  V30 47 H -5.558635 -1.113543 4.908981 0
M  V30 48 H -4.621212 -1.911399 2.831065 0
M  V30 49 H -2.335573 1.151656 0.083569 0
M  V30 50 H -2.018740 2.319398 -3.917186 0
M  V30 51 H -1.617693 0.371308 -5.302975 0
M  V30 52 H 1.191126 -2.376505 -2.773348 0
M  V30 53 H 3.320073 -3.173047 -2.130122 0
M  V30 54 H 4.707447 -4.891431 -1.077305 0
M  V30 END ATOM
M  V30 BEGIN BOND
M  V30 1 1 1 2
M  V30 2 2 2 3
M  V30 3 2 2 4
M  V30 4 1 2 5
M  V30 5 2 5 6
M  V30 6 1 6 7
M  V30 7 2 7 8
M  V30 8 1 8 9
M  V30 9 2 9 10
M  V30 10 1 10 11
M  V30 11 2 11 12
M  V30 12 1 12 13
M  V30 13 1 13 14
M  V30 14 1 14 15
M  V30 15 2 15 16
M  V30 16 1 16 17
M  V30 17 2 17 18
M  V30 18 1 18 19
M  V30 19 1 19 20
M  V30 20 2 20 21
M  V30 21 1 21 22
M  V30 22 1 22 23
M  V30 23 2 22 24
M  V30 24 1 24 25
M  V30 25 2 25 26
M  V30 26 1 26 27
M  V30 27 2 19 28
M  V30 28 2 13 29
M  V30 29 1 29 30
M  V30 30 2 30 31
M  V30 31 1 31 32
M  V30 32 2 32 33
M  V30 33 1 8 34
M  V30 34 2 34 35
M  V30 35 1 35 5
M  V30 36 1 33 9
M  V30 37 1 32 12
M  V30 38 1 28 15
M  V30 39 1 26 20
M  V30 40 1 1 36
M  V30 41 1 1 37
M  V30 42 1 1 38
M  V30 43 1 6 39
M  V30 44 1 7 40
M  V30 45 1 10 41
M  V30 46 1 11 42
M  V30 47 1 14 43
M  V30 48 1 16 44
M  V30 49 1 17 45
M  V30 50 1 21 46
M  V30 51 1 24 47
M  V30 52 1 25 48
M  V30 53 1 28 49
M  V30 54 1 29 50
M  V30 55 1 30 51
M  V30 56 1 33 52
M  V30 57 1 34 53
M  V30 58 1 35 54
M  V30 END BOND
M  V30 END CTAB
M  END
>  <Dataset>  (926) 
ChEMBL_Kinases

>  <Ligand_Instance>  (926) 
nan

>  <PDB_ID>  (926) 
nan

>  <Standardized_SMILES>  (926) 
CS(=O)(=O)c1ccc(-c2ccc3c(Nc4ccnc(-c5cc(F)ccc5F)c4)ccnc3c2)cc1

>  <Name>  (926) 
nan

>  <Pocket>  (926) 
nan

>  <ATP_Site>  (926) 
nan

>  <Peripheral>  (926) 
nan

>  <Num_H_Atoms_ProtBoundConf>  (926) 
nan

>  <Num_Resolved_Atoms>  (926) 
nan

>  <Num_Not_Resolved_Atoms>  (926) 
nan

$$$$
CHEMBL4861930
     RDKit          3D

  0  0  0  0  0  0  0  0  0  0999 V3000
M  V30 BEGIN CTAB
M  V30 COUNTS 34 36 0 0 0
M  V30 BEGIN ATOM
M  V30 1 O 1.140810 0.470435 2.749757 0
M  V30 2 C 1.542751 0.078746 1.478815 0
M  V30 3 C 1.118118 -1.352212 1.271527 0
M  V30 4 C 1.103189 -2.151470 2.417307 0
M  V30 5 C 0.747527 -3.484996 2.447800 0
M  V30 6 C 0.385309 -4.039668 1.241703 0
M  V30 7 C 0.389004 -3.278960 0.091389 0
M  V30 8 C 0.748064 -1.948417 0.084842 0
M  V30 9 C 3.014259 0.097550 1.291372 0
M  V30 10 S 3.129276 0.191732 -0.540545 0
M  V30 11 C 1.547213 1.048010 -0.741432 0
M  V30 12 S 1.219723 1.762734 -2.145845 0
M  V30 13 N 0.878952 0.889256 0.502624 0
M  V30 14 C -0.407830 1.511323 0.761110 0
M  V30 15 C -1.502441 1.075209 -0.097783 0
M  V30 16 C -2.048652 1.565877 -1.261037 0
M  V30 17 C -3.097975 0.917750 -1.878761 0
M  V30 18 N -3.665443 -0.213805 -1.418014 0
M  V30 19 C -3.153882 -0.719353 -0.280833 0
M  V30 20 C -2.089123 -0.104151 0.388752 0
M  V30 21 H 0.290588 -0.013966 2.955598 0
M  V30 22 H 1.391264 -1.717649 3.387795 0
M  V30 23 H 0.762640 -4.034246 3.379490 0
M  V30 24 H 0.097439 -5.070025 1.190938 0
M  V30 25 H 0.107535 -3.696202 -0.867063 0
M  V30 26 H 0.774771 -1.292129 -0.773761 0
M  V30 27 H 3.541879 -0.768705 1.678301 0
M  V30 28 H 3.416888 1.060824 1.675459 0
M  V30 29 H -0.705069 1.450564 1.838292 0
M  V30 30 H -0.251483 2.628869 0.620885 0
M  V30 31 H -1.579556 2.462612 -1.583966 0
M  V30 32 H -3.434525 1.403558 -2.782785 0
M  V30 33 H -3.616064 -1.623944 0.077488 0
M  V30 34 H -1.796762 -0.648634 1.298825 0
M  V30 END ATOM
M  V30 BEGIN BOND
M  V30 1 1 1 2
M  V30 2 1 2 3
M  V30 3 2 3 4
M  V30 4 1 4 5
M  V30 5 2 5 6
M  V30 6 1 6 7
M  V30 7 2 7 8
M  V30 8 1 2 9
M  V30 9 1 9 10
M  V30 10 1 10 11
M  V30 11 2 11 12
M  V30 12 1 11 13
M  V30 13 1 13 14
M  V30 14 1 14 15
M  V30 15 2 15 16
M  V30 16 1 16 17
M  V30 17 2 17 18
M  V30 18 1 18 19
M  V30 19 2 19 20
M  V30 20 1 13 2
M  V30 21 1 20 15
M  V30 22 1 8 3
M  V30 23 1 1 21
M  V30 24 1 4 22
M  V30 25 1 5 23
M  V30 26 1 6 24
M  V30 27 1 7 25
M  V30 28 1 8 26
M  V30 29 1 9 27
M  V30 30 1 9 28
M  V30 31 1 14 29
M  V30 32 1 14 30
M  V30 33 1 16 31
M  V30 34 1 17 32
M  V30 35 1 19 33
M  V30 36 1 20 34
M  V30 END BOND
M  V30 END CTAB
M  END
>  <Dataset>  (927) 
ChEMBL_Kinases

>  <Ligand_Instance>  (927) 
nan

>  <PDB_ID>  (927) 
nan

>  <Standardized_SMILES>  (927) 
OC1(c2ccccc2)CSC(=S)N1Cc1ccncc1

>  <Name>  (927) 
nan

>  <Pocket>  (927) 
nan

>  <ATP_Site>  (927) 
nan

>  <Peripheral>  (927) 
nan

>  <Num_H_Atoms_ProtBoundConf>  (927) 
nan

>  <Num_Resolved_Atoms>  (927) 
nan

>  <Num_Not_Resolved_Atoms>  (927) 
nan

$$$$
CHEMBL4861984
     RDKit          3D

  0  0  0  0  0  0  0  0  0  0999 V3000
M  V30 BEGIN CTAB
M  V30 COUNTS 60 65 0 0 0
M  V30 BEGIN ATOM
M  V30 1 C 3.115299 -4.393293 3.524910 0
M  V30 2 C 2.001894 -3.482149 4.026790 0
M  V30 3 N 2.073948 -2.183681 3.438936 0
M  V30 4 C 2.789472 -1.148539 3.974170 0
M  V30 5 O 3.474369 -1.126802 5.022214 0
M  V30 6 C 2.635548 -0.066243 3.137776 0
M  V30 7 C 3.118996 1.230207 3.161893 0
M  V30 8 N 2.793155 2.097434 2.167806 0
M  V30 9 C 1.985928 1.643082 1.166560 0
M  V30 10 N 1.479092 2.282246 -0.004084 0
M  V30 11 C 0.084838 2.275552 -0.319050 0
M  V30 12 C -0.398869 2.742304 -1.500050 0
M  V30 13 C -1.752285 2.724540 -1.769148 0
M  V30 14 C -2.659742 2.241395 -0.868981 0
M  V30 15 C -2.158875 1.762187 0.345420 0
M  V30 16 C -0.804851 1.779715 0.615511 0
M  V30 17 C -3.146725 1.235979 1.329078 0
M  V30 18 N -4.005427 0.320459 0.637980 0
M  V30 19 C -4.666921 0.829907 -0.514710 0
M  V30 20 C -4.135922 2.152412 -1.015846 0
M  V30 21 N 1.535494 0.389252 1.171830 0
M  V30 22 C 1.827599 -0.507747 2.130731 0
M  V30 23 N 1.489637 -1.824244 2.337586 0
M  V30 24 C 0.638742 -2.439348 1.379067 0
M  V30 25 C -0.473100 -3.218442 1.610410 0
M  V30 26 C -1.258991 -3.768050 0.621918 0
M  V30 27 C -0.918976 -3.528716 -0.690343 0
M  V30 28 C 0.179900 -2.759218 -0.941806 0
M  V30 29 C 0.460118 -2.545466 -2.386690 0
M  V30 30 C -0.249169 -1.320662 -2.944300 0
M  V30 31 F -1.615786 -1.453765 -2.802854 0
M  V30 32 C 1.937437 -2.711998 -2.793361 0
M  V30 33 C 0.902414 -3.622405 -3.282640 0
M  V30 34 N 0.915409 -2.245054 0.057670 0
M  V30 35 H 4.050812 -3.984915 3.958213 0
M  V30 36 H 3.081265 -4.355297 2.428936 0
M  V30 37 H 2.904692 -5.397220 3.947823 0
M  V30 38 H 1.057157 -4.010950 3.955347 0
M  V30 39 H 2.194540 -3.379003 5.138058 0
M  V30 40 H 3.753287 1.602502 3.939765 0
M  V30 41 H 2.130744 2.781226 -0.675942 0
M  V30 42 H 0.300610 3.123646 -2.215927 0
M  V30 43 H -2.172308 3.083840 -2.691688 0
M  V30 44 H -0.536892 1.386398 1.591246 0
M  V30 45 H -2.566172 0.658339 2.076059 0
M  V30 46 H -3.655636 2.030852 1.880659 0
M  V30 47 H -4.663024 -0.186222 1.245181 0
M  V30 48 H -5.753725 0.924604 -0.437346 0
M  V30 49 H -4.468287 0.085313 -1.341499 0
M  V30 50 H -4.359576 2.276715 -2.096924 0
M  V30 51 H -4.641376 2.990959 -0.494562 0
M  V30 52 H -0.756856 -3.404176 2.632692 0
M  V30 53 H -2.103995 -4.359947 0.894744 0
M  V30 54 H -1.549123 -3.969280 -1.443816 0
M  V30 55 H 0.002869 -0.403994 -2.331386 0
M  V30 56 H -0.011084 -1.122584 -3.993522 0
M  V30 57 H 2.333742 -1.861587 -3.398744 0
M  V30 58 H 2.642787 -3.028848 -2.012498 0
M  V30 59 H 0.931131 -4.667015 -2.959577 0
M  V30 60 H 0.617443 -3.519169 -4.354813 0
M  V30 END ATOM
M  V30 BEGIN BOND
M  V30 1 1 1 2
M  V30 2 1 2 3
M  V30 3 1 3 4
M  V30 4 2 4 5
M  V30 5 1 4 6
M  V30 6 2 6 7
M  V30 7 1 7 8
M  V30 8 2 8 9
M  V30 9 1 9 10
M  V30 10 1 10 11
M  V30 11 2 11 12
M  V30 12 1 12 13
M  V30 13 2 13 14
M  V30 14 1 14 15
M  V30 15 2 15 16
M  V30 16 1 15 17
M  V30 17 1 17 18
M  V30 18 1 18 19
M  V30 19 1 19 20
M  V30 20 1 9 21
M  V30 21 2 21 22
M  V30 22 1 22 23
M  V30 23 1 23 24
M  V30 24 2 24 25
M  V30 25 1 25 26
M  V30 26 2 26 27
M  V30 27 1 27 28
M  V30 28 1 28 29
M  V30 29 1 29 30
M  V30 30 1 30 31
M  V30 31 1 29 32
M  V30 32 1 32 33
M  V30 33 2 28 34
M  V30 34 1 23 3
M  V30 35 1 34 24
M  V30 36 1 22 6
M  V30 37 1 33 29
M  V30 38 1 16 11
M  V30 39 1 20 14
M  V30 40 1 1 35
M  V30 41 1 1 36
M  V30 42 1 1 37
M  V30 43 1 2 38
M  V30 44 1 2 39
M  V30 45 1 7 40
M  V30 46 1 10 41
M  V30 47 1 12 42
M  V30 48 1 13 43
M  V30 49 1 16 44
M  V30 50 1 17 45
M  V30 51 1 17 46
M  V30 52 1 18 47
M  V30 53 1 19 48
M  V30 54 1 19 49
M  V30 55 1 20 50
M  V30 56 1 20 51
M  V30 57 1 25 52
M  V30 58 1 26 53
M  V30 59 1 27 54
M  V30 60 1 30 55
M  V30 61 1 30 56
M  V30 62 1 32 57
M  V30 63 1 32 58
M  V30 64 1 33 59
M  V30 65 1 33 60
M  V30 END BOND
M  V30 END CTAB
M  END
>  <Dataset>  (928) 
ChEMBL_Kinases

>  <Ligand_Instance>  (928) 
nan

>  <PDB_ID>  (928) 
nan

>  <Standardized_SMILES>  (928) 
CCn1c(=O)c2cnc(Nc3ccc4c(c3)CNCC4)nc2n1-c1cccc(C2(CF)CC2)n1

>  <Name>  (928) 
nan

>  <Pocket>  (928) 
nan

>  <ATP_Site>  (928) 
nan

>  <Peripheral>  (928) 
nan

>  <Num_H_Atoms_ProtBoundConf>  (928) 
nan

>  <Num_Resolved_Atoms>  (928) 
nan

>  <Num_Not_Resolved_Atoms>  (928) 
nan

$$$$
CHEMBL4862651
     RDKit          3D

  0  0  0  0  0  0  0  0  0  0999 V3000
M  V30 BEGIN CTAB
M  V30 COUNTS 58 63 0 0 0
M  V30 BEGIN ATOM
M  V30 1 N 5.981655 -2.114611 2.838088 0
M  V30 2 C 5.016344 -2.469659 1.828547 0
M  V30 3 C 5.619165 -2.412737 0.450491 0
M  V30 4 C 5.833343 -0.998183 -0.048373 0
M  V30 5 N 4.546285 -0.296397 -0.049509 0
M  V30 6 C 3.886116 0.234402 -1.195606 0
M  V30 7 O 4.468075 0.084759 -2.291027 0
M  V30 8 C 2.609698 0.881620 -0.907257 0
M  V30 9 C 2.321742 2.220751 -0.748205 0
M  V30 10 C 1.033307 2.632890 -0.474964 0
M  V30 11 C 0.018277 1.706450 -0.357877 0
M  V30 12 C -1.362341 2.091405 -0.071300 0
M  V30 13 C -1.777161 3.394221 0.103341 0
M  V30 14 C -3.120662 3.659236 0.371592 0
M  V30 15 C -4.079932 2.664893 0.474156 0
M  V30 16 N -5.396130 2.597586 0.712371 0
M  V30 17 C -5.745617 1.289030 0.678469 0
M  V30 18 C -4.617952 0.513715 0.411896 0
M  V30 19 C -4.498503 -0.940715 0.280174 0
M  V30 20 C -3.738301 -1.331782 -0.800625 0
M  V30 21 C -3.529911 -2.667848 -1.060308 0
M  V30 22 C -4.083573 -3.619971 -0.236475 0
M  V30 23 C -3.865122 -4.961454 -0.510656 0
M  V30 24 N -4.431066 -5.862589 0.328664 0
M  V30 25 C -5.167700 -5.467518 1.374542 0
M  V30 26 C -5.393540 -4.153447 1.660469 0
M  V30 27 C -4.835753 -3.213490 0.832097 0
M  V30 28 C -5.063545 -1.878834 1.119785 0
M  V30 29 N -3.605072 1.427256 0.293379 0
M  V30 30 N -2.333212 1.165583 0.038554 0
M  V30 31 C 0.295933 0.361933 -0.515252 0
M  V30 32 C 1.583331 -0.061201 -0.789246 0
M  V30 33 C 4.044511 -0.224386 1.310321 0
M  V30 34 C 3.827237 -1.555858 1.953733 0
M  V30 35 H 5.669064 -1.312451 3.434262 0
M  V30 36 H 6.927799 -1.895851 2.474439 0
M  V30 37 H 4.648029 -3.509681 1.981571 0
M  V30 38 H 4.977949 -2.939118 -0.280431 0
M  V30 39 H 6.574725 -2.945481 0.475932 0
M  V30 40 H 6.527916 -0.429222 0.568614 0
M  V30 41 H 6.230681 -1.086972 -1.077657 0
M  V30 42 H 3.183802 2.861538 -0.858191 0
M  V30 43 H 0.849444 3.683909 -0.358503 0
M  V30 44 H -1.075473 4.187589 0.033385 0
M  V30 45 H -3.467501 4.692395 0.513338 0
M  V30 46 H -6.739028 0.865752 0.830167 0
M  V30 47 H -3.270619 -0.661055 -1.493188 0
M  V30 48 H -2.932936 -3.006094 -1.908372 0
M  V30 49 H -3.271675 -5.324057 -1.351830 0
M  V30 50 H -5.564726 -6.305587 1.968496 0
M  V30 51 H -5.986401 -3.878530 2.503499 0
M  V30 52 H -5.646195 -1.498548 1.945702 0
M  V30 53 H -0.531494 -0.357137 -0.416373 0
M  V30 54 H 1.693508 -1.147949 -0.895323 0
M  V30 55 H 3.072429 0.309451 1.302831 0
M  V30 56 H 4.786434 0.381667 1.875253 0
M  V30 57 H 3.706928 -1.356935 3.053983 0
M  V30 58 H 2.942020 -2.060533 1.561674 0
M  V30 END ATOM
M  V30 BEGIN BOND
M  V30 1 1 1 2
M  V30 2 1 2 3
M  V30 3 1 3 4
M  V30 4 1 4 5
M  V30 5 1 5 6
M  V30 6 2 6 7
M  V30 7 1 6 8
M  V30 8 2 8 9
M  V30 9 1 9 10
M  V30 10 2 10 11
M  V30 11 1 11 12
M  V30 12 1 12 13
M  V30 13 2 13 14
M  V30 14 1 14 15
M  V30 15 2 15 16
M  V30 16 1 16 17
M  V30 17 2 17 18
M  V30 18 1 18 19
M  V30 19 2 19 20
M  V30 20 1 20 21
M  V30 21 2 21 22
M  V30 22 1 22 23
M  V30 23 2 23 24
M  V30 24 1 24 25
M  V30 25 2 25 26
M  V30 26 1 26 27
M  V30 27 2 27 28
M  V30 28 1 18 29
M  V30 29 1 29 30
M  V30 30 1 11 31
M  V30 31 2 31 32
M  V30 32 1 5 33
M  V30 33 1 33 34
M  V30 34 1 34 2
M  V30 35 1 32 8
M  V30 36 2 30 12
M  V30 37 1 29 15
M  V30 38 1 28 19
M  V30 39 1 27 22
M  V30 40 1 1 35
M  V30 41 1 1 36
M  V30 42 1 2 37
M  V30 43 1 3 38
M  V30 44 1 3 39
M  V30 45 1 4 40
M  V30 46 1 4 41
M  V30 47 1 9 42
M  V30 48 1 10 43
M  V30 49 1 13 44
M  V30 50 1 14 45
M  V30 51 1 17 46
M  V30 52 1 20 47
M  V30 53 1 21 48
M  V30 54 1 23 49
M  V30 55 1 25 50
M  V30 56 1 26 51
M  V30 57 1 28 52
M  V30 58 1 31 53
M  V30 59 1 32 54
M  V30 60 1 33 55
M  V30 61 1 33 56
M  V30 62 1 34 57
M  V30 63 1 34 58
M  V30 END BOND
M  V30 END CTAB
M  END
>  <Dataset>  (929) 
ChEMBL_Kinases

>  <Ligand_Instance>  (929) 
nan

>  <PDB_ID>  (929) 
nan

>  <Standardized_SMILES>  (929) 
NC1CCN(C(=O)c2ccc(-c3ccc4ncc(-c5ccc6cnccc6c5)n4n3)cc2)CC1

>  <Name>  (929) 
nan

>  <Pocket>  (929) 
nan

>  <ATP_Site>  (929) 
nan

>  <Peripheral>  (929) 
nan

>  <Num_H_Atoms_ProtBoundConf>  (929) 
nan

>  <Num_Resolved_Atoms>  (929) 
nan

>  <Num_Not_Resolved_Atoms>  (929) 
nan

$$$$
CHEMBL4865566
     RDKit          3D

  0  0  0  0  0  0  0  0  0  0999 V3000
M  V30 BEGIN CTAB
M  V30 COUNTS 47 50 0 0 0
M  V30 BEGIN ATOM
M  V30 1 O -2.080410 0.817442 0.543362 0
M  V30 2 C -1.026824 0.467011 1.101486 0
M  V30 3 C 0.234887 0.987507 0.531320 0
M  V30 4 C 0.034173 1.492472 -0.748783 0
M  V30 5 C 1.138276 2.014099 -1.400989 0
M  V30 6 C 2.387995 2.032088 -0.804350 0
M  V30 7 C 3.590005 2.570687 -1.446598 0
M  V30 8 C 4.591523 3.150904 -0.669834 0
M  V30 9 C 5.748194 3.677609 -1.199263 0
M  V30 10 N 5.933397 3.636569 -2.531462 0
M  V30 11 C 4.970527 3.074813 -3.317445 0
M  V30 12 C 3.793004 2.535472 -2.809828 0
M  V30 13 C 2.568795 1.523055 0.475128 0
M  V30 14 C 1.489616 0.995663 1.153492 0
M  V30 15 O 1.766606 0.503323 2.443292 0
M  V30 16 C 0.889215 0.055358 3.457858 0
M  V30 17 C -0.098848 -0.974195 3.002036 0
M  V30 18 N -1.202734 -0.396939 2.223589 0
M  V30 19 C -2.542557 -0.749688 2.650867 0
M  V30 20 C -3.081748 -1.958407 2.029031 0
M  V30 21 C -3.812570 -2.058928 0.864356 0
M  V30 22 C -4.283978 -3.246138 0.347165 0
M  V30 23 C -4.019391 -4.417242 1.020813 0
M  V30 24 C -3.282284 -4.362215 2.205300 0
M  V30 25 O -3.077493 -5.598558 2.795505 0
M  V30 26 C -1.919897 -6.308872 2.414491 0
M  V30 27 F -1.811754 -7.527652 3.061014 0
M  V30 28 F -0.843498 -5.524007 2.842150 0
M  V30 29 F -1.825599 -6.531624 1.070442 0
M  V30 30 C -2.827328 -3.156527 2.691905 0
M  V30 31 H -0.939361 1.464105 -1.180357 0
M  V30 32 H 1.059520 2.418526 -2.383964 0
M  V30 33 H 4.423571 3.174408 0.400776 0
M  V30 34 H 6.472116 4.111602 -0.492327 0
M  V30 35 H 5.150088 3.057144 -4.390256 0
M  V30 36 H 3.048005 2.097432 -3.451800 0
M  V30 37 H 3.478981 1.480531 1.039539 0
M  V30 38 H 0.352531 0.876965 3.970673 0
M  V30 39 H 1.521445 -0.439212 4.225953 0
M  V30 40 H -0.535733 -1.445642 3.893266 0
M  V30 41 H 0.409744 -1.712628 2.339541 0
M  V30 42 H -3.212695 0.106720 2.397808 0
M  V30 43 H -2.511499 -0.859805 3.751283 0
M  V30 44 H -4.008059 -1.126605 0.353787 0
M  V30 45 H -4.856012 -3.256936 -0.578355 0
M  V30 46 H -4.395794 -5.344373 0.603677 0
M  V30 47 H -2.266060 -3.269583 3.626303 0
M  V30 END ATOM
M  V30 BEGIN BOND
M  V30 1 2 1 2
M  V30 2 1 2 3
M  V30 3 2 3 4
M  V30 4 1 4 5
M  V30 5 2 5 6
M  V30 6 1 6 7
M  V30 7 2 7 8
M  V30 8 1 8 9
M  V30 9 2 9 10
M  V30 10 1 10 11
M  V30 11 2 11 12
M  V30 12 1 6 13
M  V30 13 2 13 14
M  V30 14 1 14 15
M  V30 15 1 15 16
M  V30 16 1 16 17
M  V30 17 1 17 18
M  V30 18 1 18 19
M  V30 19 1 19 20
M  V30 20 2 20 21
M  V30 21 1 21 22
M  V30 22 2 22 23
M  V30 23 1 23 24
M  V30 24 1 24 25
M  V30 25 1 25 26
M  V30 26 1 26 27
M  V30 27 1 26 28
M  V30 28 1 26 29
M  V30 29 2 24 30
M  V30 30 1 18 2
M  V30 31 1 30 20
M  V30 32 1 14 3
M  V30 33 1 12 7
M  V30 34 1 4 31
M  V30 35 1 5 32
M  V30 36 1 8 33
M  V30 37 1 9 34
M  V30 38 1 11 35
M  V30 39 1 12 36
M  V30 40 1 13 37
M  V30 41 1 16 38
M  V30 42 1 16 39
M  V30 43 1 17 40
M  V30 44 1 17 41
M  V30 45 1 19 42
M  V30 46 1 19 43
M  V30 47 1 21 44
M  V30 48 1 22 45
M  V30 49 1 23 46
M  V30 50 1 30 47
M  V30 END BOND
M  V30 END CTAB
M  END
>  <Dataset>  (930) 
ChEMBL_Kinases

>  <Ligand_Instance>  (930) 
nan

>  <PDB_ID>  (930) 
nan

>  <Standardized_SMILES>  (930) 
O=C1c2ccc(-c3ccncc3)cc2OCCN1Cc1cccc(OC(F)(F)F)c1

>  <Name>  (930) 
nan

>  <Pocket>  (930) 
nan

>  <ATP_Site>  (930) 
nan

>  <Peripheral>  (930) 
nan

>  <Num_H_Atoms_ProtBoundConf>  (930) 
nan

>  <Num_Resolved_Atoms>  (930) 
nan

>  <Num_Not_Resolved_Atoms>  (930) 
nan

$$$$
CHEMBL4859971
     RDKit          3D

  0  0  0  0  0  0  0  0  0  0999 V3000
M  V30 BEGIN CTAB
M  V30 COUNTS 57 61 0 0 0
M  V30 BEGIN ATOM
M  V30 1 C 0.495516 -1.157599 3.704503 0
M  V30 2 O 0.360737 -2.298616 2.866819 0
M  V30 3 C 1.317095 -2.686514 1.956079 0
M  V30 4 C 2.536734 -2.069748 1.692738 0
M  V30 5 C 3.431123 -2.552326 0.744424 0
M  V30 6 N 4.589454 -1.780545 0.633258 0
M  V30 7 C 4.943281 -0.434499 0.521494 0
M  V30 8 N 6.240978 -0.131140 0.700963 0
M  V30 9 C 6.757936 1.100820 0.625444 0
M  V30 10 N 5.893863 2.111849 0.345293 0
M  V30 11 C 4.584443 1.875601 0.153585 0
M  V30 12 C 3.689723 2.904206 -0.150223 0
M  V30 13 C 2.360048 2.596460 -0.351739 0
M  V30 14 C 1.881025 1.305755 -0.264070 0
M  V30 15 C 0.464662 1.077934 -0.518834 0
M  V30 16 C -0.463213 2.046067 -0.813520 0
M  V30 17 C -1.784968 1.735174 -1.055659 0
M  V30 18 C -2.256277 0.435289 -1.017390 0
M  V30 19 C -3.666984 0.200366 -1.286393 0
M  V30 20 O -4.005071 0.749423 -2.368671 0
M  V30 21 N -4.507436 -0.563219 -0.398599 0
M  V30 22 C -4.237145 -1.225243 0.840491 0
M  V30 23 C -4.747598 -2.634217 0.846478 0
M  V30 24 N -5.181988 -3.023836 -0.468331 0
M  V30 25 C -6.239627 -2.168695 -0.975892 0
M  V30 26 C -5.874383 -0.700246 -0.813258 0
M  V30 27 C -1.334262 -0.545673 -0.723012 0
M  V30 28 C -0.024543 -0.215745 -0.485026 0
M  V30 29 N 2.756981 0.319257 0.031976 0
M  V30 30 C 4.068035 0.589504 0.236016 0
M  V30 31 C 3.079394 -3.687472 0.046424 0
M  V30 32 C 1.877444 -4.333156 0.275636 0
M  V30 33 C 1.019254 -3.821670 1.225188 0
M  V30 34 F -0.145294 -4.533877 1.377504 0
M  V30 35 H 0.498713 -0.209450 3.140050 0
M  V30 36 H -0.320952 -1.109131 4.445584 0
M  V30 37 H 1.490540 -1.279186 4.218747 0
M  V30 38 H 2.634094 -1.198049 2.344046 0
M  V30 39 H 5.336331 -2.521624 0.648144 0
M  V30 40 H 7.809468 1.305065 0.776022 0
M  V30 41 H 4.139485 3.886537 -0.202020 0
M  V30 42 H 1.799106 3.480944 -0.574359 0
M  V30 43 H -0.143341 3.058592 -0.853912 0
M  V30 44 H -2.478807 2.541919 -1.283457 0
M  V30 45 H -4.818197 -0.664345 1.629797 0
M  V30 46 H -3.167227 -1.171379 1.141061 0
M  V30 47 H -3.898388 -3.303094 1.117116 0
M  V30 48 H -5.507938 -2.804355 1.634232 0
M  V30 49 H -5.525701 -4.003426 -0.424254 0
M  V30 50 H -7.217543 -2.395206 -0.529480 0
M  V30 51 H -6.311914 -2.364461 -2.077362 0
M  V30 52 H -6.147008 -0.137577 -1.714398 0
M  V30 53 H -6.495644 -0.329860 0.053251 0
M  V30 54 H -1.669857 -1.558354 -0.687461 0
M  V30 55 H 0.681368 -1.003009 -0.262131 0
M  V30 56 H 3.831999 -3.991268 -0.669409 0
M  V30 57 H 1.664491 -5.226704 -0.312413 0
M  V30 END ATOM
M  V30 BEGIN BOND
M  V30 1 1 1 2
M  V30 2 1 2 3
M  V30 3 2 3 4
M  V30 4 1 4 5
M  V30 5 1 5 6
M  V30 6 1 6 7
M  V30 7 2 7 8
M  V30 8 1 8 9
M  V30 9 2 9 10
M  V30 10 1 10 11
M  V30 11 2 11 12
M  V30 12 1 12 13
M  V30 13 2 13 14
M  V30 14 1 14 15
M  V30 15 2 15 16
M  V30 16 1 16 17
M  V30 17 2 17 18
M  V30 18 1 18 19
M  V30 19 2 19 20
M  V30 20 1 19 21
M  V30 21 1 21 22
M  V30 22 1 22 23
M  V30 23 1 23 24
M  V30 24 1 24 25
M  V30 25 1 25 26
M  V30 26 1 18 27
M  V30 27 2 27 28
M  V30 28 1 14 29
M  V30 29 2 29 30
M  V30 30 2 5 31
M  V30 31 1 31 32
M  V30 32 2 32 33
M  V30 33 1 33 34
M  V30 34 1 33 3
M  V30 35 1 30 7
M  V30 36 1 30 11
M  V30 37 1 28 15
M  V30 38 1 26 21
M  V30 39 1 1 35
M  V30 40 1 1 36
M  V30 41 1 1 37
M  V30 42 1 4 38
M  V30 43 1 6 39
M  V30 44 1 9 40
M  V30 45 1 12 41
M  V30 46 1 13 42
M  V30 47 1 16 43
M  V30 48 1 17 44
M  V30 49 1 22 45
M  V30 50 1 22 46
M  V30 51 1 23 47
M  V30 52 1 23 48
M  V30 53 1 24 49
M  V30 54 1 25 50
M  V30 55 1 25 51
M  V30 56 1 26 52
M  V30 57 1 26 53
M  V30 58 1 27 54
M  V30 59 1 28 55
M  V30 60 1 31 56
M  V30 61 1 32 57
M  V30 END BOND
M  V30 END CTAB
M  END
>  <Dataset>  (931) 
ChEMBL_Kinases

>  <Ligand_Instance>  (931) 
nan

>  <PDB_ID>  (931) 
nan

>  <Standardized_SMILES>  (931) 
COc1cc(Nc2ncnc3ccc(-c4ccc(C(=O)N5CCNCC5)cc4)nc23)ccc1F

>  <Name>  (931) 
nan

>  <Pocket>  (931) 
nan

>  <ATP_Site>  (931) 
nan

>  <Peripheral>  (931) 
nan

>  <Num_H_Atoms_ProtBoundConf>  (931) 
nan

>  <Num_Resolved_Atoms>  (931) 
nan

>  <Num_Not_Resolved_Atoms>  (931) 
nan

$$$$
CHEMBL4860051
     RDKit          3D

  0  0  0  0  0  0  0  0  0  0999 V3000
M  V30 BEGIN CTAB
M  V30 COUNTS 39 41 0 0 0
M  V30 BEGIN ATOM
M  V30 1 C 1.800803 -4.093915 4.499748 0
M  V30 2 S 0.756543 -4.916971 3.277741 0
M  V30 3 C 0.576458 -3.913533 1.820887 0
M  V30 4 C 1.604372 -4.143686 0.907178 0
M  V30 5 C 1.605250 -3.422680 -0.292192 0
M  V30 6 C 0.584082 -2.528119 -0.491983 0
M  V30 7 C -0.462023 -2.268821 0.397541 0
M  V30 8 N -1.478889 -1.320381 0.120651 0
M  V30 9 C -1.713175 0.006586 0.646258 0
M  V30 10 C -1.094526 1.178348 0.753898 0
M  V30 11 C 0.223453 1.585915 0.312984 0
M  V30 12 C 1.143674 1.705271 1.345458 0
M  V30 13 C 2.413221 2.100980 0.992665 0
M  V30 14 C 2.843230 2.383415 -0.280660 0
M  V30 15 C 1.902060 2.254365 -1.289150 0
M  V30 16 C 0.593696 1.857170 -0.982311 0
M  V30 17 C -0.374557 1.822113 -2.095486 0
M  V30 18 F -1.305406 2.850599 -1.825833 0
M  V30 19 F 0.153914 2.072057 -3.319771 0
M  V30 20 F -1.163141 0.681017 -2.081858 0
M  V30 21 C -1.992675 2.105761 1.444598 0
M  V30 22 O -1.738813 3.329900 1.725634 0
M  V30 23 N -3.222299 1.479448 1.776246 0
M  V30 24 C -3.043746 0.140809 1.266588 0
M  V30 25 O -4.027366 -0.645921 1.436996 0
M  V30 26 C -0.415422 -3.003362 1.560570 0
M  V30 27 H 2.709837 -4.752895 4.676455 0
M  V30 28 H 2.204801 -3.108091 4.112302 0
M  V30 29 H 1.283259 -3.863187 5.428245 0
M  V30 30 H 2.418789 -4.839716 1.017512 0
M  V30 31 H 2.375715 -3.560712 -1.037790 0
M  V30 32 H 0.616460 -1.989690 -1.431917 0
M  V30 33 H -2.119968 -1.731600 -0.599917 0
M  V30 34 H 0.911212 1.511528 2.382870 0
M  V30 35 H 3.162485 2.204224 1.793676 0
M  V30 36 H 3.842581 2.685739 -0.491952 0
M  V30 37 H 2.166608 2.463090 -2.308953 0
M  V30 38 H -4.001636 1.950919 2.260561 0
M  V30 39 H -1.151899 -2.906780 2.318623 0
M  V30 END ATOM
M  V30 BEGIN BOND
M  V30 1 1 1 2
M  V30 2 1 2 3
M  V30 3 2 3 4
M  V30 4 1 4 5
M  V30 5 2 5 6
M  V30 6 1 6 7
M  V30 7 1 7 8
M  V30 8 1 8 9
M  V30 9 2 9 10
M  V30 10 1 10 11
M  V30 11 2 11 12
M  V30 12 1 12 13
M  V30 13 2 13 14
M  V30 14 1 14 15
M  V30 15 2 15 16
M  V30 16 1 16 17
M  V30 17 1 17 18
M  V30 18 1 17 19
M  V30 19 1 17 20
M  V30 20 1 10 21
M  V30 21 2 21 22
M  V30 22 1 21 23
M  V30 23 1 23 24
M  V30 24 2 24 25
M  V30 25 2 7 26
M  V30 26 1 26 3
M  V30 27 1 24 9
M  V30 28 1 16 11
M  V30 29 1 1 27
M  V30 30 1 1 28
M  V30 31 1 1 29
M  V30 32 1 4 30
M  V30 33 1 5 31
M  V30 34 1 6 32
M  V30 35 1 8 33
M  V30 36 1 12 34
M  V30 37 1 13 35
M  V30 38 1 14 36
M  V30 39 1 15 37
M  V30 40 1 23 38
M  V30 41 1 26 39
M  V30 END BOND
M  V30 END CTAB
M  END
>  <Dataset>  (932) 
ChEMBL_Kinases

>  <Ligand_Instance>  (932) 
nan

>  <PDB_ID>  (932) 
nan

>  <Standardized_SMILES>  (932) 
CSc1cccc(NC2=C(c3ccccc3C(F)(F)F)C(=O)NC2=O)c1

>  <Name>  (932) 
nan

>  <Pocket>  (932) 
nan

>  <ATP_Site>  (932) 
nan

>  <Peripheral>  (932) 
nan

>  <Num_H_Atoms_ProtBoundConf>  (932) 
nan

>  <Num_Resolved_Atoms>  (932) 
nan

>  <Num_Not_Resolved_Atoms>  (932) 
nan

$$$$
CHEMBL4865426
     RDKit          3D

  0  0  0  0  0  0  0  0  0  0999 V3000
M  V30 BEGIN CTAB
M  V30 COUNTS 58 63 0 0 0
M  V30 BEGIN ATOM
M  V30 1 N 7.496719 -2.852509 -0.282857 0
M  V30 2 C 6.112195 -2.427016 -0.390095 0 CFG=1
M  V30 3 C 5.518877 -2.447233 1.000676 0
M  V30 4 C 5.834111 -1.117185 1.647389 0
M  V30 5 C 4.989107 -0.056210 0.993553 0
M  V30 6 N 4.821070 -0.386421 -0.411598 0
M  V30 7 C 3.718721 -0.222773 -1.329101 0
M  V30 8 O 3.764748 -0.579383 -2.543409 0
M  V30 9 C 2.495756 0.387411 -0.812343 0
M  V30 10 C 2.331303 1.653758 -0.283960 0
M  V30 11 C 1.078048 2.041168 0.155425 0
M  V30 12 C -0.004878 1.191237 0.076190 0
M  V30 13 C -1.285452 1.694913 0.566415 0
M  V30 14 C -2.471232 1.000003 0.571055 0
M  V30 15 N -3.618704 1.532100 1.041230 0
M  V30 16 C -4.882826 1.025017 1.135327 0
M  V30 17 C -5.363233 -0.299451 0.732459 0
M  V30 18 C -6.502415 -0.578014 0.000986 0
M  V30 19 C -6.815351 -1.895609 -0.284638 0
M  V30 20 C -6.041008 -2.944782 0.128005 0
M  V30 21 C -6.380119 -4.259640 -0.174563 0
M  V30 22 N -5.623516 -5.295684 0.227467 0
M  V30 23 C -4.512344 -5.076914 0.937585 0
M  V30 24 C -4.162472 -3.783244 1.245282 0
M  V30 25 C -4.906598 -2.672907 0.856101 0
M  V30 26 C -4.568850 -1.371633 1.156268 0
M  V30 27 C -5.685701 2.014513 1.701171 0
M  V30 28 N -4.895196 3.085861 1.933836 0
M  V30 29 C -3.627349 2.787679 1.528316 0
M  V30 30 C -2.460319 3.521024 1.542765 0
M  V30 31 N -1.343861 2.944595 1.062692 0
M  V30 32 C 0.157648 -0.073674 -0.451414 0
M  V30 33 C 1.418131 -0.476179 -0.898303 0
M  V30 34 C 6.051788 -1.000007 -0.907962 0
M  V30 35 H 7.996322 -2.222983 0.360336 0
M  V30 36 H 7.579465 -3.847620 -0.024097 0
M  V30 37 H 5.541802 -3.102567 -1.061859 0
M  V30 38 H 4.402925 -2.592265 0.970023 0
M  V30 39 H 5.970031 -3.270481 1.623624 0
M  V30 40 H 6.895118 -0.884979 1.426847 0
M  V30 41 H 5.646006 -1.133235 2.738452 0
M  V30 42 H 5.557004 0.886861 1.029168 0
M  V30 43 H 4.037441 0.124209 1.510310 0
M  V30 44 H 3.227576 2.245634 -0.261655 0
M  V30 45 H 0.999931 3.046600 0.563737 0
M  V30 46 H -2.451402 -0.004649 0.174138 0
M  V30 47 H -7.079735 0.288191 -0.301398 0
M  V30 48 H -7.731262 -2.054411 -0.868179 0
M  V30 49 H -7.267587 -4.472653 -0.745140 0
M  V30 50 H -3.861497 -5.873549 1.290486 0
M  V30 51 H -3.266005 -3.610446 1.817633 0
M  V30 52 H -3.645238 -1.332520 1.741382 0
M  V30 53 H -6.737938 1.997856 1.935454 0
M  V30 54 H -2.423436 4.533727 1.925134 0
M  V30 55 H -0.689900 -0.743283 -0.516145 0
M  V30 56 H 1.446274 -1.499331 -1.301719 0
M  V30 57 H 6.957115 -0.477513 -0.579033 0
M  V30 58 H 6.004801 -1.101258 -2.030184 0
M  V30 END ATOM
M  V30 BEGIN BOND
M  V30 1 1 1 2
M  V30 2 1 2 3
M  V30 3 1 3 4
M  V30 4 1 4 5
M  V30 5 1 5 6
M  V30 6 1 6 7
M  V30 7 2 7 8
M  V30 8 1 7 9
M  V30 9 2 9 10
M  V30 10 1 10 11
M  V30 11 2 11 12
M  V30 12 1 12 13
M  V30 13 2 13 14
M  V30 14 1 14 15
M  V30 15 1 15 16
M  V30 16 1 16 17
M  V30 17 2 17 18
M  V30 18 1 18 19
M  V30 19 2 19 20
M  V30 20 1 20 21
M  V30 21 2 21 22
M  V30 22 1 22 23
M  V30 23 2 23 24
M  V30 24 1 24 25
M  V30 25 2 25 26
M  V30 26 2 16 27
M  V30 27 1 27 28
M  V30 28 2 28 29
M  V30 29 1 29 30
M  V30 30 2 30 31
M  V30 31 1 12 32
M  V30 32 2 32 33
M  V30 33 1 6 34
M  V30 34 1 34 2
M  V30 35 1 33 9
M  V30 36 1 31 13
M  V30 37 1 29 15
M  V30 38 1 26 17
M  V30 39 1 25 20
M  V30 40 1 1 35
M  V30 41 1 1 36
M  V30 42 1 2 37 CFG=3
M  V30 43 1 3 38
M  V30 44 1 3 39
M  V30 45 1 4 40
M  V30 46 1 4 41
M  V30 47 1 5 42
M  V30 48 1 5 43
M  V30 49 1 10 44
M  V30 50 1 11 45
M  V30 51 1 14 46
M  V30 52 1 18 47
M  V30 53 1 19 48
M  V30 54 1 21 49
M  V30 55 1 23 50
M  V30 56 1 24 51
M  V30 57 1 26 52
M  V30 58 1 27 53
M  V30 59 1 30 54
M  V30 60 1 32 55
M  V30 61 1 33 56
M  V30 62 1 34 57
M  V30 63 1 34 58
M  V30 END BOND
M  V30 END CTAB
M  END
>  <Dataset>  (933) 
ChEMBL_Kinases

>  <Ligand_Instance>  (933) 
nan

>  <PDB_ID>  (933) 
nan

>  <Standardized_SMILES>  (933) 
N[C@H]1CCCN(C(=O)c2ccc(-c3cn4c(-c5ccc6cnccc6c5)cnc4cn3)cc2)C1

>  <Name>  (933) 
nan

>  <Pocket>  (933) 
nan

>  <ATP_Site>  (933) 
nan

>  <Peripheral>  (933) 
nan

>  <Num_H_Atoms_ProtBoundConf>  (933) 
nan

>  <Num_Resolved_Atoms>  (933) 
nan

>  <Num_Not_Resolved_Atoms>  (933) 
nan

$$$$
CHEMBL148580
     RDKit          3D

  0  0  0  0  0  0  0  0  0  0999 V3000
M  V30 BEGIN CTAB
M  V30 COUNTS 59 63 0 0 0
M  V30 BEGIN ATOM
M  V30 1 C 7.354125 -2.508023 4.734379 0
M  V30 2 O 6.010732 -2.056013 4.762892 0
M  V30 3 C 5.407427 -1.476052 3.659102 0
M  V30 4 C 4.108532 -1.060327 3.750177 0
M  V30 5 C 3.528753 -0.488764 2.647604 0
M  V30 6 C 4.102257 -0.274341 1.429185 0
M  V30 7 C 3.598847 0.308121 0.207676 0
M  V30 8 N 4.314986 0.455923 -0.921507 0
M  V30 9 N 3.599421 1.009495 -1.858079 0
M  V30 10 C 2.353430 1.276610 -1.437392 0
M  V30 11 C 2.377076 0.827469 -0.137988 0
M  V30 12 C 1.045706 1.089709 0.375930 0
M  V30 13 O 0.563161 0.867669 1.494749 0
M  V30 14 C 0.258395 1.707126 -0.680799 0
M  V30 15 C -1.041534 2.161904 -0.765609 0
M  V30 16 N -1.931595 2.066772 0.369458 0
M  V30 17 C -2.585615 0.807335 0.283313 0
M  V30 18 O -2.184620 0.172457 -0.750684 0
M  V30 19 C -3.595031 0.366229 1.311197 0
M  V30 20 N -4.109566 -0.930173 1.012037 0
M  V30 21 C -4.917533 -0.954019 -0.164626 0
M  V30 22 C -5.621882 -2.283601 -0.324580 0
M  V30 23 N -4.576669 -3.312022 -0.297058 0
M  V30 24 C -4.105851 -4.260185 -1.275962 0
M  V30 25 N -4.857523 -5.258039 -1.605643 0
M  V30 26 N -2.819448 -4.040817 -1.834510 0
M  V30 27 C -3.930932 -3.315084 1.010344 0
M  V30 28 C -3.181429 -2.002955 1.158997 0
M  V30 29 C -1.559698 2.722174 -1.916077 0
M  V30 30 C -0.752359 2.833649 -3.023755 0
M  V30 31 C 0.554959 2.387038 -2.970032 0
M  V30 32 C 1.053722 1.826109 -1.799165 0
M  V30 33 C 5.423923 -0.726511 1.423353 0
M  V30 34 C 6.069930 -1.306337 2.482214 0
M  V30 35 H 7.544262 -3.148685 5.634344 0
M  V30 36 H 7.526045 -3.152831 3.844119 0
M  V30 37 H 8.059597 -1.672924 4.632969 0
M  V30 38 H 3.533328 -1.168470 4.657170 0
M  V30 39 H 2.516235 -0.174665 2.751599 0
M  V30 40 H 5.296663 0.215013 -1.163819 0
M  V30 41 H -2.156207 2.718710 1.178706 0
M  V30 42 H -4.427800 1.078016 1.399378 0
M  V30 43 H -3.088025 0.348156 2.293027 0
M  V30 44 H -5.643753 -0.113401 -0.071941 0
M  V30 45 H -4.277847 -0.842988 -1.065056 0
M  V30 46 H -6.143275 -2.288562 -1.314290 0
M  V30 47 H -6.327276 -2.512875 0.495662 0
M  V30 48 H -4.556299 -5.968262 -2.310187 0
M  V30 49 H -2.116032 -4.820994 -1.811677 0
M  V30 50 H -2.470358 -3.161028 -2.285340 0
M  V30 51 H -4.721280 -3.433311 1.770304 0
M  V30 52 H -3.203286 -4.150708 1.092921 0
M  V30 53 H -2.345664 -1.999917 0.461814 0
M  V30 54 H -2.807132 -1.951094 2.213944 0
M  V30 55 H -2.599086 3.073213 -1.946684 0
M  V30 56 H -1.212465 3.282721 -3.903305 0
M  V30 57 H 1.179271 2.480707 -3.848126 0
M  V30 58 H 6.060495 -0.642457 0.526701 0
M  V30 59 H 7.094664 -1.640822 2.428175 0
M  V30 END ATOM
M  V30 BEGIN BOND
M  V30 1 1 1 2
M  V30 2 1 2 3
M  V30 3 2 3 4
M  V30 4 1 4 5
M  V30 5 2 5 6
M  V30 6 1 6 7
M  V30 7 1 7 8
M  V30 8 1 8 9
M  V30 9 2 9 10
M  V30 10 1 10 11
M  V30 11 1 11 12
M  V30 12 2 12 13
M  V30 13 1 12 14
M  V30 14 2 14 15
M  V30 15 1 15 16
M  V30 16 1 16 17
M  V30 17 2 17 18
M  V30 18 1 17 19
M  V30 19 1 19 20
M  V30 20 1 20 21
M  V30 21 1 21 22
M  V30 22 1 22 23
M  V30 23 1 23 24
M  V30 24 2 24 25 CFG=2
M  V30 25 1 24 26
M  V30 26 1 23 27
M  V30 27 1 27 28
M  V30 28 1 15 29
M  V30 29 2 29 30
M  V30 30 1 30 31
M  V30 31 2 31 32
M  V30 32 1 6 33
M  V30 33 2 33 34
M  V30 34 1 34 3
M  V30 35 2 11 7
M  V30 36 1 32 14
M  V30 37 1 32 10
M  V30 38 1 28 20
M  V30 39 1 1 35
M  V30 40 1 1 36
M  V30 41 1 1 37
M  V30 42 1 4 38
M  V30 43 1 5 39
M  V30 44 1 8 40
M  V30 45 1 16 41
M  V30 46 1 19 42
M  V30 47 1 19 43
M  V30 48 1 21 44
M  V30 49 1 21 45
M  V30 50 1 22 46
M  V30 51 1 22 47
M  V30 52 1 25 48
M  V30 53 1 26 49
M  V30 54 1 26 50
M  V30 55 1 27 51
M  V30 56 1 27 52
M  V30 57 1 28 53
M  V30 58 1 28 54
M  V30 59 1 29 55
M  V30 60 1 30 56
M  V30 61 1 31 57
M  V30 62 1 33 58
M  V30 63 1 34 59
M  V30 END BOND
M  V30 END CTAB
M  END
>  <Dataset>  (934) 
ChEMBL_Kinases

>  <Ligand_Instance>  (934) 
nan

>  <PDB_ID>  (934) 
nan

>  <Standardized_SMILES>  (934) 
COc1ccc(-c2[nH]nc3c2C(=O)c2c(NC(=O)CN4CCN(C(=N)N)CC4)cccc2-3)cc1

>  <Name>  (934) 
nan

>  <Pocket>  (934) 
nan

>  <ATP_Site>  (934) 
nan

>  <Peripheral>  (934) 
nan

>  <Num_H_Atoms_ProtBoundConf>  (934) 
nan

>  <Num_Resolved_Atoms>  (934) 
nan

>  <Num_Not_Resolved_Atoms>  (934) 
nan

$$$$
CHEMBL4865401
     RDKit          3D

  0  0  0  0  0  0  0  0  0  0999 V3000
M  V30 BEGIN CTAB
M  V30 COUNTS 48 50 0 0 0
M  V30 BEGIN ATOM
M  V30 1 C 1.062089 -3.912123 1.769222 0
M  V30 2 O 0.789979 -3.071865 0.667602 0
M  V30 3 C 1.756382 -2.346279 -0.000125 0
M  V30 4 C 3.053571 -2.475981 0.457525 0
M  V30 5 C 4.070488 -1.794235 -0.145628 0
M  V30 6 C 3.787309 -0.979476 -1.210906 0
M  V30 7 C 2.488902 -0.884776 -1.625521 0
M  V30 8 C 1.412941 -1.543122 -1.065323 0
M  V30 9 C 0.043331 -1.427590 -1.558595 0
M  V30 10 C -0.772351 -0.426197 -1.932493 0
M  V30 11 N -0.009589 0.789771 -1.762550 0
M  V30 12 C -0.034481 1.310412 -0.414027 0
M  V30 13 C 0.695898 2.419409 -0.050616 0
M  V30 14 C 0.698690 2.949287 1.221397 0
M  V30 15 C -0.074651 2.332604 2.184270 0
M  V30 16 C -0.839836 1.205232 1.884658 0
M  V30 17 C -1.679875 0.506025 2.891625 0
M  V30 18 C -1.516966 1.086087 4.275587 0
M  V30 19 C -1.300840 -0.942298 2.915278 0
M  V30 20 C -3.125381 0.581691 2.432490 0
M  V30 21 C -0.791123 0.736160 0.597235 0
M  V30 22 C -2.053528 -0.978844 -2.344390 0
M  V30 23 O -2.838113 -0.049099 -2.699898 0
M  V30 24 N -1.983919 -2.390774 -2.204496 0
M  V30 25 C -0.674397 -2.712258 -1.710299 0
M  V30 26 O -0.439793 -3.922613 -1.528643 0
M  V30 27 H 1.497332 -4.872452 1.437694 0
M  V30 28 H 1.674554 -3.402910 2.540907 0
M  V30 29 H 0.092246 -4.123475 2.266527 0
M  V30 30 H 3.284663 -3.116240 1.297069 0
M  V30 31 H 5.097946 -1.891357 0.209657 0
M  V30 32 H 4.592593 -0.444802 -1.680287 0
M  V30 33 H 2.331049 -0.228818 -2.471421 0
M  V30 34 H 0.534973 1.325392 -2.452719 0
M  V30 35 H 1.287761 2.869839 -0.831965 0
M  V30 36 H 1.308636 3.824044 1.407015 0
M  V30 37 H -0.088451 2.731911 3.190237 0
M  V30 38 H -2.298973 0.610036 4.923600 0
M  V30 39 H -0.503999 0.780961 4.642124 0
M  V30 40 H -1.676628 2.173025 4.328449 0
M  V30 41 H -1.203805 -1.356915 3.944066 0
M  V30 42 H -2.031833 -1.606178 2.366398 0
M  V30 43 H -0.318870 -1.163749 2.416527 0
M  V30 44 H -3.743973 0.363862 3.326062 0
M  V30 45 H -3.292999 1.567185 1.985364 0
M  V30 46 H -3.278247 -0.246327 1.712634 0
M  V30 47 H -1.382365 -0.130145 0.371917 0
M  V30 48 H -2.862322 -2.889247 -2.478509 0
M  V30 END ATOM
M  V30 BEGIN BOND
M  V30 1 1 1 2
M  V30 2 1 2 3
M  V30 3 2 3 4
M  V30 4 1 4 5
M  V30 5 2 5 6
M  V30 6 1 6 7
M  V30 7 2 7 8
M  V30 8 1 8 9
M  V30 9 2 9 10
M  V30 10 1 10 11
M  V30 11 1 11 12
M  V30 12 2 12 13
M  V30 13 1 13 14
M  V30 14 2 14 15
M  V30 15 1 15 16
M  V30 16 1 16 17
M  V30 17 1 17 18
M  V30 18 1 17 19
M  V30 19 1 17 20
M  V30 20 2 16 21
M  V30 21 1 10 22
M  V30 22 2 22 23
M  V30 23 1 22 24
M  V30 24 1 24 25
M  V30 25 2 25 26
M  V30 26 1 8 3
M  V30 27 1 25 9
M  V30 28 1 21 12
M  V30 29 1 1 27
M  V30 30 1 1 28
M  V30 31 1 1 29
M  V30 32 1 4 30
M  V30 33 1 5 31
M  V30 34 1 6 32
M  V30 35 1 7 33
M  V30 36 1 11 34
M  V30 37 1 13 35
M  V30 38 1 14 36
M  V30 39 1 15 37
M  V30 40 1 18 38
M  V30 41 1 18 39
M  V30 42 1 18 40
M  V30 43 1 19 41
M  V30 44 1 19 42
M  V30 45 1 19 43
M  V30 46 1 20 44
M  V30 47 1 20 45
M  V30 48 1 20 46
M  V30 49 1 21 47
M  V30 50 1 24 48
M  V30 END BOND
M  V30 END CTAB
M  END
>  <Dataset>  (935) 
ChEMBL_Kinases

>  <Ligand_Instance>  (935) 
nan

>  <PDB_ID>  (935) 
nan

>  <Standardized_SMILES>  (935) 
COc1ccccc1C1=C(Nc2cccc(C(C)(C)C)c2)C(=O)NC1=O

>  <Name>  (935) 
nan

>  <Pocket>  (935) 
nan

>  <ATP_Site>  (935) 
nan

>  <Peripheral>  (935) 
nan

>  <Num_H_Atoms_ProtBoundConf>  (935) 
nan

>  <Num_Resolved_Atoms>  (935) 
nan

>  <Num_Not_Resolved_Atoms>  (935) 
nan

$$$$
CHEMBL4865340
     RDKit          3D

  0  0  0  0  0  0  0  0  0  0999 V3000
M  V30 BEGIN CTAB
M  V30 COUNTS 56 61 0 0 0
M  V30 BEGIN ATOM
M  V30 1 O 0.668528 -6.494888 1.427494 0
M  V30 2 C 0.433860 -5.449319 0.781771 0
M  V30 3 C 1.186549 -4.208564 0.636853 0
M  V30 4 C 2.324996 -3.929094 -0.085333 0
M  V30 5 C 2.884638 -2.686081 -0.088219 0
M  V30 6 C 2.338160 -1.652251 0.630321 0
M  V30 7 C 2.906279 -0.299148 0.656141 0
M  V30 8 C 4.265018 -0.010481 0.549422 0
M  V30 9 C 4.656937 1.304729 0.587358 0
M  V30 10 C 3.764272 2.350714 0.726462 0
M  V30 11 N 3.938285 3.694242 0.785479 0
M  V30 12 C 2.699537 4.220830 0.926884 0
M  V30 13 C 1.726176 3.219197 0.959592 0
M  V30 14 C 0.282780 3.406546 1.096717 0
M  V30 15 C -0.369835 2.594765 2.009084 0
M  V30 16 C -1.735008 2.708688 2.191108 0
M  V30 17 C -2.499592 3.620032 1.486707 0
M  V30 18 C -3.858159 3.743612 1.658874 0
M  V30 19 N -4.607380 4.642822 0.963383 0
M  V30 20 C -3.968885 5.442515 0.066127 0
M  V30 21 C -2.586122 5.346412 -0.136670 0
M  V30 22 C -1.840909 4.436861 0.569651 0
M  V30 23 C -0.473877 4.319746 0.389082 0
M  V30 24 N 2.448768 2.091407 0.831168 0
M  V30 25 C 2.075013 0.801880 0.792468 0
M  V30 26 C 1.182890 -1.904407 1.373340 0
M  V30 27 C 0.600411 -3.177925 1.382819 0
M  V30 28 N -0.796443 -5.560975 0.094541 0
M  V30 29 C -1.668658 -6.714522 0.129174 0
M  V30 30 C -2.164083 -6.965835 -1.272685 0
M  V30 31 N -3.168452 -5.971283 -1.576510 0
M  V30 32 C -2.838726 -4.720898 -0.963691 0
M  V30 33 C -1.357857 -4.542540 -0.741744 0
M  V30 34 H 2.684612 -4.790558 -0.616799 0
M  V30 35 H 3.778012 -2.522911 -0.672092 0
M  V30 36 H 4.927919 -0.862445 0.442705 0
M  V30 37 H 5.722836 1.482601 0.500496 0
M  V30 38 H 2.459427 5.272697 1.005851 0
M  V30 39 H 0.057976 1.836986 2.642643 0
M  V30 40 H -2.314513 2.098370 2.895764 0
M  V30 41 H -4.382157 3.113774 2.372274 0
M  V30 42 H -4.492531 6.187769 -0.529859 0
M  V30 43 H -2.116909 6.003047 -0.862693 0
M  V30 44 H 0.043937 4.946106 -0.318272 0
M  V30 45 H 1.030594 0.587183 0.869987 0
M  V30 46 H 0.732691 -1.103088 1.948970 0
M  V30 47 H -0.299097 -3.265350 1.994855 0
M  V30 48 H -2.579413 -6.503634 0.756025 0
M  V30 49 H -1.143163 -7.615287 0.547673 0
M  V30 50 H -2.582969 -7.985251 -1.395463 0
M  V30 51 H -1.348039 -6.833002 -2.028416 0
M  V30 52 H -3.319362 -5.830305 -2.600964 0
M  V30 53 H -3.418351 -4.638694 -0.035164 0
M  V30 54 H -3.198787 -3.899866 -1.622340 0
M  V30 55 H -1.207333 -3.553977 -0.266241 0
M  V30 56 H -0.860987 -4.586819 -1.743262 0
M  V30 END ATOM
M  V30 BEGIN BOND
M  V30 1 2 1 2
M  V30 2 1 2 3
M  V30 3 2 3 4
M  V30 4 1 4 5
M  V30 5 2 5 6
M  V30 6 1 6 7
M  V30 7 1 7 8
M  V30 8 2 8 9
M  V30 9 1 9 10
M  V30 10 2 10 11
M  V30 11 1 11 12
M  V30 12 2 12 13
M  V30 13 1 13 14
M  V30 14 2 14 15
M  V30 15 1 15 16
M  V30 16 2 16 17
M  V30 17 1 17 18
M  V30 18 2 18 19
M  V30 19 1 19 20
M  V30 20 2 20 21
M  V30 21 1 21 22
M  V30 22 2 22 23
M  V30 23 1 13 24
M  V30 24 1 24 25
M  V30 25 1 6 26
M  V30 26 2 26 27
M  V30 27 1 2 28
M  V30 28 1 28 29
M  V30 29 1 29 30
M  V30 30 1 30 31
M  V30 31 1 31 32
M  V30 32 1 32 33
M  V30 33 1 27 3
M  V30 34 1 33 28
M  V30 35 2 25 7
M  V30 36 1 24 10
M  V30 37 1 23 14
M  V30 38 1 22 17
M  V30 39 1 4 34
M  V30 40 1 5 35
M  V30 41 1 8 36
M  V30 42 1 9 37
M  V30 43 1 12 38
M  V30 44 1 15 39
M  V30 45 1 16 40
M  V30 46 1 18 41
M  V30 47 1 20 42
M  V30 48 1 21 43
M  V30 49 1 23 44
M  V30 50 1 25 45
M  V30 51 1 26 46
M  V30 52 1 27 47
M  V30 53 1 29 48
M  V30 54 1 29 49
M  V30 55 1 30 50
M  V30 56 1 30 51
M  V30 57 1 31 52
M  V30 58 1 32 53
M  V30 59 1 32 54
M  V30 60 1 33 55
M  V30 61 1 33 56
M  V30 END BOND
M  V30 END CTAB
M  END
>  <Dataset>  (936) 
ChEMBL_Kinases

>  <Ligand_Instance>  (936) 
nan

>  <PDB_ID>  (936) 
nan

>  <Standardized_SMILES>  (936) 
O=C(c1ccc(-c2ccc3ncc(-c4ccc5cnccc5c4)n3c2)cc1)N1CCNCC1

>  <Name>  (936) 
nan

>  <Pocket>  (936) 
nan

>  <ATP_Site>  (936) 
nan

>  <Peripheral>  (936) 
nan

>  <Num_H_Atoms_ProtBoundConf>  (936) 
nan

>  <Num_Resolved_Atoms>  (936) 
nan

>  <Num_Not_Resolved_Atoms>  (936) 
nan

$$$$
CHEMBL4860332
     RDKit          3D

  0  0  0  0  0  0  0  0  0  0999 V3000
M  V30 BEGIN CTAB
M  V30 COUNTS 53 56 0 0 0
M  V30 BEGIN ATOM
M  V30 1 C 0.092800 -3.297732 -4.848046 0
M  V30 2 C 0.983889 -2.202549 -4.312653 0
M  V30 3 C 1.524065 -2.645447 -3.003336 0
M  V30 4 C 1.068314 -2.487278 -1.715909 0
M  V30 5 C 1.940774 -3.085028 -0.799669 0
M  V30 6 N 1.762983 -3.090257 0.644647 0
M  V30 7 C 0.636578 -2.368150 1.127744 0
M  V30 8 N 0.487981 -1.140576 0.558343 0
M  V30 9 C -0.482948 -0.268445 0.858992 0
M  V30 10 N -0.455199 0.948696 0.132348 0
M  V30 11 C 0.280502 2.186951 0.253531 0
M  V30 12 C 0.041781 2.901561 1.515898 0
M  V30 13 C 1.030448 2.774031 2.492015 0
M  V30 14 C 0.880725 3.418654 3.717382 0
M  V30 15 C -0.215696 4.191383 4.018997 0
M  V30 16 Cl -0.283197 4.945343 5.593762 0
M  V30 17 C -1.175423 4.295739 3.030605 0
M  V30 18 C -1.071199 3.677100 1.805749 0
M  V30 19 O -1.999772 3.817216 0.932300 0
M  V30 20 C -3.091437 4.148600 0.266936 0
M  V30 21 N -1.367453 -0.649998 1.794823 0
M  V30 22 C -1.306296 -1.841524 2.413837 0
M  V30 23 C -2.233467 -2.196384 3.365987 0
M  V30 24 C -2.137282 -3.429479 3.977972 0
M  V30 25 C -1.102998 -4.256299 3.599110 0
M  V30 26 C -0.120994 -3.960198 2.633906 0
M  V30 27 C 0.943823 -4.936980 2.306249 0
M  V30 28 C -0.294211 -2.711791 2.077763 0
M  V30 29 N 2.907843 -3.588124 -1.624477 0
M  V30 30 N 2.665214 -3.334802 -2.873551 0
M  V30 31 H -0.164734 -3.974957 -4.016544 0
M  V30 32 H 0.704640 -3.862974 -5.584125 0
M  V30 33 H -0.817959 -2.893960 -5.348510 0
M  V30 34 H 0.372012 -1.273116 -4.132170 0
M  V30 35 H 1.776040 -1.917947 -5.038263 0
M  V30 36 H 0.140309 -1.951970 -1.584724 0
M  V30 37 H 2.575755 -3.641472 0.992767 0
M  V30 38 H -1.169280 0.701100 -0.585543 0
M  V30 39 H 1.372608 2.046797 0.066788 0
M  V30 40 H -0.070645 2.881582 -0.562563 0
M  V30 41 H 1.907291 2.175281 2.296470 0
M  V30 42 H 1.667995 3.287503 4.438829 0
M  V30 43 H -2.034758 4.904668 3.265845 0
M  V30 44 H -3.994628 4.390030 0.922014 0
M  V30 45 H -3.007318 5.101665 -0.353137 0
M  V30 46 H -3.513374 3.347907 -0.418932 0
M  V30 47 H -3.038904 -1.556004 3.661748 0
M  V30 48 H -2.828288 -3.781300 4.738734 0
M  V30 49 H -1.031038 -5.229883 4.087585 0
M  V30 50 H 0.592337 -5.910428 2.796223 0
M  V30 51 H 1.897581 -4.764718 2.834085 0
M  V30 52 H 0.999086 -5.236844 1.250592 0
M  V30 53 H 3.341188 -3.669172 -3.600819 0
M  V30 END ATOM
M  V30 BEGIN BOND
M  V30 1 1 1 2
M  V30 2 1 2 3
M  V30 3 2 3 4
M  V30 4 1 4 5
M  V30 5 1 5 6
M  V30 6 1 6 7
M  V30 7 2 7 8
M  V30 8 1 8 9
M  V30 9 1 9 10
M  V30 10 1 10 11
M  V30 11 1 11 12
M  V30 12 2 12 13
M  V30 13 1 13 14
M  V30 14 2 14 15
M  V30 15 1 15 16
M  V30 16 1 15 17
M  V30 17 2 17 18
M  V30 18 1 18 19
M  V30 19 1 19 20
M  V30 20 2 9 21
M  V30 21 1 21 22
M  V30 22 2 22 23
M  V30 23 1 23 24
M  V30 24 2 24 25
M  V30 25 1 25 26
M  V30 26 1 26 27
M  V30 27 2 26 28
M  V30 28 2 5 29
M  V30 29 1 29 30
M  V30 30 1 30 3
M  V30 31 1 28 7
M  V30 32 1 18 12
M  V30 33 1 28 22
M  V30 34 1 1 31
M  V30 35 1 1 32
M  V30 36 1 1 33
M  V30 37 1 2 34
M  V30 38 1 2 35
M  V30 39 1 4 36
M  V30 40 1 6 37
M  V30 41 1 10 38
M  V30 42 1 11 39
M  V30 43 1 11 40
M  V30 44 1 13 41
M  V30 45 1 14 42
M  V30 46 1 17 43
M  V30 47 1 20 44
M  V30 48 1 20 45
M  V30 49 1 20 46
M  V30 50 1 23 47
M  V30 51 1 24 48
M  V30 52 1 25 49
M  V30 53 1 27 50
M  V30 54 1 27 51
M  V30 55 1 27 52
M  V30 56 1 30 53
M  V30 END BOND
M  V30 END CTAB
M  END
>  <Dataset>  (937) 
ChEMBL_Kinases

>  <Ligand_Instance>  (937) 
nan

>  <PDB_ID>  (937) 
nan

>  <Standardized_SMILES>  (937) 
CCc1cc(Nc2nc(NCc3ccc(Cl)cc3OC)nc3cccc(C)c23)n[nH]1

>  <Name>  (937) 
nan

>  <Pocket>  (937) 
nan

>  <ATP_Site>  (937) 
nan

>  <Peripheral>  (937) 
nan

>  <Num_H_Atoms_ProtBoundConf>  (937) 
nan

>  <Num_Resolved_Atoms>  (937) 
nan

>  <Num_Not_Resolved_Atoms>  (937) 
nan

$$$$
CHEMBL4865159
     RDKit          3D

  0  0  0  0  0  0  0  0  0  0999 V3000
M  V30 BEGIN CTAB
M  V30 COUNTS 46 49 0 0 0
M  V30 BEGIN ATOM
M  V30 1 C 0.596251 -1.177766 6.252882 0
M  V30 2 S 2.219850 -0.423520 6.229577 0
M  V30 3 O 2.316687 0.626564 7.301341 0
M  V30 4 O 3.196219 -1.514123 6.495395 0
M  V30 5 C 2.447457 0.251216 4.631185 0
M  V30 6 C 3.016377 -0.572726 3.686195 0
M  V30 7 C 3.204607 -0.060027 2.419344 0
M  V30 8 C 2.851560 1.239752 2.047711 0
M  V30 9 N 3.119479 1.590338 0.705221 0
M  V30 10 S 1.956298 2.431673 -0.263928 0
M  V30 11 O 2.560843 2.637643 -1.639591 0
M  V30 12 O 1.713572 3.761808 0.361905 0
M  V30 13 C 0.497711 1.525729 -0.469574 0
M  V30 14 C -0.452575 1.766434 0.501294 0
M  V30 15 C -1.690841 1.134300 0.508803 0
M  V30 16 C -1.959600 0.223724 -0.517895 0
M  V30 17 C -1.033250 -0.024757 -1.482710 0
M  V30 18 C -1.295866 -0.971137 -2.561221 0
M  V30 19 N -1.045431 -0.806288 -3.872658 0
M  V30 20 N -1.422501 -1.893273 -4.558914 0
M  V30 21 C -1.937096 -2.807951 -3.691224 0
M  V30 22 C -2.465907 -4.075885 -3.840046 0
M  V30 23 C -2.932183 -4.818127 -2.779274 0
M  V30 24 F -3.455877 -6.067554 -2.906861 0
M  V30 25 C -2.857658 -4.244862 -1.506590 0
M  V30 26 C -2.324870 -2.975701 -1.383007 0
M  V30 27 C -1.859327 -2.231819 -2.433211 0
M  V30 28 C 0.190486 0.625838 -1.455720 0
M  V30 29 C 2.286574 2.022073 3.029817 0
M  V30 30 C 2.083547 1.542021 4.307617 0
M  V30 31 H 0.390018 -1.693463 7.203065 0
M  V30 32 H 0.583666 -1.857446 5.374193 0
M  V30 33 H -0.187517 -0.419838 6.052400 0
M  V30 34 H 3.310122 -1.592442 3.920378 0
M  V30 35 H 3.659685 -0.741374 1.690527 0
M  V30 36 H 4.062686 1.315501 0.319379 0
M  V30 37 H -0.334346 2.454426 1.335123 0
M  V30 38 H -2.450065 1.307414 1.258944 0
M  V30 39 H -2.933942 -0.262290 -0.496865 0
M  V30 40 H -1.338103 -2.029092 -5.607961 0
M  V30 41 H -2.531773 -4.533331 -4.808732 0
M  V30 42 H -3.220555 -4.815644 -0.659157 0
M  V30 43 H -2.283982 -2.570376 -0.396663 0
M  V30 44 H 0.977638 0.478231 -2.191074 0
M  V30 45 H 2.022769 3.020593 2.718963 0
M  V30 46 H 1.637459 2.179065 5.059516 0
M  V30 END ATOM
M  V30 BEGIN BOND
M  V30 1 1 1 2
M  V30 2 2 2 3
M  V30 3 2 2 4
M  V30 4 1 2 5
M  V30 5 2 5 6
M  V30 6 1 6 7
M  V30 7 2 7 8
M  V30 8 1 8 9
M  V30 9 1 9 10
M  V30 10 2 10 11
M  V30 11 2 10 12
M  V30 12 1 10 13
M  V30 13 2 13 14
M  V30 14 1 14 15
M  V30 15 2 15 16
M  V30 16 1 16 17
M  V30 17 1 17 18
M  V30 18 2 18 19
M  V30 19 1 19 20
M  V30 20 1 20 21
M  V30 21 2 21 22
M  V30 22 1 22 23
M  V30 23 1 23 24
M  V30 24 2 23 25
M  V30 25 1 25 26
M  V30 26 2 26 27
M  V30 27 2 17 28
M  V30 28 1 8 29
M  V30 29 2 29 30
M  V30 30 1 30 5
M  V30 31 1 28 13
M  V30 32 1 27 18
M  V30 33 1 27 21
M  V30 34 1 1 31
M  V30 35 1 1 32
M  V30 36 1 1 33
M  V30 37 1 6 34
M  V30 38 1 7 35
M  V30 39 1 9 36
M  V30 40 1 14 37
M  V30 41 1 15 38
M  V30 42 1 16 39
M  V30 43 1 20 40
M  V30 44 1 22 41
M  V30 45 1 25 42
M  V30 46 1 26 43
M  V30 47 1 28 44
M  V30 48 1 29 45
M  V30 49 1 30 46
M  V30 END BOND
M  V30 END CTAB
M  END
>  <Dataset>  (938) 
ChEMBL_Kinases

>  <Ligand_Instance>  (938) 
nan

>  <PDB_ID>  (938) 
nan

>  <Standardized_SMILES>  (938) 
CS(=O)(=O)c1ccc(NS(=O)(=O)c2cccc(-c3n[nH]c4cc(F)ccc34)c2)cc1

>  <Name>  (938) 
nan

>  <Pocket>  (938) 
nan

>  <ATP_Site>  (938) 
nan

>  <Peripheral>  (938) 
nan

>  <Num_H_Atoms_ProtBoundConf>  (938) 
nan

>  <Num_Resolved_Atoms>  (938) 
nan

>  <Num_Not_Resolved_Atoms>  (938) 
nan

$$$$
CHEMBL4860891
     RDKit          3D

  0  0  0  0  0  0  0  0  0  0999 V3000
M  V30 BEGIN CTAB
M  V30 COUNTS 67 71 0 0 0
M  V30 BEGIN ATOM
M  V30 1 C 3.034324 -1.194927 3.690907 0
M  V30 2 N 4.368536 -0.816264 3.332833 0
M  V30 3 C 4.959550 -1.762863 2.441547 0
M  V30 4 C 4.607136 -1.547343 0.999771 0
M  V30 5 C 4.719344 -0.109110 0.569226 0
M  V30 6 N 3.430435 0.420669 0.204616 0
M  V30 7 C 2.963332 1.013455 -0.994279 0
M  V30 8 O 3.801500 1.109219 -1.924913 0
M  V30 9 C 1.592379 1.475795 -1.116957 0
M  V30 10 C 1.166283 2.088238 -2.272867 0
M  V30 11 C -0.160698 2.503231 -2.337225 0
M  V30 12 C -1.086406 2.351643 -1.338123 0
M  V30 13 N -2.444985 2.786339 -1.481906 0
M  V30 14 C -3.241499 2.539344 -0.325393 0
M  V30 15 N -3.746340 3.349870 0.645580 0
M  V30 16 C -4.450436 2.797889 1.649393 0
M  V30 17 C -4.681910 1.445918 1.734819 0
M  V30 18 C -5.351721 0.658976 2.645018 0
M  V30 19 C -5.246581 -0.644979 2.212885 0
M  V30 20 N -4.530589 -0.645185 1.069255 0
M  V30 21 C -4.107707 -1.702099 0.191798 0
M  V30 22 C -5.067416 -2.099524 -0.722356 0
M  V30 23 C -4.660026 -3.126924 -1.579744 0
M  V30 24 C -3.397301 -3.675242 -1.491339 0
M  V30 25 C -2.467969 -3.236091 -0.549126 0
M  V30 26 C -1.119180 -3.854367 -0.497737 0
M  V30 27 C -0.973358 -4.917545 -1.562979 0
M  V30 28 C -0.738869 -4.373620 0.850910 0
M  V30 29 O -0.157812 -2.865648 -0.819984 0
M  V30 30 N -2.879515 -2.263866 0.248005 0
M  V30 31 C -4.163742 0.625007 0.740113 0
M  V30 32 N -3.461522 1.215884 -0.252609 0
M  V30 33 C -0.590166 1.723906 -0.192982 0
M  V30 34 C 0.702235 1.300448 -0.085090 0
M  V30 35 C 5.329231 0.690027 1.720220 0
M  V30 36 C 4.481009 0.556051 2.952381 0
M  V30 37 H 3.047527 -2.047448 4.427688 0
M  V30 38 H 2.395888 -1.466042 2.808892 0
M  V30 39 H 2.578646 -0.329786 4.243993 0
M  V30 40 H 4.557010 -2.773384 2.713975 0
M  V30 41 H 6.077368 -1.836498 2.571792 0
M  V30 42 H 5.284890 -2.171618 0.401615 0
M  V30 43 H 3.570536 -1.924232 0.858711 0
M  V30 44 H 5.407280 -0.020545 -0.312991 0
M  V30 45 H 2.860077 0.276373 1.048869 0
M  V30 46 H 1.847226 2.233535 -3.092791 0
M  V30 47 H -0.441912 2.978614 -3.265269 0
M  V30 48 H -2.706699 3.222413 -2.369619 0
M  V30 49 H -4.822240 3.502992 2.385628 0
M  V30 50 H -5.865005 0.997927 3.535753 0
M  V30 51 H -5.626211 -1.554714 2.639217 0
M  V30 52 H -6.048906 -1.648941 -0.764478 0
M  V30 53 H -5.389538 -3.470133 -2.317263 0
M  V30 54 H -3.181467 -4.462651 -2.198840 0
M  V30 55 H -1.753580 -5.687906 -1.426570 0
M  V30 56 H -0.952484 -4.475871 -2.562353 0
M  V30 57 H 0.038699 -5.365306 -1.399616 0
M  V30 58 H -1.063227 -3.658418 1.632997 0
M  V30 59 H 0.384294 -4.450000 0.863176 0
M  V30 60 H -1.168273 -5.393761 0.999258 0
M  V30 61 H 0.638302 -3.342681 -1.138332 0
M  V30 62 H -1.298775 1.588714 0.624313 0
M  V30 63 H 0.944036 0.830318 0.856620 0
M  V30 64 H 6.316605 0.235530 1.965289 0
M  V30 65 H 5.427713 1.766794 1.424200 0
M  V30 66 H 5.044712 1.078217 3.779152 0
M  V30 67 H 3.478727 1.051982 2.818090 0
M  V30 END ATOM
M  V30 BEGIN BOND
M  V30 1 1 1 2
M  V30 2 1 2 3
M  V30 3 1 3 4
M  V30 4 1 4 5
M  V30 5 1 5 6
M  V30 6 1 6 7
M  V30 7 2 7 8
M  V30 8 1 7 9
M  V30 9 2 9 10
M  V30 10 1 10 11
M  V30 11 2 11 12
M  V30 12 1 12 13
M  V30 13 1 13 14
M  V30 14 2 14 15
M  V30 15 1 15 16
M  V30 16 2 16 17
M  V30 17 1 17 18
M  V30 18 2 18 19
M  V30 19 1 19 20
M  V30 20 1 20 21
M  V30 21 2 21 22
M  V30 22 1 22 23
M  V30 23 2 23 24
M  V30 24 1 24 25
M  V30 25 1 25 26
M  V30 26 1 26 27
M  V30 27 1 26 28
M  V30 28 1 26 29
M  V30 29 2 25 30
M  V30 30 1 20 31
M  V30 31 2 31 32
M  V30 32 1 12 33
M  V30 33 2 33 34
M  V30 34 1 5 35
M  V30 35 1 35 36
M  V30 36 1 36 2
M  V30 37 1 34 9
M  V30 38 1 32 14
M  V30 39 1 31 17
M  V30 40 1 30 21
M  V30 41 1 1 37
M  V30 42 1 1 38
M  V30 43 1 1 39
M  V30 44 1 3 40
M  V30 45 1 3 41
M  V30 46 1 4 42
M  V30 47 1 4 43
M  V30 48 1 5 44
M  V30 49 1 6 45
M  V30 50 1 10 46
M  V30 51 1 11 47
M  V30 52 1 13 48
M  V30 53 1 16 49
M  V30 54 1 18 50
M  V30 55 1 19 51
M  V30 56 1 22 52
M  V30 57 1 23 53
M  V30 58 1 24 54
M  V30 59 1 27 55
M  V30 60 1 27 56
M  V30 61 1 27 57
M  V30 62 1 28 58
M  V30 63 1 28 59
M  V30 64 1 28 60
M  V30 65 1 29 61
M  V30 66 1 33 62
M  V30 67 1 34 63
M  V30 68 1 35 64
M  V30 69 1 35 65
M  V30 70 1 36 66
M  V30 71 1 36 67
M  V30 END BOND
M  V30 END CTAB
M  END
>  <Dataset>  (939) 
ChEMBL_Kinases

>  <Ligand_Instance>  (939) 
nan

>  <PDB_ID>  (939) 
nan

>  <Standardized_SMILES>  (939) 
CN1CCC(NC(=O)c2ccc(Nc3ncc4ccn(-c5cccc(C(C)(C)O)n5)c4n3)cc2)CC1

>  <Name>  (939) 
nan

>  <Pocket>  (939) 
nan

>  <ATP_Site>  (939) 
nan

>  <Peripheral>  (939) 
nan

>  <Num_H_Atoms_ProtBoundConf>  (939) 
nan

>  <Num_Resolved_Atoms>  (939) 
nan

>  <Num_Not_Resolved_Atoms>  (939) 
nan

$$$$
CHEMBL4864729
     RDKit          3D

  0  0  0  0  0  0  0  0  0  0999 V3000
M  V30 BEGIN CTAB
M  V30 COUNTS 64 67 0 0 0
M  V30 BEGIN ATOM
M  V30 1 C 2.379761 -2.530632 2.308147 0
M  V30 2 N 3.766341 -2.404661 2.631838 0
M  V30 3 C 4.343649 -3.692539 2.854036 0
M  V30 4 C 4.509783 -1.567109 1.747403 0
M  V30 5 C 4.672804 -2.123404 0.348268 0
M  V30 6 C 5.466278 -1.135384 -0.452748 0
M  V30 7 O 4.887200 0.103256 -0.554094 0
M  V30 8 C 3.716161 0.504377 -1.101056 0
M  V30 9 C 2.664546 -0.082141 -1.758892 0
M  V30 10 C 1.575499 0.614005 -2.207050 0
M  V30 11 C 1.469101 1.970874 -2.021167 0
M  V30 12 C 0.338506 2.597623 -2.502162 0
M  V30 13 N -0.720199 1.937356 -3.180423 0
M  V30 14 C -1.877216 2.689222 -3.647492 0
M  V30 15 C -2.587916 3.308964 -2.488082 0
M  V30 16 C -3.019304 2.207771 -1.567690 0
M  V30 17 C -2.500016 1.544486 -0.506065 0
M  V30 18 N -3.249936 0.603212 0.030735 0
M  V30 19 C -4.286851 0.266713 -0.278756 0
M  V30 20 N -5.315102 -0.733839 0.138247 0
M  V30 21 C -4.811953 -1.444251 1.228432 0
M  V30 22 O -3.703858 -1.312944 1.802910 0
M  V30 23 N -5.662452 -2.470224 1.783634 0
M  V30 24 C -5.204596 -3.242166 2.909114 0
M  V30 25 C -4.512710 -4.391159 2.525884 0
M  V30 26 C -3.988648 -5.270547 3.468793 0
M  V30 27 C -4.155265 -5.003080 4.819322 0
M  V30 28 C -4.838997 -3.867274 5.167738 0
M  V30 29 Cl -5.086997 -3.466836 6.874073 0
M  V30 30 C -5.367197 -2.981366 4.253892 0
M  V30 31 S -4.697246 1.379340 -1.758914 0
M  V30 32 N 0.287856 3.917903 -2.292642 0
M  V30 33 C 1.257626 4.599441 -1.661703 0
M  V30 34 N 2.336898 3.939744 -1.213268 0
M  V30 35 C 2.491120 2.624290 -1.367790 0
M  V30 36 C 3.598615 1.892343 -0.915822 0
M  V30 37 H 2.017556 -3.561600 2.550289 0
M  V30 38 H 1.789565 -1.864625 2.991374 0
M  V30 39 H 2.172029 -2.346411 1.243903 0
M  V30 40 H 4.545796 -4.289544 1.949463 0
M  V30 41 H 5.317558 -3.562695 3.410906 0
M  V30 42 H 3.722404 -4.323475 3.515445 0
M  V30 43 H 3.929486 -0.619732 1.635864 0
M  V30 44 H 5.488545 -1.329009 2.195496 0
M  V30 45 H 3.696062 -2.304291 -0.110488 0
M  V30 46 H 5.204265 -3.095489 0.441123 0
M  V30 47 H 5.752492 -1.585916 -1.441648 0
M  V30 48 H 6.458302 -1.005924 0.063864 0
M  V30 49 H 2.797526 -1.126525 -1.886906 0
M  V30 50 H 0.843439 -0.000401 -2.701469 0
M  V30 51 H -0.769090 0.939141 -3.392552 0
M  V30 52 H -2.602258 2.070942 -4.188005 0
M  V30 53 H -1.536978 3.476112 -4.355592 0
M  V30 54 H -2.030925 4.086601 -1.947735 0
M  V30 55 H -3.488683 3.835957 -2.900415 0
M  V30 56 H -1.501690 1.861130 -0.200326 0
M  V30 57 H -6.210911 -0.827302 -0.339897 0
M  V30 58 H -6.609229 -2.656193 1.373857 0
M  V30 59 H -4.324691 -4.696379 1.489346 0
M  V30 60 H -3.454730 -6.157103 3.186094 0
M  V30 61 H -3.761159 -5.664557 5.602970 0
M  V30 62 H -5.914324 -2.071620 4.453780 0
M  V30 63 H 1.199126 5.676472 -1.499406 0
M  V30 64 H 4.305700 2.575692 -0.422270 0
M  V30 END ATOM
M  V30 BEGIN BOND
M  V30 1 1 1 2
M  V30 2 1 2 3
M  V30 3 1 2 4
M  V30 4 1 4 5
M  V30 5 1 5 6
M  V30 6 1 6 7
M  V30 7 1 7 8
M  V30 8 2 8 9
M  V30 9 1 9 10
M  V30 10 2 10 11
M  V30 11 1 11 12
M  V30 12 1 12 13
M  V30 13 1 13 14
M  V30 14 1 14 15
M  V30 15 1 15 16
M  V30 16 2 16 17
M  V30 17 1 17 18
M  V30 18 2 18 19
M  V30 19 1 19 20
M  V30 20 1 20 21
M  V30 21 2 21 22
M  V30 22 1 21 23
M  V30 23 1 23 24
M  V30 24 2 24 25
M  V30 25 1 25 26
M  V30 26 2 26 27
M  V30 27 1 27 28
M  V30 28 1 28 29
M  V30 29 2 28 30
M  V30 30 1 19 31
M  V30 31 2 12 32
M  V30 32 1 32 33
M  V30 33 2 33 34
M  V30 34 1 34 35
M  V30 35 2 35 36
M  V30 36 1 36 8
M  V30 37 1 35 11
M  V30 38 1 31 16
M  V30 39 1 30 24
M  V30 40 1 1 37
M  V30 41 1 1 38
M  V30 42 1 1 39
M  V30 43 1 3 40
M  V30 44 1 3 41
M  V30 45 1 3 42
M  V30 46 1 4 43
M  V30 47 1 4 44
M  V30 48 1 5 45
M  V30 49 1 5 46
M  V30 50 1 6 47
M  V30 51 1 6 48
M  V30 52 1 9 49
M  V30 53 1 10 50
M  V30 54 1 13 51
M  V30 55 1 14 52
M  V30 56 1 14 53
M  V30 57 1 15 54
M  V30 58 1 15 55
M  V30 59 1 17 56
M  V30 60 1 20 57
M  V30 61 1 23 58
M  V30 62 1 25 59
M  V30 63 1 26 60
M  V30 64 1 27 61
M  V30 65 1 30 62
M  V30 66 1 33 63
M  V30 67 1 36 64
M  V30 END BOND
M  V30 END CTAB
M  END
>  <Dataset>  (940) 
ChEMBL_Kinases

>  <Ligand_Instance>  (940) 
nan

>  <PDB_ID>  (940) 
nan

>  <Standardized_SMILES>  (940) 
CN(C)CCCOc1ccc2c(NCCc3cnc(NC(=O)Nc4cccc(Cl)c4)s3)ncnc2c1

>  <Name>  (940) 
nan

>  <Pocket>  (940) 
nan

>  <ATP_Site>  (940) 
nan

>  <Peripheral>  (940) 
nan

>  <Num_H_Atoms_ProtBoundConf>  (940) 
nan

>  <Num_Resolved_Atoms>  (940) 
nan

>  <Num_Not_Resolved_Atoms>  (940) 
nan

$$$$
CHEMBL4860427
     RDKit          3D

  0  0  0  0  0  0  0  0  0  0999 V3000
M  V30 BEGIN CTAB
M  V30 COUNTS 63 67 0 0 0
M  V30 BEGIN ATOM
M  V30 1 C 2.619828 0.575023 4.202495 0
M  V30 2 C 3.019131 -0.380849 3.115421 0
M  V30 3 C 4.450255 -0.779191 3.308858 0
M  V30 4 O 2.154764 -1.484512 3.176302 0
M  V30 5 C 2.872955 0.322112 1.820969 0
M  V30 6 C 3.187337 -0.367000 0.664690 0
M  V30 7 C 3.108598 0.131189 -0.605027 0
M  V30 8 C 2.673903 1.446308 -0.741335 0
M  V30 9 C 2.363221 2.121646 0.428557 0
M  V30 10 N 1.908657 3.484968 0.343280 0
M  V30 11 C 2.656093 4.604113 0.483642 0
M  V30 12 C 1.828401 5.701078 0.328283 0
M  V30 13 F 2.125501 7.027113 0.384135 0
M  V30 14 C 0.560643 5.213760 0.090258 0
M  V30 15 C -0.678992 5.754843 -0.142494 0
M  V30 16 N -1.716992 4.949909 -0.337440 0
M  V30 17 C -1.688934 3.612805 -0.332236 0
M  V30 18 N -2.865782 2.877909 -0.553485 0
M  V30 19 C -3.018718 1.470030 -0.582219 0
M  V30 20 C -2.022872 0.539752 -0.391910 0
M  V30 21 C -2.180951 -0.827583 -0.422142 0
M  V30 22 C -3.440846 -1.331701 -0.662937 0
M  V30 23 C -3.764788 -2.752763 -0.725174 0
M  V30 24 O -4.910751 -3.214508 -0.945052 0
M  V30 25 N -2.768789 -3.750637 -0.534214 0
M  V30 26 C -2.939386 -5.184258 -0.567235 0
M  V30 27 C -2.051554 -5.687849 -1.712715 0
M  V30 28 C -1.903953 -7.193118 -1.648836 0
M  V30 29 O -1.320455 -7.624952 -0.486791 0
M  V30 30 C -1.192445 -6.663658 0.482482 0
M  V30 31 C -2.450385 -5.850666 0.682641 0
M  V30 32 C -4.479595 -0.448610 -0.861446 0
M  V30 33 C -4.254073 0.908873 -0.818320 0
M  V30 34 N -0.469180 3.114160 -0.103202 0
M  V30 35 C 0.620789 3.858233 0.101508 0
M  V30 36 N 2.447572 1.610286 1.681811 0
M  V30 37 H 2.550206 0.044853 5.181548 0
M  V30 38 H 1.662195 1.057804 3.900664 0
M  V30 39 H 3.434446 1.340755 4.271343 0
M  V30 40 H 5.047057 0.108383 3.603229 0
M  V30 41 H 4.914907 -1.149821 2.354838 0
M  V30 42 H 4.586397 -1.589065 4.055130 0
M  V30 43 H 2.661431 -2.327220 3.015127 0
M  V30 44 H 3.530981 -1.398163 0.731572 0
M  V30 45 H 3.365862 -0.447373 -1.480946 0
M  V30 46 H 2.576150 1.934979 -1.696153 0
M  V30 47 H 3.716592 4.656146 0.682770 0
M  V30 48 H -0.798067 6.835900 -0.164802 0
M  V30 49 H -3.739778 3.428987 -0.717754 0
M  V30 50 H -1.021460 0.863688 -0.200422 0
M  V30 51 H -1.376238 -1.509017 -0.268373 0
M  V30 52 H -1.772283 -3.506154 -0.342955 0
M  V30 53 H -3.982575 -5.427881 -0.768323 0
M  V30 54 H -2.535721 -5.398597 -2.664424 0
M  V30 55 H -1.077007 -5.166541 -1.644297 0
M  V30 56 H -2.955295 -7.596676 -1.638641 0
M  V30 57 H -1.443606 -7.539802 -2.581088 0
M  V30 58 H -0.338583 -5.966735 0.342101 0
M  V30 59 H -1.018535 -7.179682 1.453381 0
M  V30 60 H -2.245304 -5.042775 1.415076 0
M  V30 61 H -3.273380 -6.467248 1.097305 0
M  V30 62 H -5.486062 -0.821557 -1.053721 0
M  V30 63 H -5.116004 1.547987 -0.983016 0
M  V30 END ATOM
M  V30 BEGIN BOND
M  V30 1 1 1 2
M  V30 2 1 2 3
M  V30 3 1 2 4
M  V30 4 1 2 5
M  V30 5 2 5 6
M  V30 6 1 6 7
M  V30 7 2 7 8
M  V30 8 1 8 9
M  V30 9 1 9 10
M  V30 10 1 10 11
M  V30 11 2 11 12
M  V30 12 1 12 13
M  V30 13 1 12 14
M  V30 14 2 14 15
M  V30 15 1 15 16
M  V30 16 2 16 17
M  V30 17 1 17 18
M  V30 18 1 18 19
M  V30 19 2 19 20
M  V30 20 1 20 21
M  V30 21 2 21 22
M  V30 22 1 22 23
M  V30 23 2 23 24
M  V30 24 1 23 25
M  V30 25 1 25 26
M  V30 26 1 26 27
M  V30 27 1 27 28
M  V30 28 1 28 29
M  V30 29 1 29 30
M  V30 30 1 30 31
M  V30 31 1 22 32
M  V30 32 2 32 33
M  V30 33 1 17 34
M  V30 34 2 34 35
M  V30 35 2 9 36
M  V30 36 1 36 5
M  V30 37 1 35 10
M  V30 38 1 35 14
M  V30 39 1 33 19
M  V30 40 1 31 26
M  V30 41 1 1 37
M  V30 42 1 1 38
M  V30 43 1 1 39
M  V30 44 1 3 40
M  V30 45 1 3 41
M  V30 46 1 3 42
M  V30 47 1 4 43
M  V30 48 1 6 44
M  V30 49 1 7 45
M  V30 50 1 8 46
M  V30 51 1 11 47
M  V30 52 1 15 48
M  V30 53 1 18 49
M  V30 54 1 20 50
M  V30 55 1 21 51
M  V30 56 1 25 52
M  V30 57 1 26 53
M  V30 58 1 27 54
M  V30 59 1 27 55
M  V30 60 1 28 56
M  V30 61 1 28 57
M  V30 62 1 30 58
M  V30 63 1 30 59
M  V30 64 1 31 60
M  V30 65 1 31 61
M  V30 66 1 32 62
M  V30 67 1 33 63
M  V30 END BOND
M  V30 END CTAB
M  END
>  <Dataset>  (941) 
ChEMBL_Kinases

>  <Ligand_Instance>  (941) 
nan

>  <PDB_ID>  (941) 
nan

>  <Standardized_SMILES>  (941) 
CC(C)(O)c1cccc(-n2cc(F)c3cnc(Nc4ccc(C(=O)NC5CCOCC5)cc4)nc32)n1

>  <Name>  (941) 
nan

>  <Pocket>  (941) 
nan

>  <ATP_Site>  (941) 
nan

>  <Peripheral>  (941) 
nan

>  <Num_H_Atoms_ProtBoundConf>  (941) 
nan

>  <Num_Resolved_Atoms>  (941) 
nan

>  <Num_Not_Resolved_Atoms>  (941) 
nan

$$$$
CHEMBL1488035
     RDKit          3D

  0  0  0  0  0  0  0  0  0  0999 V3000
M  V30 BEGIN CTAB
M  V30 COUNTS 34 36 0 0 0
M  V30 BEGIN ATOM
M  V30 1 C -1.359062 -2.123053 3.683812 0
M  V30 2 C -1.811248 -2.410635 2.261231 0
M  V30 3 N -1.024343 -1.547394 1.402120 0
M  V30 4 N 0.140181 -1.904080 0.886938 0
M  V30 5 C 0.868677 -1.098658 0.088725 0
M  V30 6 C 2.149090 -1.552405 -0.449196 0
M  V30 7 C 2.607109 -2.814564 -0.132667 0
M  V30 8 C 3.820849 -3.264964 -0.633189 0
M  V30 9 C 4.499957 -2.376631 -1.440921 0
M  V30 10 C 4.105822 -1.103176 -1.799989 0
M  V30 11 C 2.883027 -0.701004 -1.271866 0
M  V30 12 N 0.406068 0.129961 -0.209550 0
M  V30 13 C -0.777887 0.603098 0.263099 0
M  V30 14 C -1.188068 1.873337 -0.085058 0
M  V30 15 O -0.509711 2.619004 -0.826339 0
M  V30 16 N -2.391195 2.227119 0.454024 0
M  V30 17 C -2.895575 3.557629 0.133013 0
M  V30 18 C -3.105008 1.409382 1.249358 0
M  V30 19 O -4.206121 1.808345 1.707945 0
M  V30 20 N -2.695596 0.158541 1.588985 0
M  V30 21 C -1.508623 -0.324924 1.119346 0
M  V30 22 H -1.472169 -1.022832 3.839686 0
M  V30 23 H -0.249523 -2.288586 3.677990 0
M  V30 24 H -1.889391 -2.725285 4.439734 0
M  V30 25 H -2.898948 -2.255040 2.130305 0
M  V30 26 H -1.528616 -3.465453 2.034692 0
M  V30 27 H 2.062550 -3.501023 0.503085 0
M  V30 28 H 4.218785 -4.232750 -0.417784 0
M  V30 29 H 5.447619 -2.716207 -1.837320 0
M  V30 30 H 4.729986 -0.501176 -2.443114 0
M  V30 31 H 2.547134 0.298856 -1.538369 0
M  V30 32 H -2.772557 3.734390 -0.966485 0
M  V30 33 H -3.949557 3.672279 0.402673 0
M  V30 34 H -2.255260 4.294412 0.643324 0
M  V30 END ATOM
M  V30 BEGIN BOND
M  V30 1 1 1 2
M  V30 2 1 2 3
M  V30 3 1 3 4
M  V30 4 2 4 5
M  V30 5 1 5 6
M  V30 6 2 6 7
M  V30 7 1 7 8
M  V30 8 2 8 9
M  V30 9 1 9 10
M  V30 10 2 10 11
M  V30 11 1 5 12
M  V30 12 2 12 13
M  V30 13 1 13 14
M  V30 14 2 14 15
M  V30 15 1 14 16
M  V30 16 1 16 17
M  V30 17 1 16 18
M  V30 18 2 18 19
M  V30 19 1 18 20
M  V30 20 2 20 21
M  V30 21 1 21 3
M  V30 22 1 11 6
M  V30 23 1 21 13
M  V30 24 1 1 22
M  V30 25 1 1 23
M  V30 26 1 1 24
M  V30 27 1 2 25
M  V30 28 1 2 26
M  V30 29 1 7 27
M  V30 30 1 8 28
M  V30 31 1 9 29
M  V30 32 1 10 30
M  V30 33 1 11 31
M  V30 34 1 17 32
M  V30 35 1 17 33
M  V30 36 1 17 34
M  V30 END BOND
M  V30 END CTAB
M  END
>  <Dataset>  (942) 
ChEMBL_Kinases

>  <Ligand_Instance>  (942) 
nan

>  <PDB_ID>  (942) 
nan

>  <Standardized_SMILES>  (942) 
CCn1nc(-c2ccccc2)nc2c(=O)n(C)c(=O)nc1-2

>  <Name>  (942) 
nan

>  <Pocket>  (942) 
nan

>  <ATP_Site>  (942) 
nan

>  <Peripheral>  (942) 
nan

>  <Num_H_Atoms_ProtBoundConf>  (942) 
nan

>  <Num_Resolved_Atoms>  (942) 
nan

>  <Num_Not_Resolved_Atoms>  (942) 
nan

$$$$
CHEMBL150
     RDKit          3D

  0  0  0  0  0  0  0  0  0  0999 V3000
M  V30 BEGIN CTAB
M  V30 COUNTS 31 33 0 0 0
M  V30 BEGIN ATOM
M  V30 1 O -1.248418 -2.477099 3.458461 0
M  V30 2 C -0.824008 -1.656700 2.605971 0
M  V30 3 C -0.148601 -2.080079 1.483361 0
M  V30 4 O 0.028434 -3.428136 1.356571 0
M  V30 5 C 0.344924 -1.255209 0.509514 0
M  V30 6 C 1.062219 -1.617455 -0.694552 0
M  V30 7 C 1.462498 -0.596187 -1.532172 0
M  V30 8 C 2.150978 -0.804612 -2.706760 0
M  V30 9 C 2.479198 -2.080965 -3.107325 0
M  V30 10 O 3.172053 -2.295862 -4.288670 0
M  V30 11 C 2.098428 -3.130990 -2.299896 0
M  V30 12 C 1.413748 -2.860639 -1.140336 0
M  V30 13 O 0.120470 0.016290 0.729508 0
M  V30 14 C -0.517531 0.465953 1.783217 0
M  V30 15 C -0.671829 1.850572 1.865335 0
M  V30 16 C -1.333292 2.407029 2.945563 0
M  V30 17 O -1.468707 3.781114 2.996117 0
M  V30 18 C -1.831798 1.580399 3.928337 0
M  V30 19 C -1.699547 0.212582 3.882462 0
M  V30 20 O -2.176300 -0.674301 4.835388 0
M  V30 21 C -1.035488 -0.314380 2.793707 0
M  V30 22 H 0.841125 -3.843477 1.826577 0
M  V30 23 H 1.258887 0.464629 -1.320123 0
M  V30 24 H 2.453572 0.008807 -3.345558 0
M  V30 25 H 2.908757 -1.794314 -5.149947 0
M  V30 26 H 2.340357 -4.143029 -2.585496 0
M  V30 27 H 1.144661 -3.706749 -0.555630 0
M  V30 28 H -0.284106 2.517563 1.097703 0
M  V30 29 H -1.604210 4.268230 2.115983 0
M  V30 30 H -2.349998 2.006541 4.775931 0
M  V30 31 H -2.931836 -1.343839 4.652222 0
M  V30 END ATOM
M  V30 BEGIN BOND
M  V30 1 2 1 2
M  V30 2 1 2 3
M  V30 3 1 3 4
M  V30 4 2 3 5
M  V30 5 1 5 6
M  V30 6 2 6 7
M  V30 7 1 7 8
M  V30 8 2 8 9
M  V30 9 1 9 10
M  V30 10 1 9 11
M  V30 11 2 11 12
M  V30 12 1 5 13
M  V30 13 1 13 14
M  V30 14 2 14 15
M  V30 15 1 15 16
M  V30 16 1 16 17
M  V30 17 2 16 18
M  V30 18 1 18 19
M  V30 19 1 19 20
M  V30 20 2 19 21
M  V30 21 1 21 2
M  V30 22 1 12 6
M  V30 23 1 21 14
M  V30 24 1 4 22
M  V30 25 1 7 23
M  V30 26 1 8 24
M  V30 27 1 10 25
M  V30 28 1 11 26
M  V30 29 1 12 27
M  V30 30 1 15 28
M  V30 31 1 17 29
M  V30 32 1 18 30
M  V30 33 1 20 31
M  V30 END BOND
M  V30 END CTAB
M  END
>  <Dataset>  (943) 
ChEMBL_Kinases

>  <Ligand_Instance>  (943) 
nan

>  <PDB_ID>  (943) 
nan

>  <Standardized_SMILES>  (943) 
O=c1c(O)c(-c2ccc(O)cc2)oc2cc(O)cc(O)c12

>  <Name>  (943) 
KAEMPFEROL

>  <Pocket>  (943) 
nan

>  <ATP_Site>  (943) 
nan

>  <Peripheral>  (943) 
nan

>  <Num_H_Atoms_ProtBoundConf>  (943) 
nan

>  <Num_Resolved_Atoms>  (943) 
nan

>  <Num_Not_Resolved_Atoms>  (943) 
nan

$$$$
CHEMBL4864305
     RDKit          3D

  0  0  0  0  0  0  0  0  0  0999 V3000
M  V30 BEGIN CTAB
M  V30 COUNTS 59 62 0 0 0
M  V30 BEGIN ATOM
M  V30 1 C -5.276123 2.352324 1.357765 0
M  V30 2 O -4.405974 1.516380 0.841385 0
M  V30 3 C -3.569573 0.701292 0.333881 0
M  V30 4 C -3.617850 -0.270702 -0.634603 0
M  V30 5 C -2.569198 -1.054867 -1.055766 0
M  V30 6 C -1.386217 -0.803161 -0.425765 0
M  V30 7 C -0.246643 -1.610737 -0.948189 0
M  V30 8 C -0.136858 -2.880407 -1.376181 0
M  V30 9 C 0.975457 -3.311321 -2.001829 0
M  V30 10 O 1.217974 -4.518912 -2.462657 0
M  V30 11 C 0.713651 -5.731181 -2.584712 0
M  V30 12 C 2.074729 -2.470147 -2.245970 0
M  V30 13 O 3.176703 -2.761956 -2.826656 0
M  V30 14 C 4.200646 -2.997551 -3.609096 0
M  V30 15 C 1.962848 -1.114645 -1.789029 0
M  V30 16 O 2.966891 -0.330760 -2.019937 0
M  V30 17 C 3.968191 0.457981 -2.248204 0
M  V30 18 C 0.789216 -0.695949 -1.133112 0
M  V30 19 C -1.207033 0.145549 0.573455 0
M  V30 20 C -2.339137 0.918348 0.959654 0
M  V30 21 C -1.779201 1.829812 1.993044 0
M  V30 22 C -1.306099 1.593008 3.247185 0
M  V30 23 N -1.111049 0.493997 4.148017 0
M  V30 24 C -0.311812 -0.658350 3.913499 0
M  V30 25 C -0.795436 -1.841475 3.415163 0
M  V30 26 C -0.046156 -2.958387 3.145593 0
M  V30 27 C 1.308843 -2.790895 3.429072 0
M  V30 28 C 1.915020 -1.653845 3.934720 0
M  V30 29 C 3.323448 -1.579868 4.170152 0
M  V30 30 N 4.469010 -1.536108 4.359353 0
M  V30 31 C 1.050506 -0.585320 4.167378 0
M  V30 32 C -0.893080 2.921162 3.722692 0
M  V30 33 O -0.407273 3.243396 4.823422 0
M  V30 34 N -1.092573 3.994081 2.781762 0
M  V30 35 C -1.664556 3.239880 1.683898 0
M  V30 36 O -1.983553 3.848707 0.628650 0
M  V30 37 H -6.076815 1.884853 1.976406 0
M  V30 38 H -4.753636 3.112649 2.044786 0
M  V30 39 H -5.839626 2.957671 0.571794 0
M  V30 40 H -4.619442 -0.353226 -1.052952 0
M  V30 41 H -2.799352 -1.766967 -1.828397 0
M  V30 42 H -1.006066 -3.459646 -1.155066 0
M  V30 43 H 0.904253 -6.225938 -3.583558 0
M  V30 44 H 1.178983 -6.457257 -1.824755 0
M  V30 45 H -0.406410 -5.784492 -2.459453 0
M  V30 46 H 5.093722 -3.341198 -3.000504 0
M  V30 47 H 4.075690 -3.755164 -4.445246 0
M  V30 48 H 4.570622 -2.070642 -4.162955 0
M  V30 49 H 4.657629 0.083429 -3.073514 0
M  V30 50 H 4.686222 0.599512 -1.400097 0
M  V30 51 H 3.698414 1.493313 -2.631905 0
M  V30 52 H 0.841078 0.376668 -0.829721 0
M  V30 53 H -0.177992 0.143288 0.907390 0
M  V30 54 H -1.612115 0.559697 5.035081 0
M  V30 55 H -1.863351 -1.920233 3.202333 0
M  V30 56 H -0.410175 -3.901538 2.770503 0
M  V30 57 H 2.008898 -3.609384 3.247473 0
M  V30 58 H 1.431203 0.319164 4.563536 0
M  V30 59 H -0.880605 5.001131 2.870334 0
M  V30 END ATOM
M  V30 BEGIN BOND
M  V30 1 1 1 2
M  V30 2 1 2 3
M  V30 3 2 3 4
M  V30 4 1 4 5
M  V30 5 2 5 6
M  V30 6 1 6 7
M  V30 7 2 7 8
M  V30 8 1 8 9
M  V30 9 1 9 10
M  V30 10 1 10 11
M  V30 11 2 9 12
M  V30 12 1 12 13
M  V30 13 1 13 14
M  V30 14 1 12 15
M  V30 15 1 15 16
M  V30 16 1 16 17
M  V30 17 2 15 18
M  V30 18 1 6 19
M  V30 19 2 19 20
M  V30 20 1 20 21
M  V30 21 2 21 22
M  V30 22 1 22 23
M  V30 23 1 23 24
M  V30 24 2 24 25
M  V30 25 1 25 26
M  V30 26 2 26 27
M  V30 27 1 27 28
M  V30 28 1 28 29
M  V30 29 3 29 30
M  V30 30 2 28 31
M  V30 31 1 22 32
M  V30 32 2 32 33
M  V30 33 1 32 34
M  V30 34 1 34 35
M  V30 35 2 35 36
M  V30 36 1 20 3
M  V30 37 1 35 21
M  V30 38 1 18 7
M  V30 39 1 31 24
M  V30 40 1 1 37
M  V30 41 1 1 38
M  V30 42 1 1 39
M  V30 43 1 4 40
M  V30 44 1 5 41
M  V30 45 1 8 42
M  V30 46 1 11 43
M  V30 47 1 11 44
M  V30 48 1 11 45
M  V30 49 1 14 46
M  V30 50 1 14 47
M  V30 51 1 14 48
M  V30 52 1 17 49
M  V30 53 1 17 50
M  V30 54 1 17 51
M  V30 55 1 18 52
M  V30 56 1 19 53
M  V30 57 1 23 54
M  V30 58 1 25 55
M  V30 59 1 26 56
M  V30 60 1 27 57
M  V30 61 1 31 58
M  V30 62 1 34 59
M  V30 END BOND
M  V30 END CTAB
M  END
>  <Dataset>  (944) 
ChEMBL_Kinases

>  <Ligand_Instance>  (944) 
nan

>  <PDB_ID>  (944) 
nan

>  <Standardized_SMILES>  (944) 
COc1ccc(-c2cc(OC)c(OC)c(OC)c2)cc1C1=C(Nc2cccc(C#N)c2)C(=O)NC1=O

>  <Name>  (944) 
nan

>  <Pocket>  (944) 
nan

>  <ATP_Site>  (944) 
nan

>  <Peripheral>  (944) 
nan

>  <Num_H_Atoms_ProtBoundConf>  (944) 
nan

>  <Num_Resolved_Atoms>  (944) 
nan

>  <Num_Not_Resolved_Atoms>  (944) 
nan

$$$$
CHEMBL4864149
     RDKit          3D

  0  0  0  0  0  0  0  0  0  0999 V3000
M  V30 BEGIN CTAB
M  V30 COUNTS 48 52 0 0 0
M  V30 BEGIN ATOM
M  V30 1 C 1.530100 -5.979139 -0.241795 0
M  V30 2 O 1.927781 -5.496035 -1.505981 0
M  V30 3 C 2.635271 -4.334992 -1.698337 0
M  V30 4 C 3.015002 -3.881900 -2.955339 0
M  V30 5 C 3.722994 -2.704681 -3.043731 0
M  V30 6 C 4.094901 -1.921823 -1.971742 0
M  V30 7 C 3.717306 -2.372790 -0.723802 0
M  V30 8 C 4.046999 -1.635070 0.504104 0
M  V30 9 N 3.029650 -0.675050 0.874764 0
M  V30 10 C 2.920488 0.739008 0.485085 0
M  V30 11 O 1.559888 1.050439 0.164329 0
M  V30 12 C 0.522523 0.646472 0.984318 0
M  V30 13 C -0.694411 1.301016 1.026442 0
M  V30 14 C -1.694458 0.843715 1.872091 0
M  V30 15 C -3.003423 1.481100 1.972660 0
M  V30 16 C -4.162625 0.781631 2.265168 0
M  V30 17 C -5.380734 1.449347 2.348102 0
M  V30 18 C -5.460975 2.820877 2.141098 0
M  V30 19 N -6.517421 3.684730 2.167788 0
M  V30 20 N -6.016638 4.897092 1.895826 0
M  V30 21 C -4.698208 4.831245 1.700727 0
M  V30 22 C -4.294490 3.518656 1.847600 0
M  V30 23 C -3.093587 2.840801 1.769027 0
M  V30 24 C -1.500978 -0.259374 2.679414 0
M  V30 25 C -0.304443 -0.951824 2.677769 0
M  V30 26 C 0.662956 -0.461937 1.821127 0
M  V30 27 C 1.970569 -1.108828 1.729625 0
M  V30 28 O 2.140139 -2.123925 2.476985 0
M  V30 29 C 2.996386 -3.567985 -0.611549 0
M  V30 30 H 1.073975 -5.153489 0.343459 0
M  V30 31 H 0.811637 -6.825288 -0.393299 0
M  V30 32 H 2.413073 -6.426637 0.257853 0
M  V30 33 H 2.731729 -4.482610 -3.801334 0
M  V30 34 H 4.003712 -2.378994 -4.038804 0
M  V30 35 H 4.650426 -1.006920 -2.101059 0
M  V30 36 H 5.044420 -1.155016 0.365131 0
M  V30 37 H 4.149293 -2.346359 1.348317 0
M  V30 38 H 3.583191 1.011268 -0.330508 0
M  V30 39 H 3.168208 1.327704 1.398230 0
M  V30 40 H -0.874490 2.166948 0.406149 0
M  V30 41 H -4.047298 -0.281707 2.417498 0
M  V30 42 H -6.267530 0.890019 2.575842 0
M  V30 43 H -7.503641 3.382551 2.370229 0
M  V30 44 H -4.007391 5.635557 1.464056 0
M  V30 45 H -2.211317 3.423008 1.538764 0
M  V30 46 H -2.266429 -0.632216 3.345587 0
M  V30 47 H -0.085047 -1.820454 3.281385 0
M  V30 48 H 2.706940 -3.905352 0.395454 0
M  V30 END ATOM
M  V30 BEGIN BOND
M  V30 1 1 1 2
M  V30 2 1 2 3
M  V30 3 2 3 4
M  V30 4 1 4 5
M  V30 5 2 5 6
M  V30 6 1 6 7
M  V30 7 1 7 8
M  V30 8 1 8 9
M  V30 9 1 9 10
M  V30 10 1 10 11
M  V30 11 1 11 12
M  V30 12 2 12 13
M  V30 13 1 13 14
M  V30 14 1 14 15
M  V30 15 2 15 16
M  V30 16 1 16 17
M  V30 17 2 17 18
M  V30 18 1 18 19
M  V30 19 1 19 20
M  V30 20 2 20 21
M  V30 21 1 21 22
M  V30 22 2 22 23
M  V30 23 2 14 24
M  V30 24 1 24 25
M  V30 25 2 25 26
M  V30 26 1 26 27
M  V30 27 2 27 28
M  V30 28 2 7 29
M  V30 29 1 29 3
M  V30 30 1 27 9
M  V30 31 1 26 12
M  V30 32 1 23 15
M  V30 33 1 22 18
M  V30 34 1 1 30
M  V30 35 1 1 31
M  V30 36 1 1 32
M  V30 37 1 4 33
M  V30 38 1 5 34
M  V30 39 1 6 35
M  V30 40 1 8 36
M  V30 41 1 8 37
M  V30 42 1 10 38
M  V30 43 1 10 39
M  V30 44 1 13 40
M  V30 45 1 16 41
M  V30 46 1 17 42
M  V30 47 1 19 43
M  V30 48 1 21 44
M  V30 49 1 23 45
M  V30 50 1 24 46
M  V30 51 1 25 47
M  V30 52 1 29 48
M  V30 END BOND
M  V30 END CTAB
M  END
>  <Dataset>  (945) 
ChEMBL_Kinases

>  <Ligand_Instance>  (945) 
nan

>  <PDB_ID>  (945) 
nan

>  <Standardized_SMILES>  (945) 
COc1cccc(CN2COc3cc(-c4ccc5[nH]ncc5c4)ccc3C2=O)c1

>  <Name>  (945) 
nan

>  <Pocket>  (945) 
nan

>  <ATP_Site>  (945) 
nan

>  <Peripheral>  (945) 
nan

>  <Num_H_Atoms_ProtBoundConf>  (945) 
nan

>  <Num_Resolved_Atoms>  (945) 
nan

>  <Num_Not_Resolved_Atoms>  (945) 
nan

$$$$
CHEMBL4864053
     RDKit          3D

  0  0  0  0  0  0  0  0  0  0999 V3000
M  V30 BEGIN CTAB
M  V30 COUNTS 54 56 0 0 0
M  V30 BEGIN ATOM
M  V30 1 C -2.507980 -1.545453 4.800440 0
M  V30 2 O -1.737007 -2.704753 4.584317 0
M  V30 3 C -0.599416 -2.304840 3.819087 0 CFG=1
M  V30 4 C 0.640407 -2.687985 4.581750 0
M  V30 5 C 1.826683 -2.717156 3.654399 0
M  V30 6 C 1.511245 -1.892704 2.396236 0 CFG=1
M  V30 7 C 2.716390 -1.563603 1.590559 0
M  V30 8 N 2.405027 -0.776899 0.418613 0
M  V30 9 C 2.084792 -1.465318 -0.705723 0
M  V30 10 C 1.588582 -0.186707 -1.377449 0
M  V30 11 C 1.025702 0.078659 -2.672193 0
M  V30 12 N 0.511078 1.322795 -3.196270 0
M  V30 13 C 0.105194 2.462317 -2.362592 0
M  V30 14 C -1.090463 2.091050 -1.567754 0
M  V30 15 C -1.040778 1.752432 -0.233419 0
M  V30 16 N -2.053641 1.390257 0.567191 0
M  V30 17 C -3.316479 1.332008 0.049331 0
M  V30 18 C -3.469739 1.661024 -1.305498 0
M  V30 19 C -2.379980 2.036071 -2.110021 0
M  V30 20 C -2.604412 2.391737 -3.536865 0
M  V30 21 F -2.188046 3.686354 -3.790537 0
M  V30 22 F -3.997275 2.452836 -3.712364 0
M  V30 23 F -2.163506 1.466365 -4.427414 0
M  V30 24 N 0.907687 -1.021184 -3.472545 0
M  V30 25 C 1.286155 -2.214016 -3.064751 0
M  V30 26 C 1.768467 -2.142029 -1.816032 0
M  V30 27 C 2.292017 -3.418013 -1.155825 0
M  V30 28 N 2.703552 -4.425270 -0.658505 0
M  V30 29 C 0.510218 -2.776847 1.640969 0
M  V30 30 C -0.645858 -3.100867 2.539863 0
M  V30 31 H -3.420201 -1.800894 5.403438 0
M  V30 32 H -2.898550 -1.156799 3.816956 0
M  V30 33 H -1.968504 -0.742407 5.304293 0
M  V30 34 H -0.656588 -1.222729 3.652781 0
M  V30 35 H 0.499775 -3.659576 5.102346 0
M  V30 36 H 0.809944 -1.934644 5.383007 0
M  V30 37 H 2.105385 -3.762645 3.377351 0
M  V30 38 H 2.691513 -2.247281 4.176633 0
M  V30 39 H 1.019577 -0.970642 2.714783 0
M  V30 40 H 3.178425 -2.544812 1.301212 0
M  V30 41 H 3.472474 -1.081247 2.213977 0
M  V30 42 H 2.531913 0.143142 0.817384 0
M  V30 43 H 1.544380 0.902267 -1.070975 0
M  V30 44 H 0.473089 1.342596 -4.226957 0
M  V30 45 H 0.956819 2.741822 -1.693638 0
M  V30 46 H -0.029750 3.301633 -3.046648 0
M  V30 47 H -0.127650 1.758807 0.317986 0
M  V30 48 H -4.162954 1.041774 0.653733 0
M  V30 49 H -4.432950 1.635402 -1.775944 0
M  V30 50 H 1.297134 -3.189587 -3.482555 0
M  V30 51 H 1.010670 -3.768219 1.422434 0
M  V30 52 H 0.193878 -2.334969 0.704208 0
M  V30 53 H -1.634891 -2.973899 2.002667 0
M  V30 54 H -0.650600 -4.180800 2.863230 0
M  V30 END ATOM
M  V30 BEGIN BOND
M  V30 1 1 1 2
M  V30 2 1 2 3
M  V30 3 1 3 4
M  V30 4 1 4 5
M  V30 5 1 5 6
M  V30 6 1 6 7
M  V30 7 1 7 8
M  V30 8 1 8 9
M  V30 9 2 9 10
M  V30 10 1 10 11
M  V30 11 1 11 12
M  V30 12 1 12 13
M  V30 13 1 13 14
M  V30 14 2 14 15
M  V30 15 1 15 16
M  V30 16 2 16 17
M  V30 17 1 17 18
M  V30 18 2 18 19
M  V30 19 1 19 20
M  V30 20 1 20 21
M  V30 21 1 20 22
M  V30 22 1 20 23
M  V30 23 2 11 24
M  V30 24 1 24 25
M  V30 25 2 25 26
M  V30 26 1 26 27
M  V30 27 3 27 28
M  V30 28 1 6 29
M  V30 29 1 29 30
M  V30 30 1 30 3
M  V30 31 1 26 9
M  V30 32 1 19 14
M  V30 33 1 1 31
M  V30 34 1 1 32
M  V30 35 1 1 33
M  V30 36 1 3 34 CFG=3
M  V30 37 1 4 35
M  V30 38 1 4 36
M  V30 39 1 5 37
M  V30 40 1 5 38
M  V30 41 1 6 39 CFG=1
M  V30 42 1 7 40
M  V30 43 1 7 41
M  V30 44 1 8 42
M  V30 45 1 10 43
M  V30 46 1 12 44
M  V30 47 1 13 45
M  V30 48 1 13 46
M  V30 49 1 15 47
M  V30 50 1 17 48
M  V30 51 1 18 49
M  V30 52 1 25 50
M  V30 53 1 29 51
M  V30 54 1 29 52
M  V30 55 1 30 53
M  V30 56 1 30 54
M  V30 END BOND
M  V30 END CTAB
M  END
>  <Dataset>  (946) 
ChEMBL_Kinases

>  <Ligand_Instance>  (946) 
nan

>  <PDB_ID>  (946) 
nan

>  <Standardized_SMILES>  (946) 
CO[C@H]1CC[C@@H](CNc2cc(NCc3cnccc3C(F)(F)F)ncc2C#N)CC1

>  <Name>  (946) 
nan

>  <Pocket>  (946) 
nan

>  <ATP_Site>  (946) 
nan

>  <Peripheral>  (946) 
nan

>  <Num_H_Atoms_ProtBoundConf>  (946) 
nan

>  <Num_Resolved_Atoms>  (946) 
nan

>  <Num_Not_Resolved_Atoms>  (946) 
nan

$$$$
CHEMBL4864046
     RDKit          3D

  0  0  0  0  0  0  0  0  0  0999 V3000
M  V30 BEGIN CTAB
M  V30 COUNTS 70 74 0 0 0
M  V30 BEGIN ATOM
M  V30 1 C -0.929336 -3.967413 6.314762 0
M  V30 2 C 0.581283 -4.072206 6.289513 0
M  V30 3 N 1.056716 -5.381031 5.974372 0
M  V30 4 C 2.480389 -5.430297 5.956357 0
M  V30 5 C 3.055229 -4.601896 4.828740 0
M  V30 6 C 2.437687 -4.885925 3.510856 0
M  V30 7 N 2.190608 -3.568795 2.884170 0
M  V30 8 C 2.859253 -3.248889 1.687262 0
M  V30 9 O 3.644789 -4.075192 1.176617 0
M  V30 10 C 2.687595 -1.977796 0.986242 0
M  V30 11 C 3.400074 -1.773056 -0.181331 0
M  V30 12 C 3.279380 -0.583983 -0.893340 0
M  V30 13 C 2.440316 0.419270 -0.443540 0
M  V30 14 N 2.279825 1.668252 -1.141859 0
M  V30 15 C 1.399895 2.711064 -0.676062 0
M  V30 16 N 1.628394 3.742124 0.155956 0
M  V30 17 C 0.583436 4.562434 0.401085 0
M  V30 18 C -0.656754 4.381361 -0.152661 0
M  V30 19 C -1.852917 5.078813 -0.049713 0
M  V30 20 F -2.095551 6.192730 0.682292 0
M  V30 21 C -2.784574 4.444751 -0.830487 0
M  V30 22 N -2.162580 3.380676 -1.397223 0
M  V30 23 C -2.637743 2.364684 -2.302174 0
M  V30 24 C -2.747566 1.034987 -1.891938 0
M  V30 25 C -3.210745 0.122765 -2.817251 0
M  V30 26 C -3.560584 0.448982 -4.090169 0
M  V30 27 C -3.437620 1.775289 -4.458194 0
M  V30 28 C -3.819950 2.134524 -5.855686 0
M  V30 29 C -2.648606 2.031933 -6.786065 0
M  V30 30 C -4.365192 3.557692 -5.884744 0
M  V30 31 O -4.792571 1.267977 -6.309692 0
M  V30 32 N -2.994418 2.663743 -3.581673 0
M  V30 33 C -0.875660 3.324315 -1.000366 0
M  V30 34 N 0.185714 2.520243 -1.228161 0
M  V30 35 C 1.718777 0.216846 0.735177 0
M  V30 36 C 1.846955 -0.983338 1.444936 0
M  V30 37 C 1.142663 -5.608160 3.499871 0
M  V30 38 C 0.523926 -5.968504 4.795133 0
M  V30 39 H -1.442582 -4.886217 6.599160 0
M  V30 40 H -1.292415 -3.550312 5.345074 0
M  V30 41 H -1.181938 -3.167298 7.068583 0
M  V30 42 H 0.963239 -3.289538 5.604115 0
M  V30 43 H 0.952614 -3.844162 7.325716 0
M  V30 44 H 2.917196 -5.049264 6.897274 0
M  V30 45 H 2.785657 -6.491841 5.750883 0
M  V30 46 H 3.048028 -3.506616 5.096209 0
M  V30 47 H 4.132372 -4.861647 4.792062 0
M  V30 48 H 3.176028 -5.449403 2.874522 0
M  V30 49 H 1.533419 -2.890438 3.319802 0
M  V30 50 H 4.081591 -2.507035 -0.607644 0
M  V30 51 H 3.842785 -0.427207 -1.813415 0
M  V30 52 H 2.843832 1.775650 -2.014695 0
M  V30 53 H 0.775185 5.387667 1.069359 0
M  V30 54 H -3.815712 4.670264 -1.016228 0
M  V30 55 H -2.461457 0.819615 -0.880257 0
M  V30 56 H -3.283699 -0.906835 -2.460692 0
M  V30 57 H -3.926823 -0.288221 -4.813282 0
M  V30 58 H -1.774135 1.547556 -6.341035 0
M  V30 59 H -2.892879 1.433029 -7.709543 0
M  V30 60 H -2.369146 3.033661 -7.194450 0
M  V30 61 H -5.049861 3.713254 -5.025180 0
M  V30 62 H -4.947059 3.734674 -6.811711 0
M  V30 63 H -3.570973 4.322574 -5.784419 0
M  V30 64 H -4.473730 0.681120 -7.029533 0
M  V30 65 H 1.036606 0.959599 1.155736 0
M  V30 66 H 1.277617 -1.117792 2.355116 0
M  V30 67 H 1.285015 -6.587933 2.939008 0
M  V30 68 H 0.381014 -5.084284 2.845792 0
M  V30 69 H -0.567864 -5.653480 4.770167 0
M  V30 70 H 0.449309 -7.072433 4.960995 0
M  V30 END ATOM
M  V30 BEGIN BOND
M  V30 1 1 1 2
M  V30 2 1 2 3
M  V30 3 1 3 4
M  V30 4 1 4 5
M  V30 5 1 5 6
M  V30 6 1 6 7
M  V30 7 1 7 8
M  V30 8 2 8 9
M  V30 9 1 8 10
M  V30 10 2 10 11
M  V30 11 1 11 12
M  V30 12 2 12 13
M  V30 13 1 13 14
M  V30 14 1 14 15
M  V30 15 2 15 16
M  V30 16 1 16 17
M  V30 17 2 17 18
M  V30 18 1 18 19
M  V30 19 1 19 20
M  V30 20 2 19 21
M  V30 21 1 21 22
M  V30 22 1 22 23
M  V30 23 2 23 24
M  V30 24 1 24 25
M  V30 25 2 25 26
M  V30 26 1 26 27
M  V30 27 1 27 28
M  V30 28 1 28 29
M  V30 29 1 28 30
M  V30 30 1 28 31
M  V30 31 2 27 32
M  V30 32 1 22 33
M  V30 33 2 33 34
M  V30 34 1 13 35
M  V30 35 2 35 36
M  V30 36 1 6 37
M  V30 37 1 37 38
M  V30 38 1 38 3
M  V30 39 1 36 10
M  V30 40 1 34 15
M  V30 41 1 33 18
M  V30 42 1 32 23
M  V30 43 1 1 39
M  V30 44 1 1 40
M  V30 45 1 1 41
M  V30 46 1 2 42
M  V30 47 1 2 43
M  V30 48 1 4 44
M  V30 49 1 4 45
M  V30 50 1 5 46
M  V30 51 1 5 47
M  V30 52 1 6 48
M  V30 53 1 7 49
M  V30 54 1 11 50
M  V30 55 1 12 51
M  V30 56 1 14 52
M  V30 57 1 17 53
M  V30 58 1 21 54
M  V30 59 1 24 55
M  V30 60 1 25 56
M  V30 61 1 26 57
M  V30 62 1 29 58
M  V30 63 1 29 59
M  V30 64 1 29 60
M  V30 65 1 30 61
M  V30 66 1 30 62
M  V30 67 1 30 63
M  V30 68 1 31 64
M  V30 69 1 35 65
M  V30 70 1 36 66
M  V30 71 1 37 67
M  V30 72 1 37 68
M  V30 73 1 38 69
M  V30 74 1 38 70
M  V30 END BOND
M  V30 END CTAB
M  END
>  <Dataset>  (947) 
ChEMBL_Kinases

>  <Ligand_Instance>  (947) 
nan

>  <PDB_ID>  (947) 
nan

>  <Standardized_SMILES>  (947) 
CCN1CCC(NC(=O)c2ccc(Nc3ncc4c(F)cn(-c5cccc(C(C)(C)O)n5)c4n3)cc2)CC1

>  <Name>  (947) 
nan

>  <Pocket>  (947) 
nan

>  <ATP_Site>  (947) 
nan

>  <Peripheral>  (947) 
nan

>  <Num_H_Atoms_ProtBoundConf>  (947) 
nan

>  <Num_Resolved_Atoms>  (947) 
nan

>  <Num_Not_Resolved_Atoms>  (947) 
nan

$$$$
CHEMBL1489182
     RDKit          3D

  0  0  0  0  0  0  0  0  0  0999 V3000
M  V30 BEGIN CTAB
M  V30 COUNTS 40 43 0 0 0
M  V30 BEGIN ATOM
M  V30 1 C 2.011501 -5.804285 1.093741 0
M  V30 2 C 2.493459 -4.978340 2.088381 0
M  V30 3 C 2.773547 -3.667296 1.746060 0
M  V30 4 C 2.591468 -3.168536 0.472048 0
M  V30 5 C 2.890736 -1.765072 0.100435 0
M  V30 6 N 1.764410 -0.870121 0.274498 0
M  V30 7 C 1.905832 0.508818 -0.039837 0
M  V30 8 N 3.084516 0.963269 -0.494877 0
M  V30 9 C 3.307496 2.249981 -0.815844 0
M  V30 10 N 2.304933 3.151594 -0.680948 0
M  V30 11 C 1.084552 2.774773 -0.228232 0
M  V30 12 C 0.033099 3.653905 -0.073567 0
M  V30 13 C -1.217179 3.293609 0.385370 0
M  V30 14 C -1.365434 1.948915 0.694453 0
M  V30 15 C -2.687004 1.520046 1.188413 0
M  V30 16 C -2.688205 0.453353 2.087623 0
M  V30 17 C -3.912040 0.002047 2.589898 0
M  V30 18 C -5.070339 0.629897 2.176067 0
M  V30 19 N -5.034367 1.660094 1.304181 0
M  V30 20 C -3.877140 2.123708 0.798163 0
M  V30 21 C -0.339739 1.037820 0.554045 0
M  V30 22 C 0.889676 1.428414 0.095685 0
M  V30 23 C 2.101228 -4.041498 -0.503421 0
M  V30 24 C 1.814732 -5.355385 -0.182885 0
M  V30 25 H 1.778924 -6.848659 1.327951 0
M  V30 26 H 2.642450 -5.354859 3.095021 0
M  V30 27 H 3.155731 -3.009600 2.532923 0
M  V30 28 H 3.214676 -1.657344 -0.950139 0
M  V30 29 H 3.724127 -1.398218 0.749415 0
M  V30 30 H 0.909733 -1.342105 0.631851 0
M  V30 31 H 4.270305 2.567061 -1.176780 0
M  V30 32 H 0.267078 4.675375 -0.345873 0
M  V30 33 H -1.983848 4.042541 0.477299 0
M  V30 34 H -1.806285 -0.043921 2.418902 0
M  V30 35 H -3.900852 -0.839372 3.298141 0
M  V30 36 H -5.976375 0.229494 2.603648 0
M  V30 37 H -3.818986 2.946731 0.098844 0
M  V30 38 H -0.538024 0.024073 0.814112 0
M  V30 39 H 1.965535 -3.632197 -1.495613 0
M  V30 40 H 1.439550 -5.957156 -1.003324 0
M  V30 END ATOM
M  V30 BEGIN BOND
M  V30 1 2 1 2
M  V30 2 1 2 3
M  V30 3 2 3 4
M  V30 4 1 4 5
M  V30 5 1 5 6
M  V30 6 1 6 7
M  V30 7 2 7 8
M  V30 8 1 8 9
M  V30 9 2 9 10
M  V30 10 1 10 11
M  V30 11 2 11 12
M  V30 12 1 12 13
M  V30 13 2 13 14
M  V30 14 1 14 15
M  V30 15 2 15 16
M  V30 16 1 16 17
M  V30 17 2 17 18
M  V30 18 1 18 19
M  V30 19 2 19 20
M  V30 20 1 14 21
M  V30 21 2 21 22
M  V30 22 1 4 23
M  V30 23 2 23 24
M  V30 24 1 24 1
M  V30 25 1 22 7
M  V30 26 1 22 11
M  V30 27 1 20 15
M  V30 28 1 1 25
M  V30 29 1 2 26
M  V30 30 1 3 27
M  V30 31 1 5 28
M  V30 32 1 5 29
M  V30 33 1 6 30
M  V30 34 1 9 31
M  V30 35 1 12 32
M  V30 36 1 13 33
M  V30 37 1 16 34
M  V30 38 1 17 35
M  V30 39 1 18 36
M  V30 40 1 20 37
M  V30 41 1 21 38
M  V30 42 1 23 39
M  V30 43 1 24 40
M  V30 END BOND
M  V30 END CTAB
M  END
>  <Dataset>  (948) 
ChEMBL_Kinases

>  <Ligand_Instance>  (948) 
nan

>  <PDB_ID>  (948) 
nan

>  <Standardized_SMILES>  (948) 
c1ccc(CNc2ncnc3ccc(-c4cccnc4)cc23)cc1

>  <Name>  (948) 
nan

>  <Pocket>  (948) 
nan

>  <ATP_Site>  (948) 
nan

>  <Peripheral>  (948) 
nan

>  <Num_H_Atoms_ProtBoundConf>  (948) 
nan

>  <Num_Resolved_Atoms>  (948) 
nan

>  <Num_Not_Resolved_Atoms>  (948) 
nan

$$$$
CHEMBL4860872
     RDKit          3D

  0  0  0  0  0  0  0  0  0  0999 V3000
M  V30 BEGIN CTAB
M  V30 COUNTS 42 45 0 0 0
M  V30 BEGIN ATOM
M  V30 1 C 0.217045 -5.957098 -0.367896 0
M  V30 2 N -0.036470 -4.594240 0.083336 0
M  V30 3 C -1.116297 -4.341946 1.022848 0
M  V30 4 C 0.750087 -3.497206 -0.374388 0
M  V30 5 N 1.760616 -3.707158 -1.243010 0
M  V30 6 C 2.552429 -2.715694 -1.722777 0
M  V30 7 C 2.292666 -1.415242 -1.282776 0
M  V30 8 N 1.286245 -1.192155 -0.415261 0
M  V30 9 C 0.842587 -0.049403 0.148238 0
M  V30 10 C 1.345448 1.308417 -0.028203 0
M  V30 11 C 0.762827 2.433004 -0.572158 0
M  V30 12 C 1.487822 3.605021 -0.606599 0
M  V30 13 N 2.755478 3.669070 -0.117812 0
M  V30 14 C 3.312028 2.553796 0.413109 0
M  V30 15 N 4.646767 2.674303 0.913309 0
M  V30 16 N 2.620736 1.403944 0.454941 0
M  V30 17 C -0.223731 -0.321067 0.978546 0
M  V30 18 C -1.095613 0.478254 1.832273 0
M  V30 19 C -2.015646 1.458413 1.529799 0
M  V30 20 C -2.730277 2.084585 2.514764 0
M  V30 21 C -2.548905 1.749045 3.855466 0
M  V30 22 C -1.635603 0.774313 4.169755 0
M  V30 23 C -0.908358 0.136010 3.178246 0
M  V30 24 N -0.387759 -1.671207 0.879254 0
M  V30 25 C 0.522740 -2.198477 0.038511 0
M  V30 26 H -0.699911 -6.511962 -0.618470 0
M  V30 27 H 0.925263 -5.916689 -1.241770 0
M  V30 28 H 0.790287 -6.483753 0.424672 0
M  V30 29 H -0.651623 -3.911091 1.955873 0
M  V30 30 H -1.835288 -3.603486 0.641737 0
M  V30 31 H -1.664123 -5.264131 1.253680 0
M  V30 32 H 3.350249 -2.957813 -2.421900 0
M  V30 33 H 2.907919 -0.598548 -1.647285 0
M  V30 34 H -0.224314 2.238954 -0.915066 0
M  V30 35 H 0.965122 4.437895 -1.045914 0
M  V30 36 H 5.541139 2.609023 0.365573 0
M  V30 37 H 4.388032 2.833171 1.916685 0
M  V30 38 H -2.071922 1.631393 0.469510 0
M  V30 39 H -3.421460 2.831654 2.190113 0
M  V30 40 H -3.124167 2.255515 4.622965 0
M  V30 41 H -1.538868 0.557129 5.229196 0
M  V30 42 H -0.228304 -0.607091 3.570598 0
M  V30 END ATOM
M  V30 BEGIN BOND
M  V30 1 1 1 2
M  V30 2 1 2 3
M  V30 3 1 2 4
M  V30 4 2 4 5
M  V30 5 1 5 6
M  V30 6 2 6 7
M  V30 7 1 7 8
M  V30 8 1 8 9
M  V30 9 1 9 10
M  V30 10 2 10 11
M  V30 11 1 11 12
M  V30 12 2 12 13
M  V30 13 1 13 14
M  V30 14 1 14 15
M  V30 15 2 14 16
M  V30 16 2 9 17
M  V30 17 1 17 18
M  V30 18 2 18 19
M  V30 19 1 19 20
M  V30 20 2 20 21
M  V30 21 1 21 22
M  V30 22 2 22 23
M  V30 23 1 17 24
M  V30 24 2 24 25
M  V30 25 1 25 4
M  V30 26 1 25 8
M  V30 27 1 16 10
M  V30 28 1 23 18
M  V30 29 1 1 26
M  V30 30 1 1 27
M  V30 31 1 1 28
M  V30 32 1 3 29
M  V30 33 1 3 30
M  V30 34 1 3 31
M  V30 35 1 6 32
M  V30 36 1 7 33
M  V30 37 1 11 34
M  V30 38 1 12 35
M  V30 39 1 15 36
M  V30 40 1 15 37
M  V30 41 1 19 38
M  V30 42 1 20 39
M  V30 43 1 21 40
M  V30 44 1 22 41
M  V30 45 1 23 42
M  V30 END BOND
M  V30 END CTAB
M  END
>  <Dataset>  (949) 
ChEMBL_Kinases

>  <Ligand_Instance>  (949) 
nan

>  <PDB_ID>  (949) 
nan

>  <Standardized_SMILES>  (949) 
CN(C)c1nccn2c(-c3ccnc(N)n3)c(-c3ccccc3)nc12

>  <Name>  (949) 
nan

>  <Pocket>  (949) 
nan

>  <ATP_Site>  (949) 
nan

>  <Peripheral>  (949) 
nan

>  <Num_H_Atoms_ProtBoundConf>  (949) 
nan

>  <Num_Resolved_Atoms>  (949) 
nan

>  <Num_Not_Resolved_Atoms>  (949) 
nan

$$$$
CHEMBL4864827
     RDKit          3D

  0  0  0  0  0  0  0  0  0  0999 V3000
M  V30 BEGIN CTAB
M  V30 COUNTS 70 76 0 0 0
M  V30 BEGIN ATOM
M  V30 1 O -0.745633 -3.636437 1.464024 0
M  V30 2 C 0.279792 -3.301089 2.171611 0
M  V30 3 C 1.133057 -3.095315 1.033894 0
M  V30 4 C 1.163842 -1.710629 1.052875 0
M  V30 5 C 1.890550 -1.057124 0.033697 0
M  V30 6 C 2.521203 -1.885118 -0.915517 0
M  V30 7 C 3.120375 -1.214846 -2.079098 0
M  V30 8 C 4.197044 -1.358576 -2.874385 0
M  V30 9 C 4.322581 -0.547405 -3.990492 0
M  V30 10 C 3.407221 0.423856 -4.367304 0
M  V30 11 N 3.311803 1.283625 -5.395061 0
M  V30 12 C 2.179660 1.981714 -5.277557 0
M  V30 13 C 1.490018 1.598001 -4.156609 0
M  V30 14 C 0.226977 1.726380 -3.388194 0
M  V30 15 C 0.007378 2.093112 -2.086216 0
M  V30 16 C -1.239496 1.943386 -1.571373 0
M  V30 17 C -2.285405 1.443484 -2.292600 0
M  V30 18 C -3.520914 1.292466 -1.672658 0
M  V30 19 N -4.571805 0.767160 -2.361664 0
M  V30 20 C -4.391769 0.403858 -3.632368 0
M  V30 21 C -3.177373 0.544124 -4.264340 0
M  V30 22 C -2.096408 1.068093 -3.603616 0
M  V30 23 C -0.831936 1.214181 -4.150513 0
M  V30 24 N 2.289800 0.624041 -3.610194 0
M  V30 25 C 2.248128 -0.213559 -2.531921 0
M  V30 26 C 2.450812 -3.260318 -0.865697 0
M  V30 27 C 1.737676 -3.923237 0.134173 0
M  V30 28 N -0.411461 -3.458098 3.324863 0
M  V30 29 C -1.818113 -3.877479 3.272652 0
M  V30 30 C -2.539383 -2.499020 3.278636 0
M  V30 31 C -1.910945 -1.600228 4.291743 0
M  V30 32 N -1.072355 -0.583030 3.677421 0
M  V30 33 C -1.739951 0.189673 2.712328 0
M  V30 34 C -1.473152 1.646427 2.615547 0
M  V30 35 O -0.887761 2.200886 3.754265 0
M  V30 36 C 0.242688 1.421761 4.070316 0
M  V30 37 C -0.309644 0.138488 4.628498 0
M  V30 38 C -1.138657 -2.384122 5.334716 0
M  V30 39 C -0.061276 -3.254103 4.717352 0
M  V30 40 H 0.763454 -0.910078 1.656939 0
M  V30 41 H 2.043411 0.012545 -0.106233 0
M  V30 42 H 4.841928 -2.131028 -2.512976 0
M  V30 43 H 5.205808 -0.711417 -4.586211 0
M  V30 44 H 1.652487 2.765427 -5.823093 0
M  V30 45 H 0.925410 2.468349 -1.633690 0
M  V30 46 H -1.346099 2.247622 -0.536141 0
M  V30 47 H -3.659517 1.591510 -0.634966 0
M  V30 48 H -5.205788 -0.037932 -4.231090 0
M  V30 49 H -3.043524 0.248110 -5.285780 0
M  V30 50 H -0.797030 0.897928 -5.168774 0
M  V30 51 H 1.332970 -0.022588 -1.949459 0
M  V30 52 H 2.932186 -3.912287 -1.582347 0
M  V30 53 H 1.559225 -4.941421 0.340278 0
M  V30 54 H -2.101512 -4.407956 2.372981 0
M  V30 55 H -2.131130 -4.381598 4.202178 0
M  V30 56 H -3.630591 -2.614843 3.381963 0
M  V30 57 H -2.334852 -2.115016 2.254262 0
M  V30 58 H -2.717698 -1.054214 4.822736 0
M  V30 59 H -1.552232 -0.234258 1.681314 0
M  V30 60 H -2.865181 0.093712 2.885389 0
M  V30 61 H -0.690149 1.800815 1.812060 0
M  V30 62 H -2.363802 2.209892 2.335119 0
M  V30 63 H 0.776519 1.283004 3.118027 0
M  V30 64 H 0.869529 1.925722 4.803426 0
M  V30 65 H 0.545000 -0.495581 4.960047 0
M  V30 66 H -0.927502 0.459980 5.523042 0
M  V30 67 H -1.906791 -2.998160 5.863419 0
M  V30 68 H -0.671155 -1.723903 6.051384 0
M  V30 69 H -0.148662 -4.237459 5.221195 0
M  V30 70 H 0.929889 -2.854184 4.902272 0
M  V30 END ATOM
M  V30 BEGIN BOND
M  V30 1 2 1 2
M  V30 2 1 2 3
M  V30 3 2 3 4
M  V30 4 1 4 5
M  V30 5 2 5 6
M  V30 6 1 6 7
M  V30 7 1 7 8
M  V30 8 2 8 9
M  V30 9 1 9 10
M  V30 10 2 10 11
M  V30 11 1 11 12
M  V30 12 2 12 13
M  V30 13 1 13 14
M  V30 14 2 14 15
M  V30 15 1 15 16
M  V30 16 2 16 17
M  V30 17 1 17 18
M  V30 18 2 18 19
M  V30 19 1 19 20
M  V30 20 2 20 21
M  V30 21 1 21 22
M  V30 22 2 22 23
M  V30 23 1 13 24
M  V30 24 1 24 25
M  V30 25 1 6 26
M  V30 26 2 26 27
M  V30 27 1 2 28
M  V30 28 1 28 29
M  V30 29 1 29 30
M  V30 30 1 30 31
M  V30 31 1 31 32
M  V30 32 1 32 33
M  V30 33 1 33 34
M  V30 34 1 34 35
M  V30 35 1 35 36
M  V30 36 1 36 37
M  V30 37 1 31 38
M  V30 38 1 38 39
M  V30 39 1 27 3
M  V30 40 1 39 28
M  V30 41 2 25 7
M  V30 42 1 37 32
M  V30 43 1 24 10
M  V30 44 1 23 14
M  V30 45 1 22 17
M  V30 46 1 4 40
M  V30 47 1 5 41
M  V30 48 1 8 42
M  V30 49 1 9 43
M  V30 50 1 12 44
M  V30 51 1 15 45
M  V30 52 1 16 46
M  V30 53 1 18 47
M  V30 54 1 20 48
M  V30 55 1 21 49
M  V30 56 1 23 50
M  V30 57 1 25 51
M  V30 58 1 26 52
M  V30 59 1 27 53
M  V30 60 1 29 54
M  V30 61 1 29 55
M  V30 62 1 30 56
M  V30 63 1 30 57
M  V30 64 1 31 58
M  V30 65 1 33 59
M  V30 66 1 33 60
M  V30 67 1 34 61
M  V30 68 1 34 62
M  V30 69 1 36 63
M  V30 70 1 36 64
M  V30 71 1 37 65
M  V30 72 1 37 66
M  V30 73 1 38 67
M  V30 74 1 38 68
M  V30 75 1 39 69
M  V30 76 1 39 70
M  V30 END BOND
M  V30 END CTAB
M  END
>  <Dataset>  (950) 
ChEMBL_Kinases

>  <Ligand_Instance>  (950) 
nan

>  <PDB_ID>  (950) 
nan

>  <Standardized_SMILES>  (950) 
O=C(c1ccc(-c2ccc3ncc(-c4ccc5cnccc5c4)n3c2)cc1)N1CCC(N2CCOCC2)CC1

>  <Name>  (950) 
nan

>  <Pocket>  (950) 
nan

>  <ATP_Site>  (950) 
nan

>  <Peripheral>  (950) 
nan

>  <Num_H_Atoms_ProtBoundConf>  (950) 
nan

>  <Num_Resolved_Atoms>  (950) 
nan

>  <Num_Not_Resolved_Atoms>  (950) 
nan

$$$$
CHEMBL4851812
     RDKit          3D

  0  0  0  0  0  0  0  0  0  0999 V3000
M  V30 BEGIN CTAB
M  V30 COUNTS 51 53 0 0 0
M  V30 BEGIN ATOM
M  V30 1 N 1.561293 -2.067156 5.316503 0
M  V30 2 C 1.603680 -1.678102 4.225134 0
M  V30 3 C 1.657426 -1.181805 2.876971 0
M  V30 4 C 2.902029 -0.955514 2.373604 0
M  V30 5 N 2.968905 -0.487837 1.108349 0
M  V30 6 C 1.834268 -0.260036 0.390136 0
M  V30 7 N 1.917089 0.252352 -0.913895 0
M  V30 8 C 1.972419 1.295527 -1.902441 0
M  V30 9 C 3.142034 2.182361 -1.706001 0
M  V30 10 C 4.276965 1.871496 -2.438937 0
M  V30 11 N 5.447861 2.541620 -2.373252 0
M  V30 12 C 5.596786 3.614359 -1.545739 0
M  V30 13 C 4.462333 3.922531 -0.816315 0
M  V30 14 C 3.230377 3.256529 -0.853686 0
M  V30 15 C 2.082952 3.685953 -0.057407 0
M  V30 16 F 1.596238 2.774435 0.842189 0
M  V30 17 F 2.503208 4.774381 0.692885 0
M  V30 18 F 1.050938 4.194475 -0.848051 0
M  V30 19 C 0.597462 -0.507135 0.950692 0
M  V30 20 C 0.446233 -0.991677 2.252792 0
M  V30 21 N -0.808888 -1.238721 2.861421 0
M  V30 22 C -2.133999 -1.096828 2.317153 0
M  V30 23 C -2.445514 -2.105831 1.258359 0 CFG=1
M  V30 24 C -2.321723 -3.494429 1.888369 0
M  V30 25 C -3.684002 -4.129039 2.096818 0
M  V30 26 C -4.437323 -4.343861 0.817768 0 CFG=2
M  V30 27 O -4.092326 -5.553489 0.212491 0
M  V30 28 C -4.127348 -3.200430 -0.122368 0
M  V30 29 C -3.870548 -1.989527 0.758072 0
M  V30 30 H 3.793246 -1.137938 2.951081 0
M  V30 31 H 1.956074 -0.733043 -1.328200 0
M  V30 32 H 2.032535 0.840605 -2.930091 0
M  V30 33 H 1.016027 1.867465 -1.818075 0
M  V30 34 H 4.311539 1.046292 -3.138779 0
M  V30 35 H 6.469759 4.220204 -1.409681 0
M  V30 36 H 4.508863 4.762153 -0.137574 0
M  V30 37 H -0.264905 -0.298924 0.344198 0
M  V30 38 H -0.720301 -1.576358 3.865388 0
M  V30 39 H -2.265952 -0.040774 1.931680 0
M  V30 40 H -2.857975 -1.163754 3.161810 0
M  V30 41 H -1.802465 -2.033446 0.369300 0
M  V30 42 H -1.844820 -3.438932 2.884166 0
M  V30 43 H -1.769308 -4.130840 1.186717 0
M  V30 44 H -4.311293 -3.585115 2.834618 0
M  V30 45 H -3.492111 -5.126241 2.535877 0
M  V30 46 H -5.533617 -4.322919 1.000360 0
M  V30 47 H -3.200343 -5.849023 0.518907 0
M  V30 48 H -3.174373 -3.455895 -0.647737 0
M  V30 49 H -4.909203 -3.015225 -0.858552 0
M  V30 50 H -4.035309 -1.099127 0.138033 0
M  V30 51 H -4.587188 -1.940475 1.609604 0
M  V30 END ATOM
M  V30 BEGIN BOND
M  V30 1 3 1 2
M  V30 2 1 2 3
M  V30 3 2 3 4
M  V30 4 1 4 5
M  V30 5 2 5 6
M  V30 6 1 6 7
M  V30 7 1 7 8
M  V30 8 1 8 9
M  V30 9 2 9 10
M  V30 10 1 10 11
M  V30 11 2 11 12
M  V30 12 1 12 13
M  V30 13 2 13 14
M  V30 14 1 14 15
M  V30 15 1 15 16
M  V30 16 1 15 17
M  V30 17 1 15 18
M  V30 18 1 6 19
M  V30 19 2 19 20
M  V30 20 1 20 21
M  V30 21 1 21 22
M  V30 22 1 22 23
M  V30 23 1 23 24
M  V30 24 1 24 25
M  V30 25 1 25 26
M  V30 26 1 26 27
M  V30 27 1 26 28
M  V30 28 1 28 29
M  V30 29 1 20 3
M  V30 30 1 29 23
M  V30 31 1 14 9
M  V30 32 1 4 30
M  V30 33 1 7 31
M  V30 34 1 8 32
M  V30 35 1 8 33
M  V30 36 1 10 34
M  V30 37 1 12 35
M  V30 38 1 13 36
M  V30 39 1 19 37
M  V30 40 1 21 38
M  V30 41 1 22 39
M  V30 42 1 22 40
M  V30 43 1 23 41 CFG=3
M  V30 44 1 24 42
M  V30 45 1 24 43
M  V30 46 1 25 44
M  V30 47 1 25 45
M  V30 48 1 26 46 CFG=1
M  V30 49 1 27 47
M  V30 50 1 28 48
M  V30 51 1 28 49
M  V30 52 1 29 50
M  V30 53 1 29 51
M  V30 END BOND
M  V30 END CTAB
M  END
>  <Dataset>  (951) 
ChEMBL_Kinases

>  <Ligand_Instance>  (951) 
nan

>  <PDB_ID>  (951) 
nan

>  <Standardized_SMILES>  (951) 
N#Cc1cnc(NCc2cnccc2C(F)(F)F)cc1NC[C@H]1CC[C@H](O)CC1

>  <Name>  (951) 
nan

>  <Pocket>  (951) 
nan

>  <ATP_Site>  (951) 
nan

>  <Peripheral>  (951) 
nan

>  <Num_H_Atoms_ProtBoundConf>  (951) 
nan

>  <Num_Resolved_Atoms>  (951) 
nan

>  <Num_Not_Resolved_Atoms>  (951) 
nan

$$$$
CHEMBL4870192
     RDKit          3D

  0  0  0  0  0  0  0  0  0  0999 V3000
M  V30 BEGIN CTAB
M  V30 COUNTS 57 59 0 0 0
M  V30 BEGIN ATOM
M  V30 1 C 2.639339 -0.131692 3.345426 0
M  V30 2 N 3.715979 -0.909219 2.734638 0
M  V30 3 C 4.729730 -1.254512 3.742894 0
M  V30 4 C 3.959031 -1.373985 1.413055 0
M  V30 5 O 4.962154 -2.050380 1.057792 0
M  V30 6 C 2.945947 -1.020925 0.417810 0 CFG=1
M  V30 7 C 2.848924 0.466691 0.286686 0
M  V30 8 C 1.518309 0.844175 -0.376535 0
M  V30 9 C 1.255421 -0.205141 -1.401820 0 CFG=1
M  V30 10 N 0.250720 0.142295 -2.377703 0
M  V30 11 C -1.142108 0.378397 -2.256946 0
M  V30 12 C -1.858751 0.290842 -1.085673 0
M  V30 13 C -3.209370 0.519806 -0.935520 0
M  V30 14 N -3.903359 0.403654 0.300552 0
M  V30 15 C -3.511118 -0.027499 1.612009 0
M  V30 16 C -3.100149 -1.424629 1.684234 0
M  V30 17 C -1.765375 -1.824241 1.829149 0
M  V30 18 N -1.316975 -3.085588 1.929008 0
M  V30 19 C -2.174910 -4.138793 1.895348 0
M  V30 20 C -3.493943 -3.773786 1.753569 0
M  V30 21 C -4.011223 -2.487357 1.645881 0
M  V30 22 C -5.453410 -2.260851 1.487941 0
M  V30 23 F -6.074272 -3.523068 1.528998 0
M  V30 24 F -6.013533 -1.527634 2.512453 0
M  V30 25 F -5.782111 -1.778739 0.231903 0
M  V30 26 N -3.844872 0.855194 -2.051891 0
M  V30 27 C -3.210669 0.958956 -3.225765 0
M  V30 28 C -1.867870 0.732464 -3.382557 0
M  V30 29 C -1.238746 0.858294 -4.667582 0
M  V30 30 N -0.718799 0.972474 -5.694024 0
M  V30 31 C 2.546627 -0.660446 -2.019005 0
M  V30 32 C 3.244495 -1.550457 -0.980203 0
M  V30 33 H 2.332619 -0.604812 4.324101 0
M  V30 34 H 1.706140 -0.144204 2.745956 0
M  V30 35 H 2.917806 0.903544 3.568722 0
M  V30 36 H 4.191893 -1.712866 4.619983 0
M  V30 37 H 5.170102 -0.319148 4.127148 0
M  V30 38 H 5.460528 -1.982992 3.388558 0
M  V30 39 H 1.996339 -1.489544 0.754201 0
M  V30 40 H 3.626550 0.783830 -0.467850 0
M  V30 41 H 3.066732 1.046505 1.179947 0
M  V30 42 H 0.787260 0.924165 0.437599 0
M  V30 43 H 1.592211 1.842276 -0.859145 0
M  V30 44 H 0.842436 -1.138524 -0.905161 0
M  V30 45 H 0.659295 0.231798 -3.354423 0
M  V30 46 H -1.269252 0.020232 -0.247374 0
M  V30 47 H -4.926674 0.716767 0.224971 0
M  V30 48 H -4.352470 0.217144 2.312238 0
M  V30 49 H -2.601633 0.577167 1.902587 0
M  V30 50 H -0.975801 -1.059026 1.870842 0
M  V30 51 H -1.893088 -5.175526 1.969393 0
M  V30 52 H -4.208104 -4.610344 1.723898 0
M  V30 53 H -3.786544 1.237720 -4.107604 0
M  V30 54 H 2.315083 -1.326830 -2.871172 0
M  V30 55 H 3.184959 0.156444 -2.365287 0
M  V30 56 H 4.340565 -1.411869 -1.137034 0
M  V30 57 H 2.959951 -2.609959 -1.098124 0
M  V30 END ATOM
M  V30 BEGIN BOND
M  V30 1 1 1 2
M  V30 2 1 2 3
M  V30 3 1 2 4
M  V30 4 2 4 5
M  V30 5 1 4 6
M  V30 6 1 6 7
M  V30 7 1 7 8
M  V30 8 1 8 9
M  V30 9 1 9 10
M  V30 10 1 10 11
M  V30 11 2 11 12
M  V30 12 1 12 13
M  V30 13 1 13 14
M  V30 14 1 14 15
M  V30 15 1 15 16
M  V30 16 2 16 17
M  V30 17 1 17 18
M  V30 18 2 18 19
M  V30 19 1 19 20
M  V30 20 2 20 21
M  V30 21 1 21 22
M  V30 22 1 22 23
M  V30 23 1 22 24
M  V30 24 1 22 25
M  V30 25 2 13 26
M  V30 26 1 26 27
M  V30 27 2 27 28
M  V30 28 1 28 29
M  V30 29 3 29 30
M  V30 30 1 9 31
M  V30 31 1 31 32
M  V30 32 1 32 6
M  V30 33 1 28 11
M  V30 34 1 21 16
M  V30 35 1 1 33
M  V30 36 1 1 34
M  V30 37 1 1 35
M  V30 38 1 3 36
M  V30 39 1 3 37
M  V30 40 1 3 38
M  V30 41 1 6 39 CFG=1
M  V30 42 1 7 40
M  V30 43 1 7 41
M  V30 44 1 8 42
M  V30 45 1 8 43
M  V30 46 1 9 44 CFG=1
M  V30 47 1 10 45
M  V30 48 1 12 46
M  V30 49 1 14 47
M  V30 50 1 15 48
M  V30 51 1 15 49
M  V30 52 1 17 50
M  V30 53 1 19 51
M  V30 54 1 20 52
M  V30 55 1 27 53
M  V30 56 1 31 54
M  V30 57 1 31 55
M  V30 58 1 32 56
M  V30 59 1 32 57
M  V30 END BOND
M  V30 END CTAB
M  END
>  <Dataset>  (952) 
ChEMBL_Kinases

>  <Ligand_Instance>  (952) 
nan

>  <PDB_ID>  (952) 
nan

>  <Standardized_SMILES>  (952) 
CN(C)C(=O)[C@H]1CC[C@@H](Nc2cc(NCc3cnccc3C(F)(F)F)ncc2C#N)CC1

>  <Name>  (952) 
nan

>  <Pocket>  (952) 
nan

>  <ATP_Site>  (952) 
nan

>  <Peripheral>  (952) 
nan

>  <Num_H_Atoms_ProtBoundConf>  (952) 
nan

>  <Num_Resolved_Atoms>  (952) 
nan

>  <Num_Not_Resolved_Atoms>  (952) 
nan

$$$$
CHEMBL4851892
     RDKit          3D

  0  0  0  0  0  0  0  0  0  0999 V3000
M  V30 BEGIN CTAB
M  V30 COUNTS 51 55 0 0 0
M  V30 BEGIN ATOM
M  V30 1 O 1.773792 -4.682715 3.787657 0
M  V30 2 C 2.647343 -3.906704 3.329306 0
M  V30 3 O 3.844129 -4.004614 4.012301 0
M  V30 4 C 2.487720 -2.976911 2.202782 0
M  V30 5 C 3.602146 -2.185403 1.898783 0
M  V30 6 C 3.625678 -1.247381 0.892175 0
M  V30 7 C 2.486748 -1.069263 0.131453 0
M  V30 8 C 2.469667 -0.085969 -0.948387 0
M  V30 9 C 3.414740 0.145116 -1.947980 0
M  V30 10 N 2.955478 1.155454 -2.717539 0
M  V30 11 N 1.788756 1.578129 -2.275098 0
M  V30 12 C 0.999237 2.570318 -2.764112 0
M  V30 13 C -0.193385 2.865432 -2.156751 0
M  V30 14 C -0.593470 2.139787 -1.030783 0
M  V30 15 C -1.855553 2.397124 -0.325740 0
M  V30 16 C -1.870722 2.152007 1.052010 0
M  V30 17 C -3.019653 2.364587 1.810973 0
M  V30 18 C -4.171302 2.827390 1.194572 0
M  V30 19 C -4.146580 3.065546 -0.160246 0
M  V30 20 C -3.020650 2.860233 -0.920910 0
M  V30 21 C 0.253203 1.147288 -0.586642 0
M  V30 22 C 1.461565 0.846802 -1.200563 0
M  V30 23 C 1.399187 -1.858447 0.445601 0
M  V30 24 C 1.338576 -2.807910 1.445367 0
M  V30 25 C 0.177922 -3.641597 1.740178 0
M  V30 26 C -0.635817 -3.244177 2.899072 0
M  V30 27 C -1.910184 -2.637188 2.426210 0
M  V30 28 C -1.939081 -2.748824 0.943288 0
M  V30 29 C -0.836586 -3.717254 0.620950 0
M  V30 30 H 4.088731 -4.894872 4.425287 0
M  V30 31 H 4.525154 -2.288833 2.471194 0
M  V30 32 H 4.526874 -0.662504 0.706454 0
M  V30 33 H 4.332896 -0.412335 -2.045289 0
M  V30 34 H 1.275963 3.147678 -3.627545 0
M  V30 35 H -0.852101 3.639075 -2.504775 0
M  V30 36 H -1.027294 1.791636 1.619756 0
M  V30 37 H -3.035294 2.174780 2.886281 0
M  V30 38 H -5.037536 2.976415 1.827180 0
M  V30 39 H -5.047921 3.427542 -0.640353 0
M  V30 40 H -2.965862 3.036753 -1.987699 0
M  V30 41 H -0.055603 0.598040 0.271874 0
M  V30 42 H 0.542854 -1.671544 -0.188326 0
M  V30 43 H 0.579296 -4.693855 1.875120 0
M  V30 44 H -0.178963 -2.573900 3.643066 0
M  V30 45 H -0.923433 -4.164649 3.487494 0
M  V30 46 H -2.814066 -3.105687 2.867122 0
M  V30 47 H -1.957391 -1.535666 2.662704 0
M  V30 48 H -2.877774 -3.225474 0.567673 0
M  V30 49 H -1.732030 -1.794598 0.428440 0
M  V30 50 H -0.426324 -3.432639 -0.370664 0
M  V30 51 H -1.225379 -4.762922 0.551738 0
M  V30 END ATOM
M  V30 BEGIN BOND
M  V30 1 2 1 2
M  V30 2 1 2 3
M  V30 3 1 2 4
M  V30 4 2 4 5
M  V30 5 1 5 6
M  V30 6 2 6 7
M  V30 7 1 7 8
M  V30 8 1 8 9
M  V30 9 2 9 10
M  V30 10 1 10 11
M  V30 11 1 11 12
M  V30 12 2 12 13
M  V30 13 1 13 14
M  V30 14 1 14 15
M  V30 15 2 15 16
M  V30 16 1 16 17
M  V30 17 2 17 18
M  V30 18 1 18 19
M  V30 19 2 19 20
M  V30 20 2 14 21
M  V30 21 1 21 22
M  V30 22 1 7 23
M  V30 23 2 23 24
M  V30 24 1 24 25
M  V30 25 1 25 26
M  V30 26 1 26 27
M  V30 27 1 27 28
M  V30 28 1 28 29
M  V30 29 1 24 4
M  V30 30 1 29 25
M  V30 31 2 22 8
M  V30 32 1 22 11
M  V30 33 1 20 15
M  V30 34 1 3 30
M  V30 35 1 5 31
M  V30 36 1 6 32
M  V30 37 1 9 33
M  V30 38 1 12 34
M  V30 39 1 13 35
M  V30 40 1 16 36
M  V30 41 1 17 37
M  V30 42 1 18 38
M  V30 43 1 19 39
M  V30 44 1 20 40
M  V30 45 1 21 41
M  V30 46 1 23 42
M  V30 47 1 25 43
M  V30 48 1 26 44
M  V30 49 1 26 45
M  V30 50 1 27 46
M  V30 51 1 27 47
M  V30 52 1 28 48
M  V30 53 1 28 49
M  V30 54 1 29 50
M  V30 55 1 29 51
M  V30 END BOND
M  V30 END CTAB
M  END
>  <Dataset>  (953) 
ChEMBL_Kinases

>  <Ligand_Instance>  (953) 
nan

>  <PDB_ID>  (953) 
nan

>  <Standardized_SMILES>  (953) 
O=C(O)c1ccc(-c2cnn3ccc(-c4ccccc4)cc23)cc1C1CCCC1

>  <Name>  (953) 
nan

>  <Pocket>  (953) 
nan

>  <ATP_Site>  (953) 
nan

>  <Peripheral>  (953) 
nan

>  <Num_H_Atoms_ProtBoundConf>  (953) 
nan

>  <Num_Resolved_Atoms>  (953) 
nan

>  <Num_Not_Resolved_Atoms>  (953) 
nan

$$$$
CHEMBL4870064
     RDKit          3D

  0  0  0  0  0  0  0  0  0  0999 V3000
M  V30 BEGIN CTAB
M  V30 COUNTS 44 46 0 0 0
M  V30 BEGIN ATOM
M  V30 1 C -0.712181 -5.952020 3.636581 0
M  V30 2 O -0.789398 -5.373835 2.359073 0
M  V30 3 C -0.726174 -4.024009 2.101958 0
M  V30 4 C -0.836022 -3.737714 0.735756 0
M  V30 5 C -0.787176 -2.392774 0.341142 0
M  V30 6 C -0.636980 -1.342755 1.228180 0
M  V30 7 N -0.603785 0.024817 0.754630 0
M  V30 8 C -0.727860 0.347110 -0.642996 0
M  V30 9 C 0.128172 0.892728 -1.472364 0
M  V30 10 C 1.487533 1.405920 -1.447454 0
M  V30 11 C 2.346707 1.015411 -2.468334 0
M  V30 12 C 3.650468 1.434087 -2.570497 0
M  V30 13 C 4.116876 2.293488 -1.593288 0
M  V30 14 C 3.342039 2.735386 -0.545998 0
M  V30 15 C 2.043422 2.278324 -0.500558 0
M  V30 16 O 1.126706 2.614196 0.470706 0
M  V30 17 C 1.330213 3.455917 1.558956 0
M  V30 18 C -0.599865 0.968517 -2.763801 0
M  V30 19 O -0.220878 1.418096 -3.903801 0
M  V30 20 N -1.921139 0.429577 -2.605531 0
M  V30 21 C -2.016675 0.024589 -1.239194 0
M  V30 22 O -3.061129 -0.480437 -0.820333 0
M  V30 23 C -0.530159 -1.647164 2.569553 0
M  V30 24 O -0.381537 -0.606432 3.429811 0
M  V30 25 C -0.254983 -0.673185 4.818647 0
M  V30 26 C -0.578028 -2.966023 2.956358 0
M  V30 27 H 0.295535 -6.387639 3.807537 0
M  V30 28 H -0.855164 -5.187785 4.426167 0
M  V30 29 H -1.455306 -6.787555 3.741299 0
M  V30 30 H -0.956856 -4.495313 -0.041043 0
M  V30 31 H -0.873910 -2.200711 -0.740560 0
M  V30 32 H -0.493933 0.743365 1.507484 0
M  V30 33 H 2.024009 0.341802 -3.257542 0
M  V30 34 H 4.303570 1.105450 -3.393230 0
M  V30 35 H 5.145048 2.669875 -1.607471 0
M  V30 36 H 3.680678 3.406775 0.226734 0
M  V30 37 H 2.406368 3.389697 1.823161 0
M  V30 38 H 0.750148 3.057942 2.421515 0
M  V30 39 H 1.059050 4.514616 1.354067 0
M  V30 40 H -2.648196 0.362081 -3.371754 0
M  V30 41 H 0.050327 -1.673289 5.130387 0
M  V30 42 H -1.254892 -0.459533 5.263466 0
M  V30 43 H 0.531957 0.033235 5.205549 0
M  V30 44 H -0.498713 -3.245650 3.994620 0
M  V30 END ATOM
M  V30 BEGIN BOND
M  V30 1 1 1 2
M  V30 2 1 2 3
M  V30 3 2 3 4
M  V30 4 1 4 5
M  V30 5 2 5 6
M  V30 6 1 6 7
M  V30 7 1 7 8
M  V30 8 2 8 9
M  V30 9 1 9 10
M  V30 10 2 10 11
M  V30 11 1 11 12
M  V30 12 2 12 13
M  V30 13 1 13 14
M  V30 14 2 14 15
M  V30 15 1 15 16
M  V30 16 1 16 17
M  V30 17 1 9 18
M  V30 18 2 18 19
M  V30 19 1 18 20
M  V30 20 1 20 21
M  V30 21 2 21 22
M  V30 22 1 6 23
M  V30 23 1 23 24
M  V30 24 1 24 25
M  V30 25 2 23 26
M  V30 26 1 26 3
M  V30 27 1 21 8
M  V30 28 1 15 10
M  V30 29 1 1 27
M  V30 30 1 1 28
M  V30 31 1 1 29
M  V30 32 1 4 30
M  V30 33 1 5 31
M  V30 34 1 7 32
M  V30 35 1 11 33
M  V30 36 1 12 34
M  V30 37 1 13 35
M  V30 38 1 14 36
M  V30 39 1 17 37
M  V30 40 1 17 38
M  V30 41 1 17 39
M  V30 42 1 20 40
M  V30 43 1 25 41
M  V30 44 1 25 42
M  V30 45 1 25 43
M  V30 46 1 26 44
M  V30 END BOND
M  V30 END CTAB
M  END
>  <Dataset>  (954) 
ChEMBL_Kinases

>  <Ligand_Instance>  (954) 
nan

>  <PDB_ID>  (954) 
nan

>  <Standardized_SMILES>  (954) 
COc1ccc(NC2=C(c3ccccc3OC)C(=O)NC2=O)c(OC)c1

>  <Name>  (954) 
nan

>  <Pocket>  (954) 
nan

>  <ATP_Site>  (954) 
nan

>  <Peripheral>  (954) 
nan

>  <Num_H_Atoms_ProtBoundConf>  (954) 
nan

>  <Num_Resolved_Atoms>  (954) 
nan

>  <Num_Not_Resolved_Atoms>  (954) 
nan

$$$$
CHEMBL4851925
     RDKit          3D

  0  0  0  0  0  0  0  0  0  0999 V3000
M  V30 BEGIN CTAB
M  V30 COUNTS 41 44 0 0 0
M  V30 BEGIN ATOM
M  V30 1 O -2.410593 -3.280685 3.258041 0
M  V30 2 C -2.064927 -3.419112 2.061466 0
M  V30 3 O -2.804043 -4.473587 1.587487 0
M  V30 4 C -1.103856 -2.687292 1.241495 0
M  V30 5 C -0.987394 -3.110854 -0.070728 0
M  V30 6 C -0.144096 -2.540918 -0.996330 0
M  V30 7 C 0.626352 -1.478527 -0.564905 0
M  V30 8 C 1.522245 -0.873388 -1.549329 0
M  V30 9 C 2.340867 -1.580602 -2.422129 0
M  V30 10 N 3.018666 -0.693872 -3.175792 0
M  V30 11 N 2.684958 0.548042 -2.840032 0
M  V30 12 C 3.074085 1.762466 -3.287638 0
M  V30 13 C 2.562811 2.935651 -2.758032 0
M  V30 14 C 1.623455 2.858651 -1.737823 0
M  V30 15 C 1.257688 1.593041 -1.314457 0
M  V30 16 C 1.776207 0.456089 -1.852675 0
M  V30 17 C 0.509375 -1.056726 0.744891 0
M  V30 18 C -0.335357 -1.626899 1.674747 0
M  V30 19 C -0.423945 -1.148036 3.052393 0
M  V30 20 C -1.477483 -0.074636 3.219529 0
M  V30 21 C -1.044143 0.781828 4.396239 0
M  V30 22 C 0.337323 0.260557 4.811861 0
M  V30 23 C 0.837983 -0.493421 3.582826 0
M  V30 24 H -3.013794 -5.296498 2.133991 0
M  V30 25 H -1.582443 -3.948364 -0.443927 0
M  V30 26 H -0.089113 -2.908567 -2.011509 0
M  V30 27 H 2.458352 -2.667097 -2.526730 0
M  V30 28 H 3.815730 1.797220 -4.092672 0
M  V30 29 H 2.885259 3.906280 -3.128234 0
M  V30 30 H 1.244110 3.799916 -1.346355 0
M  V30 31 H 0.538041 1.557122 -0.533614 0
M  V30 32 H 1.158439 -0.226865 0.945473 0
M  V30 33 H -0.601575 -2.021882 3.727703 0
M  V30 34 H -2.428898 -0.563321 3.505117 0
M  V30 35 H -1.563434 0.575938 2.345788 0
M  V30 36 H -1.764123 0.762333 5.239922 0
M  V30 37 H -0.945644 1.861783 4.103462 0
M  V30 38 H 0.168364 -0.435438 5.655989 0
M  V30 39 H 0.977497 1.094015 5.099247 0
M  V30 40 H 1.329373 0.179010 2.871923 0
M  V30 41 H 1.590517 -1.219407 3.948401 0
M  V30 END ATOM
M  V30 BEGIN BOND
M  V30 1 2 1 2
M  V30 2 1 2 3
M  V30 3 1 2 4
M  V30 4 2 4 5
M  V30 5 1 5 6
M  V30 6 2 6 7
M  V30 7 1 7 8
M  V30 8 1 8 9
M  V30 9 2 9 10
M  V30 10 1 10 11
M  V30 11 1 11 12
M  V30 12 2 12 13
M  V30 13 1 13 14
M  V30 14 2 14 15
M  V30 15 1 15 16
M  V30 16 1 7 17
M  V30 17 2 17 18
M  V30 18 1 18 19
M  V30 19 1 19 20
M  V30 20 1 20 21
M  V30 21 1 21 22
M  V30 22 1 22 23
M  V30 23 1 18 4
M  V30 24 1 23 19
M  V30 25 2 16 8
M  V30 26 1 16 11
M  V30 27 1 3 24
M  V30 28 1 5 25
M  V30 29 1 6 26
M  V30 30 1 9 27
M  V30 31 1 12 28
M  V30 32 1 13 29
M  V30 33 1 14 30
M  V30 34 1 15 31
M  V30 35 1 17 32
M  V30 36 1 19 33
M  V30 37 1 20 34
M  V30 38 1 20 35
M  V30 39 1 21 36
M  V30 40 1 21 37
M  V30 41 1 22 38
M  V30 42 1 22 39
M  V30 43 1 23 40
M  V30 44 1 23 41
M  V30 END BOND
M  V30 END CTAB
M  END
>  <Dataset>  (955) 
ChEMBL_Kinases

>  <Ligand_Instance>  (955) 
nan

>  <PDB_ID>  (955) 
nan

>  <Standardized_SMILES>  (955) 
O=C(O)c1ccc(-c2cnn3ccccc23)cc1C1CCCC1

>  <Name>  (955) 
nan

>  <Pocket>  (955) 
nan

>  <ATP_Site>  (955) 
nan

>  <Peripheral>  (955) 
nan

>  <Num_H_Atoms_ProtBoundConf>  (955) 
nan

>  <Num_Resolved_Atoms>  (955) 
nan

>  <Num_Not_Resolved_Atoms>  (955) 
nan

$$$$
CHEMBL4851954
     RDKit          3D

  0  0  0  0  0  0  0  0  0  0999 V3000
M  V30 BEGIN CTAB
M  V30 COUNTS 31 33 0 0 0
M  V30 BEGIN ATOM
M  V30 1 C -1.962377 -3.960135 5.302426 0
M  V30 2 C -1.684010 -3.005824 4.200868 0
M  V30 3 O -2.253618 -1.889931 4.267493 0
M  V30 4 N -0.832151 -3.272755 3.101898 0
M  V30 5 C -0.489094 -2.456437 2.000834 0
M  V30 6 C 0.372889 -2.960424 1.055498 0
M  V30 7 C 0.752765 -2.223330 -0.044777 0
M  V30 8 C 0.286949 -0.941084 -0.253718 0
M  V30 9 C 0.723897 -0.204631 -1.440044 0
M  V30 10 N 0.809102 -0.642465 -2.720373 0
M  V30 11 N 1.255190 0.343102 -3.509787 0
M  V30 12 C 1.479282 1.461828 -2.781235 0
M  V30 13 N 1.923359 2.691528 -3.118609 0
M  V30 14 C 2.049350 3.629660 -2.151205 0
M  V30 15 C 1.742522 3.380598 -0.834531 0
M  V30 16 Br 1.921428 4.708287 0.531122 0
M  V30 17 C 1.292958 2.107076 -0.544657 0
M  V30 18 C 1.144356 1.112856 -1.483118 0
M  V30 19 C -0.580580 -0.400011 0.673574 0
M  V30 20 C -0.927416 -1.181562 1.755538 0
M  V30 21 H -2.868094 -4.567598 5.113465 0
M  V30 22 H -2.001866 -3.375499 6.244429 0
M  V30 23 H -1.050895 -4.604680 5.407182 0
M  V30 24 H -0.428875 -4.232572 3.175742 0
M  V30 25 H 0.769111 -3.975209 1.179123 0
M  V30 26 H 1.432129 -2.696021 -0.736050 0
M  V30 27 H 1.398101 0.228127 -4.539771 0
M  V30 28 H 2.402774 4.609907 -2.416899 0
M  V30 29 H 1.049086 1.903034 0.491007 0
M  V30 30 H -0.966180 0.601016 0.543622 0
M  V30 31 H -1.605457 -0.711162 2.446415 0
M  V30 END ATOM
M  V30 BEGIN BOND
M  V30 1 1 1 2
M  V30 2 2 2 3
M  V30 3 1 2 4
M  V30 4 1 4 5
M  V30 5 2 5 6
M  V30 6 1 6 7
M  V30 7 2 7 8
M  V30 8 1 8 9
M  V30 9 2 9 10
M  V30 10 1 10 11
M  V30 11 1 11 12
M  V30 12 2 12 13
M  V30 13 1 13 14
M  V30 14 2 14 15
M  V30 15 1 15 16
M  V30 16 1 15 17
M  V30 17 2 17 18
M  V30 18 1 8 19
M  V30 19 2 19 20
M  V30 20 1 20 5
M  V30 21 1 18 9
M  V30 22 1 18 12
M  V30 23 1 1 21
M  V30 24 1 1 22
M  V30 25 1 1 23
M  V30 26 1 4 24
M  V30 27 1 6 25
M  V30 28 1 7 26
M  V30 29 1 11 27
M  V30 30 1 14 28
M  V30 31 1 17 29
M  V30 32 1 19 30
M  V30 33 1 20 31
M  V30 END BOND
M  V30 END CTAB
M  END
>  <Dataset>  (956) 
ChEMBL_Kinases

>  <Ligand_Instance>  (956) 
nan

>  <PDB_ID>  (956) 
nan

>  <Standardized_SMILES>  (956) 
CC(=O)Nc1ccc(-c2n[nH]c3ncc(Br)cc23)cc1

>  <Name>  (956) 
nan

>  <Pocket>  (956) 
nan

>  <ATP_Site>  (956) 
nan

>  <Peripheral>  (956) 
nan

>  <Num_H_Atoms_ProtBoundConf>  (956) 
nan

>  <Num_Resolved_Atoms>  (956) 
nan

>  <Num_Not_Resolved_Atoms>  (956) 
nan

$$$$
CHEMBL4870017
     RDKit          3D

  0  0  0  0  0  0  0  0  0  0999 V3000
M  V30 BEGIN CTAB
M  V30 COUNTS 48 50 0 0 0
M  V30 BEGIN ATOM
M  V30 1 N -2.427848 -2.759157 4.869155 0
M  V30 2 C -1.772733 -2.037392 4.259046 0
M  V30 3 C -0.964986 -1.129452 3.494818 0
M  V30 4 C -0.772472 0.203961 3.770184 0
M  V30 5 N -0.022944 1.042123 3.066407 0
M  V30 6 C 0.629560 0.570033 1.964863 0
M  V30 7 N 1.443840 1.504230 1.227102 0
M  V30 8 C 0.622103 2.253372 0.307213 0
M  V30 9 C 1.349274 3.219513 -0.523155 0
M  V30 10 C 1.614355 2.960175 -1.873854 0
M  V30 11 N 2.269435 3.782679 -2.718712 0
M  V30 12 C 2.714497 4.957662 -2.245245 0
M  V30 13 C 2.497302 5.297532 -0.921651 0
M  V30 14 C 1.820067 4.439671 -0.060326 0
M  V30 15 C 1.600289 4.817112 1.345237 0
M  V30 16 F 2.204992 3.886482 2.172264 0
M  V30 17 F 2.189926 6.041603 1.588997 0
M  V30 18 F 0.250220 4.933607 1.642957 0
M  V30 19 C 0.468243 -0.762269 1.647108 0
M  V30 20 C -0.313886 -1.635386 2.380826 0
M  V30 21 N -0.375107 -3.003472 1.931117 0
M  V30 22 C 0.198434 -3.717386 0.818134 0 CFG=1
M  V30 23 C -0.147780 -5.191823 0.941097 0
M  V30 24 C -1.317180 -5.590675 0.093844 0
M  V30 25 C -2.430074 -4.579215 0.159093 0 CFG=2
M  V30 26 O -3.480859 -4.926738 -0.686921 0
M  V30 27 C -1.925337 -3.231052 -0.280464 0
M  V30 28 C -0.444698 -3.289732 -0.506880 0
M  V30 29 H -1.301421 0.545930 4.648303 0
M  V30 30 H 2.338791 1.233532 1.689072 0
M  V30 31 H -0.201404 2.721527 0.893740 0
M  V30 32 H 0.135017 1.502296 -0.375071 0
M  V30 33 H 1.253208 2.014283 -2.244946 0
M  V30 34 H 3.229330 5.560810 -2.987628 0
M  V30 35 H 2.886074 6.260974 -0.618362 0
M  V30 36 H 1.047494 -0.994529 0.762297 0
M  V30 37 H -0.989610 -3.564498 2.599164 0
M  V30 38 H 1.289160 -3.601172 0.713175 0
M  V30 39 H 0.726715 -5.810693 0.637711 0
M  V30 40 H -0.370607 -5.469597 1.993162 0
M  V30 41 H -1.055237 -5.909338 -0.933416 0
M  V30 42 H -1.744979 -6.526275 0.564317 0
M  V30 43 H -2.824800 -4.576949 1.198452 0
M  V30 44 H -4.357787 -4.806788 -0.210200 0
M  V30 45 H -2.118013 -2.514560 0.550855 0
M  V30 46 H -2.475055 -2.831363 -1.167734 0
M  V30 47 H 0.019988 -2.368521 -0.832757 0
M  V30 48 H -0.219471 -4.088284 -1.247659 0
M  V30 END ATOM
M  V30 BEGIN BOND
M  V30 1 3 1 2
M  V30 2 1 2 3
M  V30 3 2 3 4
M  V30 4 1 4 5
M  V30 5 2 5 6
M  V30 6 1 6 7
M  V30 7 1 7 8
M  V30 8 1 8 9
M  V30 9 2 9 10
M  V30 10 1 10 11
M  V30 11 2 11 12
M  V30 12 1 12 13
M  V30 13 2 13 14
M  V30 14 1 14 15
M  V30 15 1 15 16
M  V30 16 1 15 17
M  V30 17 1 15 18
M  V30 18 1 6 19
M  V30 19 2 19 20
M  V30 20 1 20 21
M  V30 21 1 21 22
M  V30 22 1 22 23
M  V30 23 1 23 24
M  V30 24 1 24 25
M  V30 25 1 25 26
M  V30 26 1 25 27
M  V30 27 1 27 28
M  V30 28 1 20 3
M  V30 29 1 28 22
M  V30 30 1 14 9
M  V30 31 1 4 29
M  V30 32 1 7 30
M  V30 33 1 8 31
M  V30 34 1 8 32
M  V30 35 1 10 33
M  V30 36 1 12 34
M  V30 37 1 13 35
M  V30 38 1 19 36
M  V30 39 1 21 37
M  V30 40 1 22 38 CFG=3
M  V30 41 1 23 39
M  V30 42 1 23 40
M  V30 43 1 24 41
M  V30 44 1 24 42
M  V30 45 1 25 43 CFG=1
M  V30 46 1 26 44
M  V30 47 1 27 45
M  V30 48 1 27 46
M  V30 49 1 28 47
M  V30 50 1 28 48
M  V30 END BOND
M  V30 END CTAB
M  END
>  <Dataset>  (957) 
ChEMBL_Kinases

>  <Ligand_Instance>  (957) 
nan

>  <PDB_ID>  (957) 
nan

>  <Standardized_SMILES>  (957) 
N#Cc1cnc(NCc2cnccc2C(F)(F)F)cc1N[C@H]1CC[C@H](O)CC1

>  <Name>  (957) 
nan

>  <Pocket>  (957) 
nan

>  <ATP_Site>  (957) 
nan

>  <Peripheral>  (957) 
nan

>  <Num_H_Atoms_ProtBoundConf>  (957) 
nan

>  <Num_Resolved_Atoms>  (957) 
nan

>  <Num_Not_Resolved_Atoms>  (957) 
nan

$$$$
CHEMBL4852101
     RDKit          3D

  0  0  0  0  0  0  0  0  0  0999 V3000
M  V30 BEGIN CTAB
M  V30 COUNTS 40 42 0 0 0
M  V30 BEGIN ATOM
M  V30 1 C 1.041663 -6.243707 3.444457 0
M  V30 2 O 1.394675 -5.491440 2.313517 0
M  V30 3 C 0.968170 -4.167815 2.239355 0
M  V30 4 C 0.218753 -3.474575 3.159427 0
M  V30 5 C -0.119303 -2.141110 2.913557 0
M  V30 6 C 0.264338 -1.462197 1.777098 0
M  V30 7 N -0.133280 -0.108270 1.609000 0
M  V30 8 C -1.230917 0.137049 0.716743 0
M  V30 9 C -1.283722 1.092533 -0.205730 0
M  V30 10 C -0.363248 2.140873 -0.624224 0
M  V30 11 C -0.932046 3.348157 -1.075429 0
M  V30 12 C -0.208819 4.432557 -1.495572 0
M  V30 13 C 1.167000 4.352841 -1.481842 0
M  V30 14 C 1.768657 3.190342 -1.047351 0
M  V30 15 C 0.994662 2.129419 -0.635398 0
M  V30 16 O 1.582414 0.971081 -0.202162 0
M  V30 17 C 2.980636 0.790314 -0.144551 0
M  V30 18 C -2.611237 0.906456 -0.834500 0
M  V30 19 O -3.177352 1.552307 -1.778221 0
M  V30 20 N -3.292504 -0.171096 -0.241341 0
M  V30 21 C -2.416375 -0.673284 0.756354 0
M  V30 22 O -2.674204 -1.648802 1.510492 0
M  V30 23 C 1.013752 -2.210521 0.895013 0
M  V30 24 C 1.382411 -3.524071 1.069031 0
M  V30 25 H 1.673693 -5.863704 4.279791 0
M  V30 26 H 1.235297 -7.323796 3.318905 0
M  V30 27 H 0.000599 -6.125599 3.755630 0
M  V30 28 H -0.065787 -4.024743 4.039101 0
M  V30 29 H -0.711344 -1.668083 3.692502 0
M  V30 30 H 0.518680 0.390134 2.226037 0
M  V30 31 H -2.011932 3.452993 -1.102667 0
M  V30 32 H -0.675282 5.342990 -1.838617 0
M  V30 33 H 1.793084 5.167476 -1.797655 0
M  V30 34 H 2.840244 3.149482 -1.044809 0
M  V30 35 H 3.443100 0.526217 -1.118408 0
M  V30 36 H 3.266118 0.003226 0.590824 0
M  V30 37 H 3.488686 1.706968 0.217762 0
M  V30 38 H -4.237685 -0.569734 -0.440024 0
M  V30 39 H 1.334570 -1.725651 -0.011589 0
M  V30 40 H 1.977313 -4.013659 0.301320 0
M  V30 END ATOM
M  V30 BEGIN BOND
M  V30 1 1 1 2
M  V30 2 1 2 3
M  V30 3 2 3 4
M  V30 4 1 4 5
M  V30 5 2 5 6
M  V30 6 1 6 7
M  V30 7 1 7 8
M  V30 8 2 8 9
M  V30 9 1 9 10
M  V30 10 2 10 11
M  V30 11 1 11 12
M  V30 12 2 12 13
M  V30 13 1 13 14
M  V30 14 2 14 15
M  V30 15 1 15 16
M  V30 16 1 16 17
M  V30 17 1 9 18
M  V30 18 2 18 19
M  V30 19 1 18 20
M  V30 20 1 20 21
M  V30 21 2 21 22
M  V30 22 1 6 23
M  V30 23 2 23 24
M  V30 24 1 24 3
M  V30 25 1 21 8
M  V30 26 1 15 10
M  V30 27 1 1 25
M  V30 28 1 1 26
M  V30 29 1 1 27
M  V30 30 1 4 28
M  V30 31 1 5 29
M  V30 32 1 7 30
M  V30 33 1 11 31
M  V30 34 1 12 32
M  V30 35 1 13 33
M  V30 36 1 14 34
M  V30 37 1 17 35
M  V30 38 1 17 36
M  V30 39 1 17 37
M  V30 40 1 20 38
M  V30 41 1 23 39
M  V30 42 1 24 40
M  V30 END BOND
M  V30 END CTAB
M  END
>  <Dataset>  (958) 
ChEMBL_Kinases

>  <Ligand_Instance>  (958) 
nan

>  <PDB_ID>  (958) 
nan

>  <Standardized_SMILES>  (958) 
COc1ccc(NC2=C(c3ccccc3OC)C(=O)NC2=O)cc1

>  <Name>  (958) 
nan

>  <Pocket>  (958) 
nan

>  <ATP_Site>  (958) 
nan

>  <Peripheral>  (958) 
nan

>  <Num_H_Atoms_ProtBoundConf>  (958) 
nan

>  <Num_Resolved_Atoms>  (958) 
nan

>  <Num_Not_Resolved_Atoms>  (958) 
nan

$$$$
CHEMBL4852195
     RDKit          3D

  0  0  0  0  0  0  0  0  0  0999 V3000
M  V30 BEGIN CTAB
M  V30 COUNTS 60 64 0 0 0
M  V30 BEGIN ATOM
M  V30 1 C 2.843654 -4.390942 3.578633 0
M  V30 2 C 1.945443 -3.331969 4.181181 0
M  V30 3 N 2.152484 -2.074183 3.495297 0
M  V30 4 C 3.034235 -1.124704 3.854683 0
M  V30 5 O 3.839570 -1.101539 4.803985 0
M  V30 6 C 2.903776 -0.097094 2.951091 0
M  V30 7 C 3.497562 1.128609 2.794398 0
M  V30 8 N 3.107276 1.943087 1.768058 0
M  V30 9 C 2.125195 1.492852 0.926784 0
M  V30 10 N 1.600319 2.240255 -0.161222 0
M  V30 11 C 0.198789 2.397300 -0.438628 0
M  V30 12 C -0.227675 3.299228 -1.404904 0
M  V30 13 C -1.553755 3.519191 -1.709803 0
M  V30 14 C -2.521591 2.818328 -1.032418 0
M  V30 15 C -2.165426 1.899710 -0.056645 0
M  V30 16 C -0.831731 1.749469 0.176912 0
M  V30 17 C -3.229824 1.151018 0.619450 0
M  V30 18 C -4.376572 0.796827 -0.313156 0
M  V30 19 N -4.531082 1.668862 -1.434138 0
M  V30 20 C -4.007935 3.005327 -1.240632 0
M  V30 21 N 1.542921 0.303773 1.070249 0
M  V30 22 C 1.923225 -0.498704 2.076291 0
M  V30 23 N 1.455736 -1.745600 2.421688 0
M  V30 24 C 0.446387 -2.382805 1.646587 0
M  V30 25 C -0.743767 -2.949370 2.004548 0
M  V30 26 C -1.600733 -3.536332 1.096617 0
M  V30 27 C -1.264362 -3.562961 -0.229329 0
M  V30 28 F -2.126468 -4.144403 -1.085896 0
M  V30 29 C -0.063166 -2.990446 -0.601061 0
M  V30 30 C 0.199754 -3.085390 -2.054841 0
M  V30 31 C 0.402551 -4.477687 -2.530562 0
M  V30 32 C 1.486236 -2.300960 -2.332207 0
M  V30 33 O -0.773847 -2.475648 -2.831297 0
M  V30 34 N 0.739081 -2.432436 0.310980 0
M  V30 35 H 3.793988 -4.511256 4.134540 0
M  V30 36 H 3.133521 -4.095857 2.528757 0
M  V30 37 H 2.359744 -5.392196 3.526560 0
M  V30 38 H 0.935025 -3.722102 4.156898 0
M  V30 39 H 2.307922 -3.184204 5.246920 0
M  V30 40 H 4.283085 1.495296 3.459611 0
M  V30 41 H 2.259175 2.720786 -0.826721 0
M  V30 42 H 0.489715 3.902482 -1.985594 0
M  V30 43 H -1.879856 4.243600 -2.470707 0
M  V30 44 H -0.608450 1.030541 0.948466 0
M  V30 45 H -3.605943 1.734909 1.491527 0
M  V30 46 H -2.842450 0.189383 1.077407 0
M  V30 47 H -4.175590 -0.232256 -0.700446 0
M  V30 48 H -5.334014 0.724063 0.262457 0
M  V30 49 H -4.083429 1.256155 -2.276995 0
M  V30 50 H -4.222693 3.594115 -2.143694 0
M  V30 51 H -4.485662 3.438433 -0.331221 0
M  V30 52 H -0.963115 -2.893943 3.055673 0
M  V30 53 H -2.527765 -3.966332 1.488041 0
M  V30 54 H 1.101151 -5.078568 -1.898868 0
M  V30 55 H 0.875314 -4.418920 -3.539577 0
M  V30 56 H -0.561562 -5.010649 -2.687289 0
M  V30 57 H 1.875503 -1.857778 -1.371928 0
M  V30 58 H 2.232344 -2.962873 -2.769646 0
M  V30 59 H 1.312603 -1.420207 -2.991138 0
M  V30 60 H -1.138150 -1.638243 -2.438859 0
M  V30 END ATOM
M  V30 BEGIN BOND
M  V30 1 1 1 2
M  V30 2 1 2 3
M  V30 3 1 3 4
M  V30 4 2 4 5
M  V30 5 1 4 6
M  V30 6 2 6 7
M  V30 7 1 7 8
M  V30 8 2 8 9
M  V30 9 1 9 10
M  V30 10 1 10 11
M  V30 11 2 11 12
M  V30 12 1 12 13
M  V30 13 2 13 14
M  V30 14 1 14 15
M  V30 15 2 15 16
M  V30 16 1 15 17
M  V30 17 1 17 18
M  V30 18 1 18 19
M  V30 19 1 19 20
M  V30 20 1 9 21
M  V30 21 2 21 22
M  V30 22 1 22 23
M  V30 23 1 23 24
M  V30 24 2 24 25
M  V30 25 1 25 26
M  V30 26 2 26 27
M  V30 27 1 27 28
M  V30 28 1 27 29
M  V30 29 1 29 30
M  V30 30 1 30 31
M  V30 31 1 30 32
M  V30 32 1 30 33
M  V30 33 2 29 34
M  V30 34 1 23 3
M  V30 35 1 34 24
M  V30 36 1 22 6
M  V30 37 1 16 11
M  V30 38 1 20 14
M  V30 39 1 1 35
M  V30 40 1 1 36
M  V30 41 1 1 37
M  V30 42 1 2 38
M  V30 43 1 2 39
M  V30 44 1 7 40
M  V30 45 1 10 41
M  V30 46 1 12 42
M  V30 47 1 13 43
M  V30 48 1 16 44
M  V30 49 1 17 45
M  V30 50 1 17 46
M  V30 51 1 18 47
M  V30 52 1 18 48
M  V30 53 1 19 49
M  V30 54 1 20 50
M  V30 55 1 20 51
M  V30 56 1 25 52
M  V30 57 1 26 53
M  V30 58 1 31 54
M  V30 59 1 31 55
M  V30 60 1 31 56
M  V30 61 1 32 57
M  V30 62 1 32 58
M  V30 63 1 32 59
M  V30 64 1 33 60
M  V30 END BOND
M  V30 END CTAB
M  END
>  <Dataset>  (959) 
ChEMBL_Kinases

>  <Ligand_Instance>  (959) 
nan

>  <PDB_ID>  (959) 
nan

>  <Standardized_SMILES>  (959) 
CCn1c(=O)c2cnc(Nc3ccc4c(c3)CCNC4)nc2n1-c1ccc(F)c(C(C)(C)O)n1

>  <Name>  (959) 
nan

>  <Pocket>  (959) 
nan

>  <ATP_Site>  (959) 
nan

>  <Peripheral>  (959) 
nan

>  <Num_H_Atoms_ProtBoundConf>  (959) 
nan

>  <Num_Resolved_Atoms>  (959) 
nan

>  <Num_Not_Resolved_Atoms>  (959) 
nan

$$$$
CHEMBL4867170
     RDKit          3D

  0  0  0  0  0  0  0  0  0  0999 V3000
M  V30 BEGIN CTAB
M  V30 COUNTS 54 58 0 0 0
M  V30 BEGIN ATOM
M  V30 1 C 3.564670 3.330782 7.162648 0
M  V30 2 S 2.769522 4.425734 6.004093 0
M  V30 3 O 3.539417 5.679680 5.813550 0
M  V30 4 O 1.420565 4.754468 6.586384 0
M  V30 5 C 2.544241 3.544529 4.504216 0
M  V30 6 C 3.471075 3.518901 3.483069 0
M  V30 7 C 3.281945 2.821561 2.307503 0
M  V30 8 C 2.125784 2.109603 2.115703 0
M  V30 9 C 1.810988 1.330914 0.910093 0
M  V30 10 C 1.019198 0.187044 1.027709 0
M  V30 11 C 0.690585 -0.584553 -0.076191 0
M  V30 12 C 1.181814 -0.169524 -1.295574 0
M  V30 13 C 0.829692 -0.974283 -2.358354 0
M  V30 14 N 0.040587 -2.150586 -2.366734 0
M  V30 15 C -1.324734 -2.289724 -1.998720 0
M  V30 16 C -2.125034 -1.202002 -1.728849 0
M  V30 17 C -3.413200 -1.496009 -1.387316 0
M  V30 18 N -3.858422 -2.753172 -1.321774 0
M  V30 19 C -3.117092 -3.844803 -1.575605 0
M  V30 20 C -3.767369 -5.131170 -1.454545 0
M  V30 21 C -5.096780 -5.168190 -1.090566 0
M  V30 22 C -5.808621 -6.337739 -0.947183 0
M  V30 23 C -5.219680 -7.558895 -1.163910 0
M  V30 24 C -3.893633 -7.566339 -1.528982 0
M  V30 25 C -3.221469 -6.372869 -1.660380 0
M  V30 26 F -1.932306 -6.463633 -2.018949 0
M  V30 27 C -1.820413 -3.570550 -1.920369 0
M  V30 28 C 1.326657 -0.570012 -3.603844 0
M  V30 29 C 2.113900 0.551608 -3.776066 0
M  V30 30 N 2.429469 1.308331 -2.696076 0
M  V30 31 C 1.967720 0.947813 -1.479722 0
M  V30 32 C 2.281646 1.704782 -0.347537 0
M  V30 33 C 1.157228 2.106863 3.124584 0
M  V30 34 C 1.372948 2.822088 4.307654 0
M  V30 35 H 4.683534 3.450275 7.127165 0
M  V30 36 H 3.347014 2.291998 6.880532 0
M  V30 37 H 3.210539 3.545277 8.183254 0
M  V30 38 H 4.393093 4.093248 3.649022 0
M  V30 39 H 4.020827 2.812972 1.516964 0
M  V30 40 H 0.636694 -0.129056 2.003291 0
M  V30 41 H 0.081345 -1.466244 0.058544 0
M  V30 42 H 0.619659 -2.951069 -2.696396 0
M  V30 43 H -1.738246 -0.193015 -1.789590 0
M  V30 44 H -4.108434 -0.701606 -1.159627 0
M  V30 45 H -5.672164 -4.250152 -0.891148 0
M  V30 46 H -6.848843 -6.324546 -0.660544 0
M  V30 47 H -5.809070 -8.454353 -1.041824 0
M  V30 48 H -3.406166 -8.513086 -1.705351 0
M  V30 49 H -1.176991 -4.396323 -2.135227 0
M  V30 50 H 1.123075 -1.113676 -4.508365 0
M  V30 51 H 2.487661 0.846480 -4.746794 0
M  V30 52 H 2.888431 2.588183 -0.409618 0
M  V30 53 H 0.203082 1.577766 3.081572 0
M  V30 54 H 0.615020 2.822824 5.102879 0
M  V30 END ATOM
M  V30 BEGIN BOND
M  V30 1 1 1 2
M  V30 2 2 2 3
M  V30 3 2 2 4
M  V30 4 1 2 5
M  V30 5 2 5 6
M  V30 6 1 6 7
M  V30 7 2 7 8
M  V30 8 1 8 9
M  V30 9 2 9 10
M  V30 10 1 10 11
M  V30 11 2 11 12
M  V30 12 1 12 13
M  V30 13 1 13 14
M  V30 14 1 14 15
M  V30 15 2 15 16
M  V30 16 1 16 17
M  V30 17 2 17 18
M  V30 18 1 18 19
M  V30 19 1 19 20
M  V30 20 2 20 21
M  V30 21 1 21 22
M  V30 22 2 22 23
M  V30 23 1 23 24
M  V30 24 2 24 25
M  V30 25 1 25 26
M  V30 26 2 19 27
M  V30 27 2 13 28
M  V30 28 1 28 29
M  V30 29 2 29 30
M  V30 30 1 30 31
M  V30 31 2 31 32
M  V30 32 1 8 33
M  V30 33 2 33 34
M  V30 34 1 34 5
M  V30 35 1 32 9
M  V30 36 1 31 12
M  V30 37 1 27 15
M  V30 38 1 25 20
M  V30 39 1 1 35
M  V30 40 1 1 36
M  V30 41 1 1 37
M  V30 42 1 6 38
M  V30 43 1 7 39
M  V30 44 1 10 40
M  V30 45 1 11 41
M  V30 46 1 14 42
M  V30 47 1 16 43
M  V30 48 1 17 44
M  V30 49 1 21 45
M  V30 50 1 22 46
M  V30 51 1 23 47
M  V30 52 1 24 48
M  V30 53 1 27 49
M  V30 54 1 28 50
M  V30 55 1 29 51
M  V30 56 1 32 52
M  V30 57 1 33 53
M  V30 58 1 34 54
M  V30 END BOND
M  V30 END CTAB
M  END
>  <Dataset>  (960) 
ChEMBL_Kinases

>  <Ligand_Instance>  (960) 
nan

>  <PDB_ID>  (960) 
nan

>  <Standardized_SMILES>  (960) 
CS(=O)(=O)c1ccc(-c2ccc3c(Nc4ccnc(-c5ccccc5F)c4)ccnc3c2)cc1

>  <Name>  (960) 
nan

>  <Pocket>  (960) 
nan

>  <ATP_Site>  (960) 
nan

>  <Peripheral>  (960) 
nan

>  <Num_H_Atoms_ProtBoundConf>  (960) 
nan

>  <Num_Resolved_Atoms>  (960) 
nan

>  <Num_Not_Resolved_Atoms>  (960) 
nan

$$$$
CHEMBL4852451
     RDKit          3D

  0  0  0  0  0  0  0  0  0  0999 V3000
M  V30 BEGIN CTAB
M  V30 COUNTS 46 49 0 0 0
M  V30 BEGIN ATOM
M  V30 1 C -2.046674 1.729510 1.288839 0
M  V30 2 O -1.246671 0.760223 1.877948 0
M  V30 3 C 0.090968 0.549051 1.751277 0
M  V30 4 C 0.918016 1.325566 0.957084 0
M  V30 5 C 2.260803 1.012408 0.911459 0
M  V30 6 C 3.050677 1.885267 0.040739 0
M  V30 7 C 4.153048 1.346692 -0.591066 0
M  V30 8 C 5.015683 2.014544 -1.452933 0
M  V30 9 C 4.664356 3.358968 -1.646472 0
M  V30 10 N 3.590884 3.919995 -1.044288 0
M  V30 11 C 2.780266 3.213469 -0.208202 0
M  V30 12 C 2.845218 -0.025321 1.604536 0
M  V30 13 C 2.009442 -0.800619 2.399381 0
M  V30 14 C 0.647909 -0.512265 2.467424 0
M  V30 15 C -0.216568 -1.360626 3.286567 0
M  V30 16 C -1.380139 -1.794730 2.781683 0
M  V30 17 N -2.168969 -1.714731 1.584548 0
M  V30 18 C -2.015867 -2.166363 0.248006 0
M  V30 19 C -1.526318 -1.412308 -0.796557 0
M  V30 20 C -1.383337 -1.886775 -2.097578 0
M  V30 21 C -1.766750 -3.188307 -2.307563 0
M  V30 22 C -2.264572 -4.011839 -1.328071 0
M  V30 23 C -2.623900 -5.335885 -1.675345 0
M  V30 24 N -2.921286 -6.434046 -1.962029 0
M  V30 25 C -2.383271 -3.483589 -0.051483 0
M  V30 26 C -2.061864 -2.612906 3.781982 0
M  V30 27 O -3.144783 -3.274713 3.906320 0
M  V30 28 N -1.233473 -2.662985 4.966406 0
M  V30 29 C -0.096778 -1.882292 4.641900 0
M  V30 30 O 0.973003 -1.547837 5.257654 0
M  V30 31 H -3.017338 1.214565 1.019500 0
M  V30 32 H -1.679263 2.183007 0.363715 0
M  V30 33 H -2.288092 2.509541 2.041081 0
M  V30 34 H 0.491214 2.134358 0.411063 0
M  V30 35 H 4.387778 0.306960 -0.416878 0
M  V30 36 H 5.850006 1.517951 -1.903337 0
M  V30 37 H 5.315441 3.920184 -2.315521 0
M  V30 38 H 1.931108 3.644237 0.270223 0
M  V30 39 H 3.895707 -0.194806 1.509684 0
M  V30 40 H 2.427676 -1.635452 2.969518 0
M  V30 41 H -3.095780 -1.244415 1.520659 0
M  V30 42 H -1.230720 -0.390436 -0.614817 0
M  V30 43 H -0.987914 -1.231085 -2.884142 0
M  V30 44 H -1.660946 -3.564108 -3.321998 0
M  V30 45 H -2.784050 -4.168710 0.712521 0
M  V30 46 H -1.185583 -3.055818 5.934462 0
M  V30 END ATOM
M  V30 BEGIN BOND
M  V30 1 1 1 2
M  V30 2 1 2 3
M  V30 3 2 3 4
M  V30 4 1 4 5
M  V30 5 1 5 6
M  V30 6 2 6 7
M  V30 7 1 7 8
M  V30 8 2 8 9
M  V30 9 1 9 10
M  V30 10 2 10 11
M  V30 11 2 5 12
M  V30 12 1 12 13
M  V30 13 2 13 14
M  V30 14 1 14 15
M  V30 15 2 15 16
M  V30 16 1 16 17
M  V30 17 1 17 18
M  V30 18 2 18 19
M  V30 19 1 19 20
M  V30 20 2 20 21
M  V30 21 1 21 22
M  V30 22 1 22 23
M  V30 23 3 23 24
M  V30 24 2 22 25
M  V30 25 1 16 26
M  V30 26 2 26 27
M  V30 27 1 26 28
M  V30 28 1 28 29
M  V30 29 2 29 30
M  V30 30 1 14 3
M  V30 31 1 29 15
M  V30 32 1 11 6
M  V30 33 1 25 18
M  V30 34 1 1 31
M  V30 35 1 1 32
M  V30 36 1 1 33
M  V30 37 1 4 34
M  V30 38 1 7 35
M  V30 39 1 8 36
M  V30 40 1 9 37
M  V30 41 1 11 38
M  V30 42 1 12 39
M  V30 43 1 13 40
M  V30 44 1 17 41
M  V30 45 1 19 42
M  V30 46 1 20 43
M  V30 47 1 21 44
M  V30 48 1 25 45
M  V30 49 1 28 46
M  V30 END BOND
M  V30 END CTAB
M  END
>  <Dataset>  (961) 
ChEMBL_Kinases

>  <Ligand_Instance>  (961) 
nan

>  <PDB_ID>  (961) 
nan

>  <Standardized_SMILES>  (961) 
COc1cc(-c2cccnc2)ccc1C1=C(Nc2cccc(C#N)c2)C(=O)NC1=O

>  <Name>  (961) 
nan

>  <Pocket>  (961) 
nan

>  <ATP_Site>  (961) 
nan

>  <Peripheral>  (961) 
nan

>  <Num_H_Atoms_ProtBoundConf>  (961) 
nan

>  <Num_Resolved_Atoms>  (961) 
nan

>  <Num_Not_Resolved_Atoms>  (961) 
nan

$$$$
CHEMBL4852453
     RDKit          3D

  0  0  0  0  0  0  0  0  0  0999 V3000
M  V30 BEGIN CTAB
M  V30 COUNTS 62 66 0 0 0
M  V30 BEGIN ATOM
M  V30 1 C 5.516609 -1.396052 1.877862 0
M  V30 2 C 4.406403 -0.992067 2.764373 0
M  V30 3 C 4.221401 -1.633086 3.994717 0
M  V30 4 C 3.221978 -1.343018 4.901305 0
M  V30 5 C 2.324573 -0.329039 4.562797 0
M  V30 6 C 2.508953 0.301342 3.348970 0
M  V30 7 C 3.504609 0.015444 2.441460 0
M  V30 8 C 3.650609 0.714526 1.171145 0
M  V30 9 C 2.777824 1.710328 0.791821 0
M  V30 10 C 2.861613 2.413276 -0.407507 0
M  V30 11 N 1.927943 3.436555 -0.763793 0
M  V30 12 C 0.724029 3.659804 -0.046648 0
M  V30 13 C 0.458354 4.848247 0.611571 0
M  V30 14 C -0.740097 5.016737 1.300305 0
M  V30 15 N -1.678750 4.062275 1.362418 0
M  V30 16 C -1.466032 2.881973 0.734124 0
M  V30 17 C -2.415850 1.866010 0.766916 0
M  V30 18 C -2.224993 0.661116 0.130286 0
M  V30 19 C -3.203721 -0.429243 0.146790 0
M  V30 20 C -4.580336 -0.494434 0.197420 0
M  V30 21 N -4.948253 -1.786592 0.188626 0
M  V30 22 N -3.885790 -2.575623 0.134763 0
M  V30 23 C -3.866935 -4.047943 0.109745 0
M  V30 24 C -3.914944 -4.556684 -1.312769 0
M  V30 25 N -3.895047 -5.983017 -1.430763 0
M  V30 26 C -5.113164 -6.586241 -0.930627 0
M  V30 27 C -3.867174 -6.287012 -2.869779 0
M  V30 28 C -2.807661 -1.770302 0.108344 0
M  V30 29 C -1.029435 0.488412 -0.560516 0
M  V30 30 C -0.093957 1.502294 -0.586592 0
M  V30 31 C -0.283926 2.705982 0.050210 0
M  V30 32 C 3.883362 2.095071 -1.273772 0
M  V30 33 C 4.731327 1.080946 -0.832765 0
M  V30 34 N 4.633325 0.414364 0.328342 0
M  V30 35 H 5.159972 -1.820387 0.914853 0
M  V30 36 H 6.270837 -0.610059 1.701247 0
M  V30 37 H 6.058021 -2.254737 2.368130 0
M  V30 38 H 4.922993 -2.428776 4.262592 0
M  V30 39 H 3.159065 -1.894741 5.829099 0
M  V30 40 H 1.530825 -0.078383 5.251970 0
M  V30 41 H 1.777744 1.070940 3.160328 0
M  V30 42 H 1.948166 2.028686 1.404854 0
M  V30 43 H 2.117476 4.041686 -1.564278 0
M  V30 44 H 1.189935 5.659682 0.592717 0
M  V30 45 H -0.951468 5.947650 1.817910 0
M  V30 46 H -3.332620 2.006520 1.299926 0
M  V30 47 H -5.161289 0.417272 0.234828 0
M  V30 48 H -4.720482 -4.407409 0.684605 0
M  V30 49 H -2.884373 -4.335255 0.560574 0
M  V30 50 H -4.868997 -4.155892 -1.764008 0
M  V30 51 H -3.104382 -4.114775 -1.934092 0
M  V30 52 H -4.967835 -7.669535 -0.707884 0
M  V30 53 H -5.519187 -6.121334 -0.028171 0
M  V30 54 H -5.906247 -6.581848 -1.734510 0
M  V30 55 H -4.144259 -5.402215 -3.472728 0
M  V30 56 H -4.525700 -7.157765 -3.109447 0
M  V30 57 H -2.853553 -6.598963 -3.197035 0
M  V30 58 H -1.801477 -2.164741 0.063310 0
M  V30 59 H -0.894502 -0.481160 -1.064547 0
M  V30 60 H 0.776795 1.229877 -1.166847 0
M  V30 61 H 4.030041 2.581077 -2.221752 0
M  V30 62 H 5.556470 0.807992 -1.506718 0
M  V30 END ATOM
M  V30 BEGIN BOND
M  V30 1 1 1 2
M  V30 2 2 2 3
M  V30 3 1 3 4
M  V30 4 2 4 5
M  V30 5 1 5 6
M  V30 6 2 6 7
M  V30 7 1 7 8
M  V30 8 2 8 9
M  V30 9 1 9 10
M  V30 10 1 10 11
M  V30 11 1 11 12
M  V30 12 2 12 13
M  V30 13 1 13 14
M  V30 14 2 14 15
M  V30 15 1 15 16
M  V30 16 2 16 17
M  V30 17 1 17 18
M  V30 18 1 18 19
M  V30 19 1 19 20
M  V30 20 2 20 21
M  V30 21 1 21 22
M  V30 22 1 22 23
M  V30 23 1 23 24
M  V30 24 1 24 25
M  V30 25 1 25 26
M  V30 26 1 25 27
M  V30 27 1 22 28
M  V30 28 2 18 29
M  V30 29 1 29 30
M  V30 30 2 30 31
M  V30 31 2 10 32
M  V30 32 1 32 33
M  V30 33 2 33 34
M  V30 34 1 7 2
M  V30 35 1 34 8
M  V30 36 1 31 12
M  V30 37 1 31 16
M  V30 38 2 28 19
M  V30 39 1 1 35
M  V30 40 1 1 36
M  V30 41 1 1 37
M  V30 42 1 3 38
M  V30 43 1 4 39
M  V30 44 1 5 40
M  V30 45 1 6 41
M  V30 46 1 9 42
M  V30 47 1 11 43
M  V30 48 1 13 44
M  V30 49 1 14 45
M  V30 50 1 17 46
M  V30 51 1 20 47
M  V30 52 1 23 48
M  V30 53 1 23 49
M  V30 54 1 24 50
M  V30 55 1 24 51
M  V30 56 1 26 52
M  V30 57 1 26 53
M  V30 58 1 26 54
M  V30 59 1 27 55
M  V30 60 1 27 56
M  V30 61 1 27 57
M  V30 62 1 28 58
M  V30 63 1 29 59
M  V30 64 1 30 60
M  V30 65 1 32 61
M  V30 66 1 33 62
M  V30 END BOND
M  V30 END CTAB
M  END
>  <Dataset>  (962) 
ChEMBL_Kinases

>  <Ligand_Instance>  (962) 
nan

>  <PDB_ID>  (962) 
nan

>  <Standardized_SMILES>  (962) 
Cc1ccccc1-c1cc(Nc2ccnc3cc(-c4cnn(CCN(C)C)c4)ccc23)ccn1

>  <Name>  (962) 
nan

>  <Pocket>  (962) 
nan

>  <ATP_Site>  (962) 
nan

>  <Peripheral>  (962) 
nan

>  <Num_H_Atoms_ProtBoundConf>  (962) 
nan

>  <Num_Resolved_Atoms>  (962) 
nan

>  <Num_Not_Resolved_Atoms>  (962) 
nan

$$$$
CHEMBL4852523
     RDKit          3D

  0  0  0  0  0  0  0  0  0  0999 V3000
M  V30 BEGIN CTAB
M  V30 COUNTS 43 46 0 0 0
M  V30 BEGIN ATOM
M  V30 1 O 0.972346 -4.981021 1.933579 0
M  V30 2 C 0.743567 -3.758498 2.253243 0
M  V30 3 O 0.641747 -4.696312 3.245075 0
M  V30 4 C 0.820307 -2.673130 1.288956 0
M  V30 5 C 1.190452 -3.078132 0.023776 0
M  V30 6 C 1.316714 -2.106952 -0.939836 0
M  V30 7 C 1.060782 -0.821674 -0.547055 0
M  V30 8 C 1.229295 0.164659 -1.609665 0
M  V30 9 C 2.485556 0.137527 -2.225969 0
M  V30 10 C 2.847534 1.011375 -3.230235 0
M  V30 11 N 1.905651 1.902659 -3.584966 0
M  V30 12 C 0.695576 1.949187 -3.011395 0
M  V30 13 C -0.257727 2.887020 -3.415017 0
M  V30 14 C -1.520262 2.927762 -2.820348 0
M  V30 15 C -1.836659 2.021290 -1.809952 0
M  V30 16 C -0.927757 1.080142 -1.380652 0
M  V30 17 C 0.296717 1.095867 -2.008057 0
M  V30 18 C 0.693916 -0.454353 0.723682 0
M  V30 19 C 0.551161 -1.409990 1.741352 0
M  V30 20 C 0.140122 -1.013620 3.068314 0
M  V30 21 C 1.201066 -1.003004 4.135544 0
M  V30 22 C 0.372274 -0.592523 5.354423 0
M  V30 23 C -1.065032 -0.907529 5.036073 0
M  V30 24 C -1.042117 -1.648214 3.685614 0
M  V30 25 H 0.627232 -4.402458 4.222340 0
M  V30 26 H 1.382726 -4.109946 -0.239745 0
M  V30 27 H 1.604315 -2.386348 -1.940035 0
M  V30 28 H 3.254582 -0.587795 -1.938730 0
M  V30 29 H 3.820718 0.983001 -3.700631 0
M  V30 30 H -0.046961 3.605826 -4.196363 0
M  V30 31 H -2.261198 3.661166 -3.138037 0
M  V30 32 H -2.818914 2.076557 -1.369932 0
M  V30 33 H -1.183259 0.379972 -0.608929 0
M  V30 34 H 0.510962 0.600475 0.989022 0
M  V30 35 H -0.147157 0.098009 3.001347 0
M  V30 36 H 1.976482 -0.230478 3.943735 0
M  V30 37 H 1.676694 -1.969158 4.298232 0
M  V30 38 H 0.529441 0.495834 5.547904 0
M  V30 39 H 0.727181 -1.105725 6.265896 0
M  V30 40 H -1.644288 0.031949 4.949114 0
M  V30 41 H -1.554103 -1.522827 5.807279 0
M  V30 42 H -1.014533 -2.697014 3.929917 0
M  V30 43 H -1.980184 -1.332956 3.159924 0
M  V30 END ATOM
M  V30 BEGIN BOND
M  V30 1 2 1 2
M  V30 2 1 2 3
M  V30 3 1 2 4
M  V30 4 2 4 5
M  V30 5 1 5 6
M  V30 6 2 6 7
M  V30 7 1 7 8
M  V30 8 2 8 9
M  V30 9 1 9 10
M  V30 10 2 10 11
M  V30 11 1 11 12
M  V30 12 2 12 13
M  V30 13 1 13 14
M  V30 14 2 14 15
M  V30 15 1 15 16
M  V30 16 2 16 17
M  V30 17 1 7 18
M  V30 18 2 18 19
M  V30 19 1 19 20
M  V30 20 1 20 21
M  V30 21 1 21 22
M  V30 22 1 22 23
M  V30 23 1 23 24
M  V30 24 1 19 4
M  V30 25 1 24 20
M  V30 26 1 17 8
M  V30 27 1 17 12
M  V30 28 1 3 25
M  V30 29 1 5 26
M  V30 30 1 6 27
M  V30 31 1 9 28
M  V30 32 1 10 29
M  V30 33 1 13 30
M  V30 34 1 14 31
M  V30 35 1 15 32
M  V30 36 1 16 33
M  V30 37 1 18 34
M  V30 38 1 20 35
M  V30 39 1 21 36
M  V30 40 1 21 37
M  V30 41 1 22 38
M  V30 42 1 22 39
M  V30 43 1 23 40
M  V30 44 1 23 41
M  V30 45 1 24 42
M  V30 46 1 24 43
M  V30 END BOND
M  V30 END CTAB
M  END
>  <Dataset>  (963) 
ChEMBL_Kinases

>  <Ligand_Instance>  (963) 
nan

>  <PDB_ID>  (963) 
nan

>  <Standardized_SMILES>  (963) 
O=C(O)c1ccc(-c2ccnc3ccccc23)cc1C1CCCC1

>  <Name>  (963) 
nan

>  <Pocket>  (963) 
nan

>  <ATP_Site>  (963) 
nan

>  <Peripheral>  (963) 
nan

>  <Num_H_Atoms_ProtBoundConf>  (963) 
nan

>  <Num_Resolved_Atoms>  (963) 
nan

>  <Num_Not_Resolved_Atoms>  (963) 
nan

$$$$
CHEMBL4869999
     RDKit          3D

  0  0  0  0  0  0  0  0  0  0999 V3000
M  V30 BEGIN CTAB
M  V30 COUNTS 46 49 0 0 0
M  V30 BEGIN ATOM
M  V30 1 C -2.031641 2.368288 3.123744 0
M  V30 2 O -1.538233 1.068827 2.884622 0
M  V30 3 C -0.297547 0.946752 2.272374 0
M  V30 4 C 0.433939 2.082843 1.903018 0
M  V30 5 C 1.665697 2.005597 1.294539 0
M  V30 6 C 2.234772 0.781862 1.020846 0
M  V30 7 C 3.529714 0.602134 0.374110 0
M  V30 8 C 4.424550 -0.427257 0.569071 0
M  V30 9 C 5.628174 -0.503599 -0.102349 0
M  V30 10 C 5.924561 0.519399 -1.011750 0
M  V30 11 N 5.056548 1.524581 -1.205625 0
M  V30 12 C 3.870274 1.585141 -0.532748 0
M  V30 13 C 1.525365 -0.342957 1.379892 0
M  V30 14 C 0.298366 -0.262993 1.986337 0
M  V30 15 C -0.371220 -1.514726 2.302091 0
M  V30 16 C -1.598798 -1.953214 2.135921 0
M  V30 17 N -2.815407 -1.454142 1.596879 0
M  V30 18 C -2.603085 -1.436116 0.176190 0
M  V30 19 C -2.219619 -0.305772 -0.528528 0
M  V30 20 C -2.009503 -0.319917 -1.887245 0
M  V30 21 C -2.173526 -1.475304 -2.617373 0
M  V30 22 C -2.554053 -2.606464 -1.933439 0
M  V30 23 C -2.715824 -3.797281 -2.718349 0
M  V30 24 N -2.859178 -4.773314 -3.342320 0
M  V30 25 C -2.770554 -2.606296 -0.555988 0
M  V30 26 C -1.704649 -3.314810 2.654372 0
M  V30 27 O -2.649907 -4.170111 2.735270 0
M  V30 28 N -0.441109 -3.732715 3.175070 0
M  V30 29 C 0.404786 -2.595622 2.953816 0
M  V30 30 O 1.635798 -2.592222 3.296654 0
M  V30 31 H -1.250019 3.007161 3.632437 0
M  V30 32 H -2.230837 2.906528 2.174971 0
M  V30 33 H -2.950215 2.384527 3.745137 0
M  V30 34 H 0.063349 3.084997 2.081604 0
M  V30 35 H 2.234811 2.879458 1.008864 0
M  V30 36 H 4.112463 -1.171307 1.290524 0
M  V30 37 H 6.289367 -1.337198 0.091741 0
M  V30 38 H 6.870792 0.442100 -1.530051 0
M  V30 39 H 3.221358 2.446105 -0.753244 0
M  V30 40 H 1.969383 -1.324217 1.166277 0
M  V30 41 H -3.699293 -1.152493 2.074844 0
M  V30 42 H -2.102531 0.584042 0.068395 0
M  V30 43 H -1.712199 0.585459 -2.398845 0
M  V30 44 H -2.009844 -1.496056 -3.683875 0
M  V30 45 H -3.067880 -3.551843 -0.106435 0
M  V30 46 H -0.129098 -4.634323 3.626457 0
M  V30 END ATOM
M  V30 BEGIN BOND
M  V30 1 1 1 2
M  V30 2 1 2 3
M  V30 3 2 3 4
M  V30 4 1 4 5
M  V30 5 2 5 6
M  V30 6 1 6 7
M  V30 7 2 7 8
M  V30 8 1 8 9
M  V30 9 2 9 10
M  V30 10 1 10 11
M  V30 11 2 11 12
M  V30 12 1 6 13
M  V30 13 2 13 14
M  V30 14 1 14 15
M  V30 15 2 15 16
M  V30 16 1 16 17
M  V30 17 1 17 18
M  V30 18 2 18 19
M  V30 19 1 19 20
M  V30 20 2 20 21
M  V30 21 1 21 22
M  V30 22 1 22 23
M  V30 23 3 23 24
M  V30 24 2 22 25
M  V30 25 1 16 26
M  V30 26 2 26 27
M  V30 27 1 26 28
M  V30 28 1 28 29
M  V30 29 2 29 30
M  V30 30 1 14 3
M  V30 31 1 29 15
M  V30 32 1 12 7
M  V30 33 1 25 18
M  V30 34 1 1 31
M  V30 35 1 1 32
M  V30 36 1 1 33
M  V30 37 1 4 34
M  V30 38 1 5 35
M  V30 39 1 8 36
M  V30 40 1 9 37
M  V30 41 1 10 38
M  V30 42 1 12 39
M  V30 43 1 13 40
M  V30 44 1 17 41
M  V30 45 1 19 42
M  V30 46 1 20 43
M  V30 47 1 21 44
M  V30 48 1 25 45
M  V30 49 1 28 46
M  V30 END BOND
M  V30 END CTAB
M  END
>  <Dataset>  (964) 
ChEMBL_Kinases

>  <Ligand_Instance>  (964) 
nan

>  <PDB_ID>  (964) 
nan

>  <Standardized_SMILES>  (964) 
COc1ccc(-c2cccnc2)cc1C1=C(Nc2cccc(C#N)c2)C(=O)NC1=O

>  <Name>  (964) 
nan

>  <Pocket>  (964) 
nan

>  <ATP_Site>  (964) 
nan

>  <Peripheral>  (964) 
nan

>  <Num_H_Atoms_ProtBoundConf>  (964) 
nan

>  <Num_Resolved_Atoms>  (964) 
nan

>  <Num_Not_Resolved_Atoms>  (964) 
nan

$$$$
CHEMBL4852595
     RDKit          3D

  0  0  0  0  0  0  0  0  0  0999 V3000
M  V30 BEGIN CTAB
M  V30 COUNTS 36 38 0 0 0
M  V30 BEGIN ATOM
M  V30 1 O 0.312744 -2.031426 3.505031 0
M  V30 2 C 0.942862 -1.097203 2.952249 0
M  V30 3 N 2.070521 -0.472386 3.507795 0
M  V30 4 C 2.452709 0.507669 2.561233 0
M  V30 5 O 3.435536 1.264305 2.725126 0
M  V30 6 C 1.597368 0.544382 1.388601 0
M  V30 7 C 1.470101 1.238435 0.126161 0
M  V30 8 C 1.457776 0.383782 -0.975561 0
M  V30 9 C 1.297219 0.802580 -2.300714 0
M  V30 10 C 1.142680 2.156923 -2.503322 0
M  V30 11 C 1.156812 2.988153 -1.406166 0
M  V30 12 C 1.315817 2.575420 -0.090146 0
M  V30 13 C 1.315149 3.540097 0.998943 0
M  V30 14 F 0.389328 3.313618 1.991808 0
M  V30 15 F 0.980485 4.802977 0.430478 0
M  V30 16 F 2.565848 3.737119 1.503873 0
M  V30 17 C 0.715246 -0.433743 1.675356 0
M  V30 18 N -0.383825 -0.857886 0.871714 0
M  V30 19 C -1.079683 -2.059775 0.746586 0
M  V30 20 C -2.201348 -2.474962 1.448154 0
M  V30 21 C -2.820264 -3.689054 1.246660 0
M  V30 22 Cl -4.223851 -4.129082 2.173001 0
M  V30 23 C -2.310807 -4.562827 0.293531 0
M  V30 24 O -2.911640 -5.781302 0.073611 0
M  V30 25 C -1.198251 -4.194217 -0.427853 0
M  V30 26 Cl -0.542740 -5.287653 -1.637017 0
M  V30 27 C -0.592898 -2.962855 -0.204456 0
M  V30 28 H 2.547055 -0.659070 4.412119 0
M  V30 29 H 1.574768 -0.691632 -0.895171 0
M  V30 30 H 1.292335 0.117473 -3.133933 0
M  V30 31 H 1.013193 2.565754 -3.491107 0
M  V30 32 H 1.030257 4.062679 -1.613396 0
M  V30 33 H -0.829508 -0.172861 0.193418 0
M  V30 34 H -2.545669 -1.747115 2.176013 0
M  V30 35 H -2.493401 -6.681452 0.277575 0
M  V30 36 H 0.271741 -2.741737 -0.805211 0
M  V30 END ATOM
M  V30 BEGIN BOND
M  V30 1 2 1 2
M  V30 2 1 2 3
M  V30 3 1 3 4
M  V30 4 2 4 5
M  V30 5 1 4 6
M  V30 6 1 6 7
M  V30 7 2 7 8
M  V30 8 1 8 9
M  V30 9 2 9 10
M  V30 10 1 10 11
M  V30 11 2 11 12
M  V30 12 1 12 13
M  V30 13 1 13 14
M  V30 14 1 13 15
M  V30 15 1 13 16
M  V30 16 2 6 17
M  V30 17 1 17 18
M  V30 18 1 18 19
M  V30 19 2 19 20
M  V30 20 1 20 21
M  V30 21 1 21 22
M  V30 22 2 21 23
M  V30 23 1 23 24
M  V30 24 1 23 25
M  V30 25 1 25 26
M  V30 26 2 25 27
M  V30 27 1 17 2
M  V30 28 1 27 19
M  V30 29 1 12 7
M  V30 30 1 3 28
M  V30 31 1 8 29
M  V30 32 1 9 30
M  V30 33 1 10 31
M  V30 34 1 11 32
M  V30 35 1 18 33
M  V30 36 1 20 34
M  V30 37 1 24 35
M  V30 38 1 27 36
M  V30 END BOND
M  V30 END CTAB
M  END
>  <Dataset>  (965) 
ChEMBL_Kinases

>  <Ligand_Instance>  (965) 
nan

>  <PDB_ID>  (965) 
nan

>  <Standardized_SMILES>  (965) 
O=C1NC(=O)C(c2ccccc2C(F)(F)F)=C1Nc1cc(Cl)c(O)c(Cl)c1

>  <Name>  (965) 
nan

>  <Pocket>  (965) 
nan

>  <ATP_Site>  (965) 
nan

>  <Peripheral>  (965) 
nan

>  <Num_H_Atoms_ProtBoundConf>  (965) 
nan

>  <Num_Resolved_Atoms>  (965) 
nan

>  <Num_Not_Resolved_Atoms>  (965) 
nan

$$$$
CHEMBL4852679
     RDKit          3D

  0  0  0  0  0  0  0  0  0  0999 V3000
M  V30 BEGIN CTAB
M  V30 COUNTS 60 65 0 0 0
M  V30 BEGIN ATOM
M  V30 1 C 4.171999 -1.672150 3.386754 0
M  V30 2 N 4.819859 -2.499943 2.427293 0
M  V30 3 C 3.844649 -3.176140 1.627364 0
M  V30 4 C 3.945364 -2.713315 0.199267 0
M  V30 5 N 4.155821 -1.277428 0.225867 0
M  V30 6 C 3.203070 -0.233199 -0.035077 0
M  V30 7 C 3.540741 1.021648 -0.533512 0
M  V30 8 C 2.509466 1.945350 -0.706048 0
M  V30 9 C 1.193991 1.699431 -0.418205 0
M  V30 10 N 0.179559 2.679275 -0.614756 0
M  V30 11 C -1.146834 2.549419 -0.131606 0
M  V30 12 N -1.444421 3.612907 0.629679 0
M  V30 13 C -2.622281 3.811083 1.248577 0
M  V30 14 C -3.628066 2.865499 1.112541 0
M  V30 15 C -4.916265 2.711867 1.569716 0
M  V30 16 F -5.568709 3.602495 2.378973 0
M  V30 17 C -5.380179 1.502640 1.049452 0
M  V30 18 N -4.385279 0.962607 0.303720 0
M  V30 19 C -4.546157 -0.306501 -0.373689 0
M  V30 20 C -5.389585 -0.417729 -1.458193 0
M  V30 21 C -5.458688 -1.678017 -2.005924 0
M  V30 22 C -4.770822 -2.784616 -1.560941 0
M  V30 23 C -3.932206 -2.594687 -0.453937 0
M  V30 24 C -3.077038 -3.586810 0.239484 0
M  V30 25 F -3.087802 -3.448771 1.615313 0
M  V30 26 C -3.091302 -4.986955 -0.257731 0
M  V30 27 O -1.917609 -4.779563 -1.005546 0
M  V30 28 C -1.644278 -3.620319 -0.310686 0
M  V30 29 N -3.863232 -1.369518 0.081240 0
M  V30 30 C -3.319802 1.776763 0.332625 0
M  V30 31 N -2.104263 1.609391 -0.284419 0
M  V30 32 C 0.907582 0.437888 0.073811 0
M  V30 33 C 1.873958 -0.525987 0.270582 0
M  V30 34 C 5.559833 -1.008996 0.606519 0
M  V30 35 C 5.940218 -1.960759 1.750781 0
M  V30 36 H 4.618712 -1.683066 4.405099 0
M  V30 37 H 3.099168 -2.015728 3.472489 0
M  V30 38 H 4.111203 -0.643096 2.977647 0
M  V30 39 H 2.800340 -2.960792 1.963897 0
M  V30 40 H 4.030346 -4.267806 1.735799 0
M  V30 41 H 4.830469 -3.242897 -0.264597 0
M  V30 42 H 3.023003 -2.975441 -0.372331 0
M  V30 43 H 4.576483 1.219301 -0.759256 0
M  V30 44 H 2.753839 2.930336 -1.095006 0
M  V30 45 H 0.470968 3.539482 -1.160043 0
M  V30 46 H -2.866003 4.676490 1.866867 0
M  V30 47 H -6.379611 1.131464 1.257324 0
M  V30 48 H -5.945727 0.410158 -1.840854 0
M  V30 49 H -6.111237 -1.851465 -2.878014 0
M  V30 50 H -4.780574 -3.776810 -1.941220 0
M  V30 51 H -2.856552 -5.686867 0.582908 0
M  V30 52 H -3.940066 -5.269410 -0.877940 0
M  V30 53 H -1.391762 -2.721295 -0.907499 0
M  V30 54 H -0.895983 -3.765335 0.514774 0
M  V30 55 H -0.146929 0.259768 0.297432 0
M  V30 56 H 1.489533 -1.453174 0.658997 0
M  V30 57 H 6.258538 -1.138074 -0.215004 0
M  V30 58 H 5.551205 0.014433 1.058745 0
M  V30 59 H 6.553989 -1.399773 2.456963 0
M  V30 60 H 6.552027 -2.822228 1.348403 0
M  V30 END ATOM
M  V30 BEGIN BOND
M  V30 1 1 1 2
M  V30 2 1 2 3
M  V30 3 1 3 4
M  V30 4 1 4 5
M  V30 5 1 5 6
M  V30 6 2 6 7
M  V30 7 1 7 8
M  V30 8 2 8 9
M  V30 9 1 9 10
M  V30 10 1 10 11
M  V30 11 2 11 12
M  V30 12 1 12 13
M  V30 13 2 13 14
M  V30 14 1 14 15
M  V30 15 1 15 16
M  V30 16 2 15 17
M  V30 17 1 17 18
M  V30 18 1 18 19
M  V30 19 2 19 20
M  V30 20 1 20 21
M  V30 21 2 21 22
M  V30 22 1 22 23
M  V30 23 1 23 24
M  V30 24 1 24 25
M  V30 25 1 24 26
M  V30 26 1 26 27
M  V30 27 1 27 28
M  V30 28 2 23 29
M  V30 29 1 18 30
M  V30 30 2 30 31
M  V30 31 1 9 32
M  V30 32 2 32 33
M  V30 33 1 5 34
M  V30 34 1 34 35
M  V30 35 1 35 2
M  V30 36 1 33 6
M  V30 37 1 31 11
M  V30 38 1 30 14
M  V30 39 1 29 19
M  V30 40 1 28 24
M  V30 41 1 1 36
M  V30 42 1 1 37
M  V30 43 1 1 38
M  V30 44 1 3 39
M  V30 45 1 3 40
M  V30 46 1 4 41
M  V30 47 1 4 42
M  V30 48 1 7 43
M  V30 49 1 8 44
M  V30 50 1 10 45
M  V30 51 1 13 46
M  V30 52 1 17 47
M  V30 53 1 20 48
M  V30 54 1 21 49
M  V30 55 1 22 50
M  V30 56 1 26 51
M  V30 57 1 26 52
M  V30 58 1 28 53
M  V30 59 1 28 54
M  V30 60 1 32 55
M  V30 61 1 33 56
M  V30 62 1 34 57
M  V30 63 1 34 58
M  V30 64 1 35 59
M  V30 65 1 35 60
M  V30 END BOND
M  V30 END CTAB
M  END
>  <Dataset>  (966) 
ChEMBL_Kinases

>  <Ligand_Instance>  (966) 
nan

>  <PDB_ID>  (966) 
nan

>  <Standardized_SMILES>  (966) 
CN1CCN(c2ccc(Nc3ncc4c(F)cn(-c5cccc(C6(F)COC6)n5)c4n3)cc2)CC1

>  <Name>  (966) 
nan

>  <Pocket>  (966) 
nan

>  <ATP_Site>  (966) 
nan

>  <Peripheral>  (966) 
nan

>  <Num_H_Atoms_ProtBoundConf>  (966) 
nan

>  <Num_Resolved_Atoms>  (966) 
nan

>  <Num_Not_Resolved_Atoms>  (966) 
nan

$$$$
CHEMBL4852708
     RDKit          3D

  0  0  0  0  0  0  0  0  0  0999 V3000
M  V30 BEGIN CTAB
M  V30 COUNTS 47 48 0 0 0
M  V30 BEGIN ATOM
M  V30 1 C -0.577718 -3.099616 0.859283 0
M  V30 2 C 0.832486 -3.618871 0.578439 0
M  V30 3 C 1.047431 -4.824868 1.431962 0
M  V30 4 C 0.962359 -3.954731 -0.899157 0
M  V30 5 N 1.744355 -2.548258 0.846735 0
M  V30 6 C 1.598195 -1.348714 0.091867 0
M  V30 7 N 2.288355 -1.272054 -1.060416 0
M  V30 8 C 2.203533 -0.173541 -1.829013 0
M  V30 9 C 1.387096 0.826662 -1.362113 0
M  V30 10 C 1.312456 2.004308 -2.211700 0
M  V30 11 N 2.002828 2.171750 -3.438896 0
M  V30 12 O 0.778627 3.131246 -2.294870 0
M  V30 13 C 0.661275 0.797911 -0.192921 0
M  V30 14 N -0.173807 1.845071 0.264871 0
M  V30 15 C -0.890106 1.698415 1.515756 0 CFG=2
M  V30 16 C 0.059446 1.491035 2.682969 0
M  V30 17 C -0.684742 1.836179 3.954943 0
M  V30 18 C -2.153219 1.607132 3.755423 0
M  V30 19 C -2.444690 0.409748 2.878413 0 CFG=2
M  V30 20 O -1.965551 -0.756588 3.506679 0
M  V30 21 C -1.905848 0.566838 1.479599 0
M  V30 22 N 0.795271 -0.332032 0.523889 0
M  V30 23 H -0.840464 -2.440836 0.012940 0
M  V30 24 H -0.524974 -2.548802 1.837083 0
M  V30 25 H -1.301550 -3.930790 0.950608 0
M  V30 26 H 0.145036 -5.474327 1.298174 0
M  V30 27 H 1.925677 -5.428811 1.171113 0
M  V30 28 H 1.066580 -4.506412 2.493814 0
M  V30 29 H 0.502374 -3.103893 -1.471142 0
M  V30 30 H 2.026375 -3.989950 -1.178007 0
M  V30 31 H 0.438718 -4.904609 -1.143654 0
M  V30 32 H 2.487126 -2.649982 1.570855 0
M  V30 33 H 2.757199 -0.122675 -2.744667 0
M  V30 34 H 2.912169 2.649063 -3.662795 0
M  V30 35 H 2.903218 2.641577 -3.675712 0
M  V30 36 H -0.298138 2.732214 -0.267582 0
M  V30 37 H -1.466074 2.602995 1.760967 0
M  V30 38 H 0.428419 0.462071 2.737063 0
M  V30 39 H 0.934556 2.180906 2.525217 0
M  V30 40 H -0.554835 2.928134 4.116143 0
M  V30 41 H -0.289245 1.268157 4.826986 0
M  V30 42 H -2.709127 2.486579 3.374278 0
M  V30 43 H -2.616015 1.368228 4.747646 0
M  V30 44 H -3.552971 0.280156 2.870660 0
M  V30 45 H -2.367436 -1.505344 2.967342 0
M  V30 46 H -1.525049 -0.359923 1.051878 0
M  V30 47 H -2.769517 0.964982 0.870643 0
M  V30 END ATOM
M  V30 BEGIN BOND
M  V30 1 1 1 2
M  V30 2 1 2 3
M  V30 3 1 2 4
M  V30 4 1 2 5
M  V30 5 1 5 6
M  V30 6 2 6 7
M  V30 7 1 7 8
M  V30 8 2 8 9
M  V30 9 1 9 10
M  V30 10 1 10 11
M  V30 11 2 10 12
M  V30 12 1 9 13
M  V30 13 1 13 14
M  V30 14 1 14 15
M  V30 15 1 15 16
M  V30 16 1 16 17
M  V30 17 1 17 18
M  V30 18 1 18 19
M  V30 19 1 19 20
M  V30 20 1 19 21
M  V30 21 2 13 22
M  V30 22 1 22 6
M  V30 23 1 21 15
M  V30 24 1 1 23
M  V30 25 1 1 24
M  V30 26 1 1 25
M  V30 27 1 3 26
M  V30 28 1 3 27
M  V30 29 1 3 28
M  V30 30 1 4 29
M  V30 31 1 4 30
M  V30 32 1 4 31
M  V30 33 1 5 32
M  V30 34 1 8 33
M  V30 35 1 11 34
M  V30 36 1 11 35
M  V30 37 1 14 36
M  V30 38 1 15 37 CFG=1
M  V30 39 1 16 38
M  V30 40 1 16 39
M  V30 41 1 17 40
M  V30 42 1 17 41
M  V30 43 1 18 42
M  V30 44 1 18 43
M  V30 45 1 19 44 CFG=3
M  V30 46 1 20 45
M  V30 47 1 21 46
M  V30 48 1 21 47
M  V30 END BOND
M  V30 END CTAB
M  END
>  <Dataset>  (967) 
ChEMBL_Kinases

>  <Ligand_Instance>  (967) 
nan

>  <PDB_ID>  (967) 
nan

>  <Standardized_SMILES>  (967) 
CC(C)(C)Nc1ncc(C(N)=O)c(N[C@@H]2CCC[C@H](O)C2)n1

>  <Name>  (967) 
nan

>  <Pocket>  (967) 
nan

>  <ATP_Site>  (967) 
nan

>  <Peripheral>  (967) 
nan

>  <Num_H_Atoms_ProtBoundConf>  (967) 
nan

>  <Num_Resolved_Atoms>  (967) 
nan

>  <Num_Not_Resolved_Atoms>  (967) 
nan

$$$$
CHEMBL4852765
     RDKit          3D

  0  0  0  0  0  0  0  0  0  0999 V3000
M  V30 BEGIN CTAB
M  V30 COUNTS 47 50 0 0 0
M  V30 BEGIN ATOM
M  V30 1 C -1.073191 0.868706 -0.923746 0
M  V30 2 O -0.718858 0.676582 0.415416 0
M  V30 3 C 0.543480 0.510247 0.923490 0
M  V30 4 C 1.684067 0.503648 0.157122 0
M  V30 5 C 2.954030 0.339404 0.667034 0
M  V30 6 C 4.134596 0.323395 -0.180073 0
M  V30 7 C 5.230736 -0.453320 0.200347 0
M  V30 8 C 6.387129 -0.538130 -0.540206 0
M  V30 9 C 6.351353 0.214425 -1.683645 0
M  V30 10 C 5.349258 1.037843 -2.205655 0
M  V30 11 C 4.226346 1.038359 -1.360555 0
M  V30 12 C 3.037984 0.174702 2.054472 0
M  V30 13 C 1.897833 0.180532 2.831888 0
M  V30 14 C 0.616661 0.346383 2.298681 0
M  V30 15 C -0.536044 0.287577 3.183324 0
M  V30 16 C -1.494331 -0.522314 2.817138 0
M  V30 17 N -1.731990 -1.409543 1.730587 0
M  V30 18 C -2.944597 -1.703689 1.058714 0
M  V30 19 C -3.871589 -0.778378 0.643365 0
M  V30 20 C -5.022166 -1.250676 0.019352 0
M  V30 21 C -5.261563 -2.599970 -0.193285 0
M  V30 22 C -4.310537 -3.498279 0.236474 0
M  V30 23 C -4.513657 -4.908884 0.041635 0
M  V30 24 N -4.669486 -6.053664 -0.134989 0
M  V30 25 C -3.160924 -3.076940 0.855735 0
M  V30 26 C -2.590196 -0.473640 3.805695 0
M  V30 27 O -3.707939 -1.040303 3.916956 0
M  V30 28 N -2.179742 0.465172 4.823389 0
M  V30 29 C -0.884316 0.944080 4.432139 0
M  V30 30 O -0.070117 1.766823 4.945936 0
M  V30 31 H -1.897944 0.173454 -1.246295 0
M  V30 32 H -0.265000 0.685096 -1.656728 0
M  V30 33 H -1.470146 1.882206 -1.137814 0
M  V30 34 H 1.616300 0.633999 -0.914297 0
M  V30 35 H 5.156758 -1.019565 1.130956 0
M  V30 36 H 7.248675 -1.113355 -0.303095 0
M  V30 37 H 7.253024 0.190804 -2.317312 0
M  V30 38 H 5.422153 1.588729 -3.113860 0
M  V30 39 H 3.387085 1.657700 -1.690438 0
M  V30 40 H 3.991411 0.045719 2.522396 0
M  V30 41 H 1.960096 0.052399 3.919716 0
M  V30 42 H -0.849994 -1.900585 1.385567 0
M  V30 43 H -3.644327 0.247027 0.826876 0
M  V30 44 H -5.736776 -0.503321 -0.300332 0
M  V30 45 H -6.183577 -2.923562 -0.691923 0
M  V30 46 H -2.444336 -3.818483 1.175183 0
M  V30 47 H -2.625545 0.807318 5.696258 0
M  V30 END ATOM
M  V30 BEGIN BOND
M  V30 1 1 1 2
M  V30 2 1 2 3
M  V30 3 2 3 4
M  V30 4 1 4 5
M  V30 5 1 5 6
M  V30 6 2 6 7
M  V30 7 1 7 8
M  V30 8 2 8 9
M  V30 9 1 9 10
M  V30 10 2 10 11
M  V30 11 2 5 12
M  V30 12 1 12 13
M  V30 13 2 13 14
M  V30 14 1 14 15
M  V30 15 2 15 16
M  V30 16 1 16 17
M  V30 17 1 17 18
M  V30 18 2 18 19
M  V30 19 1 19 20
M  V30 20 2 20 21
M  V30 21 1 21 22
M  V30 22 1 22 23
M  V30 23 3 23 24
M  V30 24 2 22 25
M  V30 25 1 16 26
M  V30 26 2 26 27
M  V30 27 1 26 28
M  V30 28 1 28 29
M  V30 29 2 29 30
M  V30 30 1 14 3
M  V30 31 1 29 15
M  V30 32 1 11 6
M  V30 33 1 25 18
M  V30 34 1 1 31
M  V30 35 1 1 32
M  V30 36 1 1 33
M  V30 37 1 4 34
M  V30 38 1 7 35
M  V30 39 1 8 36
M  V30 40 1 9 37
M  V30 41 1 10 38
M  V30 42 1 11 39
M  V30 43 1 12 40
M  V30 44 1 13 41
M  V30 45 1 17 42
M  V30 46 1 19 43
M  V30 47 1 20 44
M  V30 48 1 21 45
M  V30 49 1 25 46
M  V30 50 1 28 47
M  V30 END BOND
M  V30 END CTAB
M  END
>  <Dataset>  (968) 
ChEMBL_Kinases

>  <Ligand_Instance>  (968) 
nan

>  <PDB_ID>  (968) 
nan

>  <Standardized_SMILES>  (968) 
COc1cc(-c2ccccc2)ccc1C1=C(Nc2cccc(C#N)c2)C(=O)NC1=O

>  <Name>  (968) 
nan

>  <Pocket>  (968) 
nan

>  <ATP_Site>  (968) 
nan

>  <Peripheral>  (968) 
nan

>  <Num_H_Atoms_ProtBoundConf>  (968) 
nan

>  <Num_Resolved_Atoms>  (968) 
nan

>  <Num_Not_Resolved_Atoms>  (968) 
nan

$$$$
CHEMBL4869957
     RDKit          3D

  0  0  0  0  0  0  0  0  0  0999 V3000
M  V30 BEGIN CTAB
M  V30 COUNTS 55 60 0 0 0
M  V30 BEGIN ATOM
M  V30 1 O -0.059384 -6.371032 1.575484 0
M  V30 2 C 0.004440 -5.276314 0.983875 0
M  V30 3 C 0.923737 -4.188759 0.685720 0
M  V30 4 C 0.614094 -3.101706 1.476409 0
M  V30 5 C 1.318669 -1.897288 1.386605 0
M  V30 6 C 2.355777 -1.870661 0.442669 0
M  V30 7 C 3.070326 -0.578337 0.312298 0
M  V30 8 C 4.370253 -0.333360 0.011189 0
M  V30 9 C 4.862120 0.949512 -0.092817 0
M  V30 10 C 3.994302 2.029188 0.118987 0
M  V30 11 N 4.204288 3.363773 0.074528 0
M  V30 12 C 3.038457 3.973860 0.349330 0
M  V30 13 C 2.055047 3.029180 0.575948 0
M  V30 14 C 0.623867 3.114702 0.903325 0
M  V30 15 C 0.227996 2.319096 1.983614 0
M  V30 16 C -1.089183 2.241111 2.426074 0
M  V30 17 C -2.053069 2.983095 1.771196 0
M  V30 18 C -3.381228 2.932778 2.174111 0
M  V30 19 N -4.253540 3.688148 1.471560 0
M  V30 20 C -3.920324 4.465728 0.432615 0
M  V30 21 C -2.589157 4.546477 -0.008034 0
M  V30 22 C -1.677382 3.787732 0.688311 0
M  V30 23 C -0.359695 3.846267 0.269681 0
M  V30 24 N 2.701312 1.846000 0.419790 0
M  V30 25 C 2.271329 0.562472 0.507462 0
M  V30 26 C 2.667883 -2.946464 -0.341842 0
M  V30 27 C 1.946961 -4.115693 -0.220947 0
M  V30 28 N -1.269764 -4.964516 0.381592 0
M  V30 29 C -2.399818 -5.852884 0.504364 0
M  V30 30 C -2.984363 -6.033403 -0.879526 0
M  V30 31 O -3.707304 -4.883589 -1.169490 0
M  V30 32 C -3.160153 -3.761110 -0.612135 0
M  V30 33 C -1.683457 -3.820280 -0.403884 0
M  V30 34 H -0.183164 -3.039592 2.239369 0
M  V30 35 H 1.063745 -1.040535 2.030552 0
M  V30 36 H 4.958834 -1.246689 -0.136276 0
M  V30 37 H 5.894096 1.088554 -0.334519 0
M  V30 38 H 2.770935 5.033577 0.415900 0
M  V30 39 H 0.842358 1.678572 2.630369 0
M  V30 40 H -1.460126 1.651034 3.249502 0
M  V30 41 H -3.714627 2.326421 3.002164 0
M  V30 42 H -4.692020 5.048869 -0.088424 0
M  V30 43 H -2.335230 5.165427 -0.835992 0
M  V30 44 H 0.010835 4.437017 -0.554756 0
M  V30 45 H 1.232857 0.421528 0.724765 0
M  V30 46 H 3.459836 -2.928694 -1.059841 0
M  V30 47 H 2.086588 -5.027195 -0.770556 0
M  V30 48 H -3.209361 -5.362840 1.105184 0
M  V30 49 H -2.141127 -6.812747 0.981179 0
M  V30 50 H -3.634598 -6.931514 -0.935338 0
M  V30 51 H -2.148662 -6.073644 -1.593192 0
M  V30 52 H -3.337515 -2.911304 -1.336352 0
M  V30 53 H -3.684551 -3.447852 0.304243 0
M  V30 54 H -1.079605 -3.748389 -1.328266 0
M  V30 55 H -1.417454 -2.904659 0.199475 0
M  V30 END ATOM
M  V30 BEGIN BOND
M  V30 1 2 1 2
M  V30 2 1 2 3
M  V30 3 2 3 4
M  V30 4 1 4 5
M  V30 5 2 5 6
M  V30 6 1 6 7
M  V30 7 1 7 8
M  V30 8 2 8 9
M  V30 9 1 9 10
M  V30 10 2 10 11
M  V30 11 1 11 12
M  V30 12 2 12 13
M  V30 13 1 13 14
M  V30 14 2 14 15
M  V30 15 1 15 16
M  V30 16 2 16 17
M  V30 17 1 17 18
M  V30 18 2 18 19
M  V30 19 1 19 20
M  V30 20 2 20 21
M  V30 21 1 21 22
M  V30 22 2 22 23
M  V30 23 1 13 24
M  V30 24 1 24 25
M  V30 25 1 6 26
M  V30 26 2 26 27
M  V30 27 1 2 28
M  V30 28 1 28 29
M  V30 29 1 29 30
M  V30 30 1 30 31
M  V30 31 1 31 32
M  V30 32 1 32 33
M  V30 33 1 27 3
M  V30 34 1 33 28
M  V30 35 2 25 7
M  V30 36 1 24 10
M  V30 37 1 23 14
M  V30 38 1 22 17
M  V30 39 1 4 34
M  V30 40 1 5 35
M  V30 41 1 8 36
M  V30 42 1 9 37
M  V30 43 1 12 38
M  V30 44 1 15 39
M  V30 45 1 16 40
M  V30 46 1 18 41
M  V30 47 1 20 42
M  V30 48 1 21 43
M  V30 49 1 23 44
M  V30 50 1 25 45
M  V30 51 1 26 46
M  V30 52 1 27 47
M  V30 53 1 29 48
M  V30 54 1 29 49
M  V30 55 1 30 50
M  V30 56 1 30 51
M  V30 57 1 32 52
M  V30 58 1 32 53
M  V30 59 1 33 54
M  V30 60 1 33 55
M  V30 END BOND
M  V30 END CTAB
M  END
>  <Dataset>  (969) 
ChEMBL_Kinases

>  <Ligand_Instance>  (969) 
nan

>  <PDB_ID>  (969) 
nan

>  <Standardized_SMILES>  (969) 
O=C(c1ccc(-c2ccc3ncc(-c4ccc5cnccc5c4)n3c2)cc1)N1CCOCC1

>  <Name>  (969) 
nan

>  <Pocket>  (969) 
nan

>  <ATP_Site>  (969) 
nan

>  <Peripheral>  (969) 
nan

>  <Num_H_Atoms_ProtBoundConf>  (969) 
nan

>  <Num_Resolved_Atoms>  (969) 
nan

>  <Num_Not_Resolved_Atoms>  (969) 
nan

$$$$
CHEMBL4852274
     RDKit          3D

  0  0  0  0  0  0  0  0  0  0999 V3000
M  V30 BEGIN CTAB
M  V30 COUNTS 59 64 0 0 0
M  V30 BEGIN ATOM
M  V30 1 N 5.705754 -0.527346 3.555045 0
M  V30 2 C 4.704225 -1.043847 2.650383 0 CFG=2
M  V30 3 C 5.308725 -1.935630 1.587594 0
M  V30 4 C 6.317821 -1.181254 0.742627 0
M  V30 5 C 6.072945 0.299467 0.724273 0
M  V30 6 N 4.639417 0.541161 0.795018 0
M  V30 7 C 4.028392 1.263161 -0.254861 0
M  V30 8 O 4.934554 1.572489 -1.104776 0
M  V30 9 C 2.605130 1.527836 -0.230066 0
M  V30 10 C 1.976904 2.670722 0.222835 0
M  V30 11 C 0.603497 2.797009 0.189710 0
M  V30 12 C -0.193124 1.782064 -0.299408 0
M  V30 13 C -1.668283 1.840248 -0.372252 0
M  V30 14 C -2.335446 3.043000 -0.585764 0
M  V30 15 C -3.725993 2.959740 -0.632735 0
M  V30 16 C -4.421931 1.794518 -0.483807 0
M  V30 17 N -5.753187 1.517431 -0.503594 0
M  V30 18 C -5.925295 0.197731 -0.310998 0
M  V30 19 C -4.669168 -0.357802 -0.168123 0
M  V30 20 C -4.398824 -1.774611 0.055995 0
M  V30 21 C -3.478813 -2.072331 1.064082 0
M  V30 22 C -3.128657 -3.378818 1.382785 0
M  V30 23 C -3.704789 -4.430954 0.684044 0
M  V30 24 C -3.384204 -5.755961 0.968437 0
M  V30 25 N -3.964569 -6.731943 0.269378 0
M  V30 26 C -4.851373 -6.469784 -0.703277 0
M  V30 27 C -5.209521 -5.175552 -1.031197 0
M  V30 28 C -4.622974 -4.132434 -0.321549 0
M  V30 29 C -4.960444 -2.824474 -0.626276 0
M  V30 30 N -3.745178 0.634596 -0.276504 0
M  V30 31 C -2.402790 0.679953 -0.225875 0
M  V30 32 C 0.405899 0.605780 -0.768598 0
M  V30 33 C 1.802225 0.496692 -0.726095 0
M  V30 34 C 3.914805 0.024781 1.947755 0
M  V30 35 H 5.302843 -0.211656 4.453297 0
M  V30 36 H 6.337173 -1.350483 3.780298 0
M  V30 37 H 3.951140 -1.697690 3.181564 0
M  V30 38 H 4.448782 -2.252107 0.948437 0
M  V30 39 H 5.746015 -2.864313 2.000665 0
M  V30 40 H 7.330427 -1.402462 1.127061 0
M  V30 41 H 6.251003 -1.562017 -0.299875 0
M  V30 42 H 6.618545 0.863253 1.516007 0
M  V30 43 H 6.495814 0.679635 -0.230930 0
M  V30 44 H 2.616827 3.440974 0.595808 0
M  V30 45 H 0.119847 3.686467 0.543969 0
M  V30 46 H -1.778954 3.949952 -0.701343 0
M  V30 47 H -4.238834 3.901685 -0.799344 0
M  V30 48 H -6.907929 -0.257340 -0.286790 0
M  V30 49 H -2.942505 -1.371582 1.704936 0
M  V30 50 H -2.438327 -3.682470 2.135208 0
M  V30 51 H -2.669332 -5.948023 1.755157 0
M  V30 52 H -5.278588 -7.317627 -1.221119 0
M  V30 53 H -5.929459 -4.967521 -1.823199 0
M  V30 54 H -5.668500 -2.557361 -1.398227 0
M  V30 55 H -1.847086 -0.228823 -0.068261 0
M  V30 56 H -0.145867 -0.255260 -1.174787 0
M  V30 57 H 2.237457 -0.432506 -1.097817 0
M  V30 58 H 3.001711 -0.473810 1.534423 0
M  V30 59 H 3.580937 0.840512 2.620203 0
M  V30 END ATOM
M  V30 BEGIN BOND
M  V30 1 1 1 2
M  V30 2 1 2 3
M  V30 3 1 3 4
M  V30 4 1 4 5
M  V30 5 1 5 6
M  V30 6 1 6 7
M  V30 7 2 7 8
M  V30 8 1 7 9
M  V30 9 2 9 10
M  V30 10 1 10 11
M  V30 11 2 11 12
M  V30 12 1 12 13
M  V30 13 1 13 14
M  V30 14 2 14 15
M  V30 15 1 15 16
M  V30 16 2 16 17
M  V30 17 1 17 18
M  V30 18 2 18 19
M  V30 19 1 19 20
M  V30 20 2 20 21
M  V30 21 1 21 22
M  V30 22 2 22 23
M  V30 23 1 23 24
M  V30 24 2 24 25
M  V30 25 1 25 26
M  V30 26 2 26 27
M  V30 27 1 27 28
M  V30 28 2 28 29
M  V30 29 1 19 30
M  V30 30 1 30 31
M  V30 31 1 12 32
M  V30 32 2 32 33
M  V30 33 1 6 34
M  V30 34 1 34 2
M  V30 35 1 33 9
M  V30 36 2 31 13
M  V30 37 1 30 16
M  V30 38 1 29 20
M  V30 39 1 28 23
M  V30 40 1 1 35
M  V30 41 1 1 36
M  V30 42 1 2 37 CFG=1
M  V30 43 1 3 38
M  V30 44 1 3 39
M  V30 45 1 4 40
M  V30 46 1 4 41
M  V30 47 1 5 42
M  V30 48 1 5 43
M  V30 49 1 10 44
M  V30 50 1 11 45
M  V30 51 1 14 46
M  V30 52 1 15 47
M  V30 53 1 18 48
M  V30 54 1 21 49
M  V30 55 1 22 50
M  V30 56 1 24 51
M  V30 57 1 26 52
M  V30 58 1 27 53
M  V30 59 1 29 54
M  V30 60 1 31 55
M  V30 61 1 32 56
M  V30 62 1 33 57
M  V30 63 1 34 58
M  V30 64 1 34 59
M  V30 END BOND
M  V30 END CTAB
M  END
>  <Dataset>  (970) 
ChEMBL_Kinases

>  <Ligand_Instance>  (970) 
nan

>  <PDB_ID>  (970) 
nan

>  <Standardized_SMILES>  (970) 
N[C@@H]1CCCN(C(=O)c2ccc(-c3ccc4ncc(-c5ccc6cnccc6c5)n4c3)cc2)C1

>  <Name>  (970) 
nan

>  <Pocket>  (970) 
nan

>  <ATP_Site>  (970) 
nan

>  <Peripheral>  (970) 
nan

>  <Num_H_Atoms_ProtBoundConf>  (970) 
nan

>  <Num_Resolved_Atoms>  (970) 
nan

>  <Num_Not_Resolved_Atoms>  (970) 
nan

$$$$
CHEMBL4871476
     RDKit          3D

  0  0  0  0  0  0  0  0  0  0999 V3000
M  V30 BEGIN CTAB
M  V30 COUNTS 37 40 0 0 0
M  V30 BEGIN ATOM
M  V30 1 O 4.113503 -1.925388 2.864328 0
M  V30 2 S 2.932464 -2.677060 2.318325 0
M  V30 3 O 2.312042 -3.507299 3.403820 0
M  V30 4 N 3.497579 -3.625014 0.994920 0
M  V30 5 C 2.461840 -4.353653 0.318173 0
M  V30 6 C 2.558070 -4.625553 -1.138767 0
M  V30 7 C 2.871899 -5.734511 -0.155894 0
M  V30 8 C 1.812933 -1.505974 1.672613 0
M  V30 9 C 0.475367 -1.706743 1.542778 0
M  V30 10 C -0.375207 -0.751290 1.025816 0
M  V30 11 C 0.102874 0.475187 0.609110 0
M  V30 12 C -0.709461 1.555638 0.048116 0
M  V30 13 N -0.316773 2.232591 -1.045116 0
M  V30 14 N -1.204842 3.158024 -1.367369 0
M  V30 15 C -2.216328 3.109184 -0.479661 0
M  V30 16 C -3.384985 3.829919 -0.338166 0
M  V30 17 C -4.213494 3.495677 0.723730 0
M  V30 18 F -5.344829 4.252469 0.793471 0
M  V30 19 C -3.893288 2.486867 1.608014 0
M  V30 20 C -2.723299 1.763746 1.468140 0
M  V30 21 C -1.917731 2.108667 0.412968 0
M  V30 22 C 1.465631 0.709857 0.729307 0
M  V30 23 C 2.279479 -0.273636 1.251740 0
M  V30 24 H 4.284006 -4.252949 1.265564 0
M  V30 25 H 1.424198 -4.245403 0.694669 0
M  V30 26 H 3.410462 -4.254381 -1.741780 0
M  V30 27 H 1.642385 -4.785550 -1.722706 0
M  V30 28 H 2.185979 -6.585702 -0.078469 0
M  V30 29 H 3.949348 -6.022374 -0.074138 0
M  V30 30 H 0.055796 -2.652047 1.855934 0
M  V30 31 H -1.434453 -0.913640 0.924352 0
M  V30 32 H -1.109942 3.813666 -2.191373 0
M  V30 33 H -3.568775 4.605247 -1.069069 0
M  V30 34 H -4.595393 2.289833 2.409816 0
M  V30 35 H -2.463888 0.973328 2.153968 0
M  V30 36 H 1.887084 1.651236 0.418029 0
M  V30 37 H 3.347399 -0.069395 1.337776 0
M  V30 END ATOM
M  V30 BEGIN BOND
M  V30 1 2 1 2
M  V30 2 2 2 3
M  V30 3 1 2 4
M  V30 4 1 4 5
M  V30 5 1 5 6
M  V30 6 1 6 7
M  V30 7 1 2 8
M  V30 8 2 8 9
M  V30 9 1 9 10
M  V30 10 2 10 11
M  V30 11 1 11 12
M  V30 12 2 12 13
M  V30 13 1 13 14
M  V30 14 1 14 15
M  V30 15 2 15 16
M  V30 16 1 16 17
M  V30 17 1 17 18
M  V30 18 2 17 19
M  V30 19 1 19 20
M  V30 20 2 20 21
M  V30 21 1 11 22
M  V30 22 2 22 23
M  V30 23 1 7 5
M  V30 24 1 23 8
M  V30 25 1 21 12
M  V30 26 1 21 15
M  V30 27 1 4 24
M  V30 28 1 5 25
M  V30 29 1 6 26
M  V30 30 1 6 27
M  V30 31 1 7 28
M  V30 32 1 7 29
M  V30 33 1 9 30
M  V30 34 1 10 31
M  V30 35 1 14 32
M  V30 36 1 16 33
M  V30 37 1 19 34
M  V30 38 1 20 35
M  V30 39 1 22 36
M  V30 40 1 23 37
M  V30 END BOND
M  V30 END CTAB
M  END
>  <Dataset>  (971) 
ChEMBL_Kinases

>  <Ligand_Instance>  (971) 
nan

>  <PDB_ID>  (971) 
nan

>  <Standardized_SMILES>  (971) 
O=S(=O)(NC1CC1)c1ccc(-c2n[nH]c3cc(F)ccc23)cc1

>  <Name>  (971) 
nan

>  <Pocket>  (971) 
nan

>  <ATP_Site>  (971) 
nan

>  <Peripheral>  (971) 
nan

>  <Num_H_Atoms_ProtBoundConf>  (971) 
nan

>  <Num_Resolved_Atoms>  (971) 
nan

>  <Num_Not_Resolved_Atoms>  (971) 
nan

$$$$
CHEMBL4871412
     RDKit          3D

  0  0  0  0  0  0  0  0  0  0999 V3000
M  V30 BEGIN CTAB
M  V30 COUNTS 25 27 0 0 0
M  V30 BEGIN ATOM
M  V30 1 O -0.215020 -5.145706 1.844760 0
M  V30 2 C 0.031783 -3.775222 1.758711 0
M  V30 3 C -0.924832 -2.929008 1.191399 0
M  V30 4 C -0.760348 -1.562684 1.067788 0
M  V30 5 C 0.433246 -1.059677 1.547604 0
M  V30 6 C 0.703811 0.390724 1.460857 0
M  V30 7 N 1.220336 1.064516 2.517021 0
M  V30 8 N 1.372423 2.351110 2.193380 0
M  V30 9 C 0.954158 2.529267 0.916036 0
M  V30 10 N 0.859678 3.574093 0.041610 0
M  V30 11 C 0.367563 3.355965 -1.211825 0
M  V30 12 C -0.058239 2.135248 -1.694509 0
M  V30 13 Br -0.725829 1.976290 -3.474700 0
M  V30 14 C 0.028695 1.063468 -0.825544 0
M  V30 15 C 0.527664 1.305122 0.433406 0
M  V30 16 C 1.416552 -1.841666 2.117898 0
M  V30 17 C 1.203815 -3.202101 2.218273 0
M  V30 18 H -1.055234 -5.476569 2.323668 0
M  V30 19 H -1.836278 -3.389831 0.836223 0
M  V30 20 H -1.524824 -0.942915 0.622693 0
M  V30 21 H 1.741398 3.137714 2.769782 0
M  V30 22 H 0.341343 4.261585 -1.813546 0
M  V30 23 H -0.289598 0.095201 -1.153849 0
M  V30 24 H 2.343355 -1.433027 2.487825 0
M  V30 25 H 1.929830 -3.886533 2.655000 0
M  V30 END ATOM
M  V30 BEGIN BOND
M  V30 1 1 1 2
M  V30 2 2 2 3
M  V30 3 1 3 4
M  V30 4 2 4 5
M  V30 5 1 5 6
M  V30 6 2 6 7
M  V30 7 1 7 8
M  V30 8 1 8 9
M  V30 9 2 9 10
M  V30 10 1 10 11
M  V30 11 2 11 12
M  V30 12 1 12 13
M  V30 13 1 12 14
M  V30 14 2 14 15
M  V30 15 1 5 16
M  V30 16 2 16 17
M  V30 17 1 17 2
M  V30 18 1 15 6
M  V30 19 1 15 9
M  V30 20 1 1 18
M  V30 21 1 3 19
M  V30 22 1 4 20
M  V30 23 1 8 21
M  V30 24 1 11 22
M  V30 25 1 14 23
M  V30 26 1 16 24
M  V30 27 1 17 25
M  V30 END BOND
M  V30 END CTAB
M  END
>  <Dataset>  (972) 
ChEMBL_Kinases

>  <Ligand_Instance>  (972) 
nan

>  <PDB_ID>  (972) 
nan

>  <Standardized_SMILES>  (972) 
Oc1ccc(-c2n[nH]c3ncc(Br)cc23)cc1

>  <Name>  (972) 
nan

>  <Pocket>  (972) 
nan

>  <ATP_Site>  (972) 
nan

>  <Peripheral>  (972) 
nan

>  <Num_H_Atoms_ProtBoundConf>  (972) 
nan

>  <Num_Resolved_Atoms>  (972) 
nan

>  <Num_Not_Resolved_Atoms>  (972) 
nan

$$$$
CHEMBL4851228
     RDKit          3D

  0  0  0  0  0  0  0  0  0  0999 V3000
M  V30 BEGIN CTAB
M  V30 COUNTS 47 49 0 0 0
M  V30 BEGIN ATOM
M  V30 1 N 2.204958 -5.045442 2.762947 0
M  V30 2 C 2.183677 -3.993251 2.236313 0
M  V30 3 C 2.169896 -2.704151 1.578491 0
M  V30 4 C 3.304692 -2.247389 0.952924 0
M  V30 5 N 3.336581 -1.057338 0.330355 0
M  V30 6 C 2.253258 -0.260013 0.293914 0
M  V30 7 N 2.269014 1.020033 -0.369415 0
M  V30 8 C 1.125394 1.879449 -0.416759 0
M  V30 9 C 1.326776 3.152008 -1.109009 0
M  V30 10 C 0.817850 3.233872 -2.390823 0
M  V30 11 N 0.976319 4.374047 -3.084089 0
M  V30 12 C 1.625954 5.394131 -2.501342 0
M  V30 13 N 2.118313 5.300694 -1.247500 0
M  V30 14 C 1.996129 4.180707 -0.487153 0
M  V30 15 C 2.542924 4.114830 0.889147 0
M  V30 16 F 3.473793 3.142004 1.081627 0
M  V30 17 F 3.160387 5.340591 1.153611 0
M  V30 18 F 1.468694 4.028892 1.754438 0
M  V30 19 C 1.131323 -0.746650 0.930754 0
M  V30 20 C 1.002340 -1.929148 1.582549 0
M  V30 21 N -0.156585 -2.394422 2.235630 0
M  V30 22 C -1.481254 -1.834184 2.371307 0 CFG=1
M  V30 23 C -2.233893 -1.779775 1.073314 0
M  V30 24 C -2.351050 -3.190303 0.523026 0
M  V30 25 C -3.070670 -4.036856 1.549725 0 CFG=1
M  V30 26 O -2.275633 -5.082642 2.014193 0
M  V30 27 C -3.523513 -3.234566 2.725266 0
M  V30 28 C -2.322792 -2.574284 3.358182 0
M  V30 29 H 4.173752 -2.893515 0.985803 0
M  V30 30 H 3.173724 1.287308 -0.824210 0
M  V30 31 H 0.819963 2.127425 0.639912 0
M  V30 32 H 0.259495 1.299676 -0.808819 0
M  V30 33 H 0.290506 2.401461 -2.860168 0
M  V30 34 H 1.742257 6.310531 -3.084226 0
M  V30 35 H 0.292816 -0.070256 0.882386 0
M  V30 36 H -0.058608 -3.335098 2.727251 0
M  V30 37 H -1.369674 -0.782940 2.771447 0
M  V30 38 H -1.762740 -1.078750 0.398794 0
M  V30 39 H -3.249581 -1.383113 1.284409 0
M  V30 40 H -2.823004 -3.187216 -0.465938 0
M  V30 41 H -1.330518 -3.598014 0.424562 0
M  V30 42 H -3.909468 -4.524849 1.005268 0
M  V30 43 H -2.030390 -5.676687 1.239266 0
M  V30 44 H -4.365994 -2.545679 2.530362 0
M  V30 45 H -3.912871 -3.968021 3.486445 0
M  V30 46 H -1.722464 -3.422525 3.800256 0
M  V30 47 H -2.699999 -1.954854 4.197175 0
M  V30 END ATOM
M  V30 BEGIN BOND
M  V30 1 3 1 2
M  V30 2 1 2 3
M  V30 3 2 3 4
M  V30 4 1 4 5
M  V30 5 2 5 6
M  V30 6 1 6 7
M  V30 7 1 7 8
M  V30 8 1 8 9
M  V30 9 2 9 10
M  V30 10 1 10 11
M  V30 11 2 11 12
M  V30 12 1 12 13
M  V30 13 2 13 14
M  V30 14 1 14 15
M  V30 15 1 15 16
M  V30 16 1 15 17
M  V30 17 1 15 18
M  V30 18 1 6 19
M  V30 19 2 19 20
M  V30 20 1 20 21
M  V30 21 1 21 22
M  V30 22 1 22 23
M  V30 23 1 23 24
M  V30 24 1 24 25
M  V30 25 1 25 26
M  V30 26 1 25 27
M  V30 27 1 27 28
M  V30 28 1 20 3
M  V30 29 1 28 22
M  V30 30 1 14 9
M  V30 31 1 4 29
M  V30 32 1 7 30
M  V30 33 1 8 31
M  V30 34 1 8 32
M  V30 35 1 10 33
M  V30 36 1 12 34
M  V30 37 1 19 35
M  V30 38 1 21 36
M  V30 39 1 22 37 CFG=1
M  V30 40 1 23 38
M  V30 41 1 23 39
M  V30 42 1 24 40
M  V30 43 1 24 41
M  V30 44 1 25 42 CFG=3
M  V30 45 1 26 43
M  V30 46 1 27 44
M  V30 47 1 27 45
M  V30 48 1 28 46
M  V30 49 1 28 47
M  V30 END BOND
M  V30 END CTAB
M  END
>  <Dataset>  (973) 
ChEMBL_Kinases

>  <Ligand_Instance>  (973) 
nan

>  <PDB_ID>  (973) 
nan

>  <Standardized_SMILES>  (973) 
N#Cc1cnc(NCc2cncnc2C(F)(F)F)cc1N[C@H]1CC[C@@H](O)CC1

>  <Name>  (973) 
nan

>  <Pocket>  (973) 
nan

>  <ATP_Site>  (973) 
nan

>  <Peripheral>  (973) 
nan

>  <Num_H_Atoms_ProtBoundConf>  (973) 
nan

>  <Num_Resolved_Atoms>  (973) 
nan

>  <Num_Not_Resolved_Atoms>  (973) 
nan

$$$$
CHEMBL4871372
     RDKit          3D

  0  0  0  0  0  0  0  0  0  0999 V3000
M  V30 BEGIN CTAB
M  V30 COUNTS 41 44 0 0 0
M  V30 BEGIN ATOM
M  V30 1 C 1.123475 -2.651931 3.443862 0
M  V30 2 O 0.881100 -2.364777 2.060533 0
M  V30 3 C 1.848748 -1.796613 1.283069 0
M  V30 4 C 3.082665 -1.497253 1.820453 0
M  V30 5 C 4.085024 -0.915550 1.040346 0
M  V30 6 C 3.856884 -0.627101 -0.293570 0
M  V30 7 C 2.620336 -0.938787 -0.788578 0
M  V30 8 C 1.602020 -1.522969 -0.021949 0
M  V30 9 C 0.309075 -1.870120 -0.631412 0
M  V30 10 C -0.429952 -0.988977 -1.279711 0
M  V30 11 N -0.378262 0.407262 -1.636008 0
M  V30 12 C -0.211620 1.043912 -0.349986 0
M  V30 13 C 0.874949 1.859029 -0.064802 0
M  V30 14 C 1.137730 2.501827 1.118581 0
M  V30 15 C 0.215120 2.310723 2.127513 0
M  V30 16 C -0.897375 1.516186 1.933944 0
M  V30 17 C -1.804516 1.338007 2.957863 0
M  V30 18 C -2.886191 0.528622 2.685777 0
M  V30 19 C -3.071132 -0.077647 1.470408 0
M  V30 20 N -2.176333 0.110907 0.492056 0
M  V30 21 C -1.097976 0.896661 0.709452 0
M  V30 22 C -1.654390 -1.657266 -1.777210 0
M  V30 23 O -2.677412 -1.306976 -2.437595 0
M  V30 24 N -1.601576 -3.040592 -1.374904 0
M  V30 25 C -0.382522 -3.175948 -0.661823 0
M  V30 26 O 0.087026 -4.207505 -0.124016 0
M  V30 27 H 2.098033 -3.127023 3.580095 0
M  V30 28 H 0.338993 -3.264759 3.884335 0
M  V30 29 H 1.161728 -1.644814 3.959316 0
M  V30 30 H 3.356982 -1.683404 2.847320 0
M  V30 31 H 5.058473 -0.676248 1.454636 0
M  V30 32 H 4.592632 -0.173934 -0.961312 0
M  V30 33 H 2.371540 -0.740434 -1.828706 0
M  V30 34 H -0.451476 0.770241 -2.594964 0
M  V30 35 H 1.592792 2.000287 -0.868409 0
M  V30 36 H 2.036436 3.115716 1.208077 0
M  V30 37 H 0.413736 2.812789 3.066399 0
M  V30 38 H -1.663592 1.814861 3.920981 0
M  V30 39 H -3.606393 0.382194 3.486754 0
M  V30 40 H -3.913556 -0.718225 1.234384 0
M  V30 41 H -2.288392 -3.836422 -1.536115 0
M  V30 END ATOM
M  V30 BEGIN BOND
M  V30 1 1 1 2
M  V30 2 1 2 3
M  V30 3 2 3 4
M  V30 4 1 4 5
M  V30 5 2 5 6
M  V30 6 1 6 7
M  V30 7 2 7 8
M  V30 8 1 8 9
M  V30 9 2 9 10
M  V30 10 1 10 11
M  V30 11 1 11 12
M  V30 12 2 12 13
M  V30 13 1 13 14
M  V30 14 2 14 15
M  V30 15 1 15 16
M  V30 16 2 16 17
M  V30 17 1 17 18
M  V30 18 2 18 19
M  V30 19 1 19 20
M  V30 20 2 20 21
M  V30 21 1 10 22
M  V30 22 2 22 23
M  V30 23 1 22 24
M  V30 24 1 24 25
M  V30 25 2 25 26
M  V30 26 1 8 3
M  V30 27 1 25 9
M  V30 28 1 21 12
M  V30 29 1 21 16
M  V30 30 1 1 27
M  V30 31 1 1 28
M  V30 32 1 1 29
M  V30 33 1 4 30
M  V30 34 1 5 31
M  V30 35 1 6 32
M  V30 36 1 7 33
M  V30 37 1 11 34
M  V30 38 1 13 35
M  V30 39 1 14 36
M  V30 40 1 15 37
M  V30 41 1 17 38
M  V30 42 1 18 39
M  V30 43 1 19 40
M  V30 44 1 24 41
M  V30 END BOND
M  V30 END CTAB
M  END
>  <Dataset>  (974) 
ChEMBL_Kinases

>  <Ligand_Instance>  (974) 
nan

>  <PDB_ID>  (974) 
nan

>  <Standardized_SMILES>  (974) 
COc1ccccc1C1=C(Nc2cccc3cccnc23)C(=O)NC1=O

>  <Name>  (974) 
nan

>  <Pocket>  (974) 
nan

>  <ATP_Site>  (974) 
nan

>  <Peripheral>  (974) 
nan

>  <Num_H_Atoms_ProtBoundConf>  (974) 
nan

>  <Num_Resolved_Atoms>  (974) 
nan

>  <Num_Not_Resolved_Atoms>  (974) 
nan

$$$$
CHEMBL4851347
     RDKit          3D

  0  0  0  0  0  0  0  0  0  0999 V3000
M  V30 BEGIN CTAB
M  V30 COUNTS 53 56 0 0 0
M  V30 BEGIN ATOM
M  V30 1 N 0.716742 -5.268378 2.563012 0
M  V30 2 C 0.853903 -4.149440 2.353650 0
M  V30 3 C 1.026954 -2.749809 2.067465 0
M  V30 4 C 2.258485 -2.160927 2.251475 0
M  V30 5 N 2.413517 -0.852092 1.982725 0
M  V30 6 C 1.384873 -0.087537 1.532070 0
M  V30 7 N 1.577888 1.295472 1.257443 0
M  V30 8 C 2.914022 1.821580 1.488053 0
M  V30 9 C 3.052244 3.251980 1.214739 0
M  V30 10 C 3.659959 3.697185 0.045927 0
M  V30 11 N 3.815315 4.994807 -0.268450 0
M  V30 12 C 3.372716 5.945934 0.565891 0
M  V30 13 C 2.769143 5.512161 1.726841 0
M  V30 14 C 2.566738 4.189655 2.131815 0
M  V30 15 C 1.917026 3.830473 3.388609 0
M  V30 16 F 2.715257 3.088043 4.230694 0
M  V30 17 F 1.692140 5.031530 4.079652 0
M  V30 18 F 0.688530 3.304552 3.147351 0
M  V30 19 C 0.161878 -0.715605 1.359566 0
M  V30 20 C -0.086930 -2.049515 1.609506 0
M  V30 21 N -1.332185 -2.662639 1.431197 0
M  V30 22 C -2.552340 -2.067446 0.964169 0 CFG=1
M  V30 23 C -2.476412 -1.512203 -0.429497 0
M  V30 24 C -3.558868 -2.024988 -1.342248 0
M  V30 25 C -3.521921 -3.527627 -1.380683 0 CFG=1
M  V30 26 C -2.216469 -4.021327 -1.907604 0
M  V30 27 N -2.247542 -4.614897 -3.133145 0
M  V30 28 C -0.957559 -4.983351 -3.384461 0
M  V30 29 N -0.210871 -4.612206 -2.334979 0
M  V30 30 N -0.967306 -4.025474 -1.429525 0
M  V30 31 C -3.722589 -4.060992 0.011045 0
M  V30 32 C -3.732584 -3.000411 1.081064 0
M  V30 33 H 3.093011 -2.768888 2.614189 0
M  V30 34 H 0.743354 1.826212 0.907983 0
M  V30 35 H 3.578269 1.260333 0.783142 0
M  V30 36 H 3.271315 1.519200 2.493793 0
M  V30 37 H 4.040439 2.976210 -0.672793 0
M  V30 38 H 3.446233 7.023127 0.410697 0
M  V30 39 H 2.394922 6.269620 2.432994 0
M  V30 40 H -0.612523 -0.081204 1.007972 0
M  V30 41 H -1.390119 -3.698471 1.668736 0
M  V30 42 H -2.795862 -1.203656 1.650648 0
M  V30 43 H -1.503456 -1.837477 -0.866008 0
M  V30 44 H -2.503845 -0.374057 -0.411295 0
M  V30 45 H -4.564878 -1.650985 -1.043445 0
M  V30 46 H -3.312730 -1.601053 -2.363039 0
M  V30 47 H -4.360771 -3.892276 -2.060919 0
M  V30 48 H -0.674739 -5.492385 -4.315146 0
M  V30 49 H 0.806903 -4.824073 -2.371363 0
M  V30 50 H -4.719839 -4.543780 0.047173 0
M  V30 51 H -2.937151 -4.838573 0.237425 0
M  V30 52 H -3.733152 -3.502201 2.051914 0
M  V30 53 H -4.653071 -2.396113 0.991579 0
M  V30 END ATOM
M  V30 BEGIN BOND
M  V30 1 3 1 2
M  V30 2 1 2 3
M  V30 3 2 3 4
M  V30 4 1 4 5
M  V30 5 2 5 6
M  V30 6 1 6 7
M  V30 7 1 7 8
M  V30 8 1 8 9
M  V30 9 2 9 10
M  V30 10 1 10 11
M  V30 11 2 11 12
M  V30 12 1 12 13
M  V30 13 2 13 14
M  V30 14 1 14 15
M  V30 15 1 15 16
M  V30 16 1 15 17
M  V30 17 1 15 18
M  V30 18 1 6 19
M  V30 19 2 19 20
M  V30 20 1 20 21
M  V30 21 1 21 22
M  V30 22 1 22 23
M  V30 23 1 23 24
M  V30 24 1 24 25
M  V30 25 1 25 26
M  V30 26 1 26 27
M  V30 27 2 27 28
M  V30 28 1 28 29
M  V30 29 1 29 30
M  V30 30 1 25 31
M  V30 31 1 31 32
M  V30 32 1 20 3
M  V30 33 1 32 22
M  V30 34 1 14 9
M  V30 35 2 30 26
M  V30 36 1 4 33
M  V30 37 1 7 34
M  V30 38 1 8 35
M  V30 39 1 8 36
M  V30 40 1 10 37
M  V30 41 1 12 38
M  V30 42 1 13 39
M  V30 43 1 19 40
M  V30 44 1 21 41
M  V30 45 1 22 42 CFG=1
M  V30 46 1 23 43
M  V30 47 1 23 44
M  V30 48 1 24 45
M  V30 49 1 24 46
M  V30 50 1 25 47 CFG=3
M  V30 51 1 28 48
M  V30 52 1 29 49
M  V30 53 1 31 50
M  V30 54 1 31 51
M  V30 55 1 32 52
M  V30 56 1 32 53
M  V30 END BOND
M  V30 END CTAB
M  END
>  <Dataset>  (975) 
ChEMBL_Kinases

>  <Ligand_Instance>  (975) 
nan

>  <PDB_ID>  (975) 
nan

>  <Standardized_SMILES>  (975) 
N#Cc1cnc(NCc2cnccc2C(F)(F)F)cc1N[C@H]1CC[C@@H](c2nc[nH]n2)CC1

>  <Name>  (975) 
nan

>  <Pocket>  (975) 
nan

>  <ATP_Site>  (975) 
nan

>  <Peripheral>  (975) 
nan

>  <Num_H_Atoms_ProtBoundConf>  (975) 
nan

>  <Num_Resolved_Atoms>  (975) 
nan

>  <Num_Not_Resolved_Atoms>  (975) 
nan

$$$$
CHEMBL4851363
     RDKit          3D

  0  0  0  0  0  0  0  0  0  0999 V3000
M  V30 BEGIN CTAB
M  V30 COUNTS 57 61 0 0 0
M  V30 BEGIN ATOM
M  V30 1 C 7.982625 -3.854403 1.349328 0
M  V30 2 C 7.202960 -2.674786 1.859828 0
M  V30 3 C 7.550766 -2.031708 3.033234 0
M  V30 4 C 6.790696 -0.944780 3.454755 0
M  V30 5 C 5.704821 -0.514282 2.712402 0
M  V30 6 C 5.326099 -1.129019 1.537138 0
M  V30 7 C 4.194414 -0.725886 0.709682 0
M  V30 8 C 3.398408 0.337970 1.062976 0
M  V30 9 C 2.336584 0.696166 0.262994 0
M  V30 10 N 1.529532 1.804831 0.638205 0
M  V30 11 C 0.334162 2.298820 0.071952 0
M  V30 12 C 0.397406 3.604200 -0.431876 0
M  V30 13 C -0.696874 4.210033 -1.011193 0
M  V30 14 N -1.862731 3.546578 -1.103605 0
M  V30 15 C -1.967958 2.291188 -0.632305 0
M  V30 16 C -3.167604 1.584318 -0.712289 0
M  V30 17 C -3.264052 0.305040 -0.223015 0
M  V30 18 C -4.467068 -0.516774 -0.258944 0
M  V30 19 C -5.418531 -0.450193 -1.256163 0
M  V30 20 C -6.556984 -1.227687 -1.289687 0
M  V30 21 C -6.771838 -2.132173 -0.270752 0
M  V30 22 S -8.164556 -3.193347 -0.166951 0
M  V30 23 C -7.856357 -4.743837 -0.973111 0
M  V30 24 O -8.519739 -3.431825 1.270740 0
M  V30 25 O -9.350204 -2.547836 -0.854416 0
M  V30 26 C -5.858984 -2.259906 0.772540 0
M  V30 27 C -4.730334 -1.447164 0.748955 0
M  V30 28 C -2.142911 -0.279297 0.356694 0
M  V30 29 C -0.947385 0.402930 0.445183 0
M  V30 30 C -0.885626 1.666632 -0.048947 0
M  V30 31 C 2.134473 -0.052481 -0.867953 0
M  V30 32 C 2.916718 -1.122062 -1.243953 0
M  V30 33 N 3.940254 -1.431831 -0.430340 0
M  V30 34 C 6.110644 -2.199394 1.163873 0
M  V30 35 H 8.339686 -4.509063 2.165234 0
M  V30 36 H 7.295255 -4.414670 0.659369 0
M  V30 37 H 8.832283 -3.520604 0.746213 0
M  V30 38 H 8.401646 -2.376206 3.606403 0
M  V30 39 H 7.065687 -0.435868 4.383031 0
M  V30 40 H 5.134047 0.330400 3.063300 0
M  V30 41 H 3.560364 0.924471 1.953280 0
M  V30 42 H 1.800259 2.395318 1.453060 0
M  V30 43 H 1.283099 4.227718 -0.409487 0
M  V30 44 H -0.666334 5.219458 -1.406448 0
M  V30 45 H -4.046043 2.023214 -1.158629 0
M  V30 46 H -5.239097 0.261210 -2.047581 0
M  V30 47 H -7.287845 -1.171572 -2.062633 0
M  V30 48 H -6.844609 -4.664306 -1.447624 0
M  V30 49 H -8.613029 -4.950598 -1.728927 0
M  V30 50 H -7.798886 -5.543473 -0.189002 0
M  V30 51 H -5.985619 -2.958880 1.597621 0
M  V30 52 H -4.028807 -1.568620 1.582219 0
M  V30 53 H -2.182214 -1.299004 0.758357 0
M  V30 54 H -0.109099 -0.084221 0.905469 0
M  V30 55 H 1.300039 0.214492 -1.514023 0
M  V30 56 H 2.754271 -1.708710 -2.135041 0
M  V30 57 H 5.876132 -2.742273 0.241950 0
M  V30 END ATOM
M  V30 BEGIN BOND
M  V30 1 1 1 2
M  V30 2 2 2 3
M  V30 3 1 3 4
M  V30 4 2 4 5
M  V30 5 1 5 6
M  V30 6 1 6 7
M  V30 7 2 7 8
M  V30 8 1 8 9
M  V30 9 1 9 10
M  V30 10 1 10 11
M  V30 11 2 11 12
M  V30 12 1 12 13
M  V30 13 2 13 14
M  V30 14 1 14 15
M  V30 15 2 15 16
M  V30 16 1 16 17
M  V30 17 1 17 18
M  V30 18 2 18 19
M  V30 19 1 19 20
M  V30 20 2 20 21
M  V30 21 1 21 22
M  V30 22 1 22 23
M  V30 23 2 22 24
M  V30 24 2 22 25
M  V30 25 1 21 26
M  V30 26 2 26 27
M  V30 27 2 17 28
M  V30 28 1 28 29
M  V30 29 2 29 30
M  V30 30 2 9 31
M  V30 31 1 31 32
M  V30 32 2 32 33
M  V30 33 2 6 34
M  V30 34 1 34 2
M  V30 35 1 33 7
M  V30 36 1 30 11
M  V30 37 1 30 15
M  V30 38 1 27 18
M  V30 39 1 1 35
M  V30 40 1 1 36
M  V30 41 1 1 37
M  V30 42 1 3 38
M  V30 43 1 4 39
M  V30 44 1 5 40
M  V30 45 1 8 41
M  V30 46 1 10 42
M  V30 47 1 12 43
M  V30 48 1 13 44
M  V30 49 1 16 45
M  V30 50 1 19 46
M  V30 51 1 20 47
M  V30 52 1 23 48
M  V30 53 1 23 49
M  V30 54 1 23 50
M  V30 55 1 26 51
M  V30 56 1 27 52
M  V30 57 1 28 53
M  V30 58 1 29 54
M  V30 59 1 31 55
M  V30 60 1 32 56
M  V30 61 1 34 57
M  V30 END BOND
M  V30 END CTAB
M  END
>  <Dataset>  (976) 
ChEMBL_Kinases

>  <Ligand_Instance>  (976) 
nan

>  <PDB_ID>  (976) 
nan

>  <Standardized_SMILES>  (976) 
Cc1cccc(-c2cc(Nc3ccnc4cc(-c5ccc(S(C)(=O)=O)cc5)ccc34)ccn2)c1

>  <Name>  (976) 
nan

>  <Pocket>  (976) 
nan

>  <ATP_Site>  (976) 
nan

>  <Peripheral>  (976) 
nan

>  <Num_H_Atoms_ProtBoundConf>  (976) 
nan

>  <Num_Resolved_Atoms>  (976) 
nan

>  <Num_Not_Resolved_Atoms>  (976) 
nan

$$$$
CHEMBL4871202
     RDKit          3D

  0  0  0  0  0  0  0  0  0  0999 V3000
M  V30 BEGIN CTAB
M  V30 COUNTS 39 42 0 0 0
M  V30 BEGIN ATOM
M  V30 1 O 2.569417 -3.825530 3.503658 0
M  V30 2 S 1.924008 -4.115172 2.184991 0
M  V30 3 O 2.331408 -5.497412 1.771854 0
M  V30 4 N 2.458360 -2.938847 1.052452 0
M  V30 5 C 2.238076 -1.567510 1.330190 0
M  V30 6 C 2.444351 -0.886575 2.522902 0
M  V30 7 C 2.172945 0.455832 2.608480 0
M  V30 8 C 1.692546 1.189245 1.545463 0
M  V30 9 C 1.473862 0.550513 0.342487 0
M  V30 10 C 0.966157 1.276317 -0.817358 0
M  V30 11 N 1.409860 1.204972 -2.096401 0
M  V30 12 N 0.700836 2.013649 -2.881678 0
M  V30 13 C -0.240899 2.656114 -2.166825 0
M  V30 14 C -1.230338 3.581115 -2.433889 0
M  V30 15 C -2.082627 4.085191 -1.471840 0
M  V30 16 F -3.053366 4.992378 -1.732502 0
M  V30 17 C -1.887691 3.597505 -0.175253 0
M  V30 18 C -0.899723 2.672229 0.098127 0
M  V30 19 C -0.068613 2.189560 -0.876182 0
M  V30 20 C 1.751076 -0.802293 0.268614 0
M  V30 21 C 0.172462 -3.998479 2.347691 0
M  V30 22 C -0.760019 -4.683120 1.596020 0
M  V30 23 C -2.102711 -4.456618 1.874621 0
M  V30 24 C -2.498469 -3.580816 2.864955 0
M  V30 25 N -1.589050 -2.913961 3.597076 0
M  V30 26 C -0.291721 -3.126119 3.335403 0
M  V30 27 H 2.945244 -3.171254 0.153431 0
M  V30 28 H 2.821398 -1.508784 3.322784 0
M  V30 29 H 2.369927 0.879552 3.580005 0
M  V30 30 H 1.499481 2.241994 1.678659 0
M  V30 31 H 0.852542 2.136242 -3.917618 0
M  V30 32 H -1.360961 3.943818 -3.448981 0
M  V30 33 H -2.547431 3.980069 0.600508 0
M  V30 34 H -0.833654 2.361748 1.128851 0
M  V30 35 H 1.562259 -1.260771 -0.701308 0
M  V30 36 H -0.356280 -5.341942 0.849108 0
M  V30 37 H -2.813850 -5.004093 1.272923 0
M  V30 38 H -3.543649 -3.411497 3.073958 0
M  V30 39 H 0.391798 -2.558053 3.960738 0
M  V30 END ATOM
M  V30 BEGIN BOND
M  V30 1 2 1 2
M  V30 2 2 2 3
M  V30 3 1 2 4
M  V30 4 1 4 5
M  V30 5 2 5 6
M  V30 6 1 6 7
M  V30 7 2 7 8
M  V30 8 1 8 9
M  V30 9 1 9 10
M  V30 10 2 10 11
M  V30 11 1 11 12
M  V30 12 1 12 13
M  V30 13 2 13 14
M  V30 14 1 14 15
M  V30 15 1 15 16
M  V30 16 2 15 17
M  V30 17 1 17 18
M  V30 18 2 18 19
M  V30 19 2 9 20
M  V30 20 1 2 21
M  V30 21 2 21 22
M  V30 22 1 22 23
M  V30 23 2 23 24
M  V30 24 1 24 25
M  V30 25 2 25 26
M  V30 26 1 20 5
M  V30 27 1 26 21
M  V30 28 1 19 10
M  V30 29 1 19 13
M  V30 30 1 4 27
M  V30 31 1 6 28
M  V30 32 1 7 29
M  V30 33 1 8 30
M  V30 34 1 12 31
M  V30 35 1 14 32
M  V30 36 1 17 33
M  V30 37 1 18 34
M  V30 38 1 20 35
M  V30 39 1 22 36
M  V30 40 1 23 37
M  V30 41 1 24 38
M  V30 42 1 26 39
M  V30 END BOND
M  V30 END CTAB
M  END
>  <Dataset>  (977) 
ChEMBL_Kinases

>  <Ligand_Instance>  (977) 
nan

>  <PDB_ID>  (977) 
nan

>  <Standardized_SMILES>  (977) 
O=S(=O)(Nc1cccc(-c2n[nH]c3cc(F)ccc23)c1)c1cccnc1

>  <Name>  (977) 
nan

>  <Pocket>  (977) 
nan

>  <ATP_Site>  (977) 
nan

>  <Peripheral>  (977) 
nan

>  <Num_H_Atoms_ProtBoundConf>  (977) 
nan

>  <Num_Resolved_Atoms>  (977) 
nan

>  <Num_Not_Resolved_Atoms>  (977) 
nan

$$$$
CHEMBL485145
     RDKit          3D

  0  0  0  0  0  0  0  0  0  0999 V3000
M  V30 BEGIN CTAB
M  V30 COUNTS 36 38 0 0 0
M  V30 BEGIN ATOM
M  V30 1 C 0.646120 -5.384212 2.822031 0
M  V30 2 C 0.043623 -4.016396 2.898644 0
M  V30 3 C 0.149264 -3.017398 1.925241 0
M  V30 4 C -0.566660 -1.968948 2.463421 0
M  V30 5 C -0.773440 -0.731615 1.893346 0
M  V30 6 C -0.290796 -0.240946 0.608869 0
M  V30 7 C 1.007496 -0.408527 0.170383 0
M  V30 8 C 1.416907 0.073220 -1.055580 0
M  V30 9 C 0.537376 0.739705 -1.883420 0
M  V30 10 N 0.783277 1.297808 -3.167421 0
M  V30 11 S 2.209106 2.234274 -3.439329 0
M  V30 12 C 2.071365 3.633108 -2.323065 0
M  V30 13 O 3.379020 1.421758 -3.008701 0
M  V30 14 O 2.328319 2.680449 -4.852192 0
M  V30 15 C -0.759883 0.904824 -1.440439 0
M  V30 16 C -1.195964 0.432506 -0.217724 0
M  V30 17 C -1.530668 0.209585 2.590674 0
M  V30 18 C -2.046616 -0.125893 3.823766 0
M  V30 19 N -1.825375 -1.358800 4.363323 0
M  V30 20 C -1.096693 -2.273938 3.699481 0
M  V30 21 N -0.700048 -3.548070 3.938586 0
M  V30 22 H -0.091334 -6.131161 2.498942 0
M  V30 23 H 1.164227 -5.627551 3.769304 0
M  V30 24 H 1.420157 -5.361533 2.027560 0
M  V30 25 H 0.669720 -3.067468 0.980836 0
M  V30 26 H 1.721547 -0.925475 0.796090 0
M  V30 27 H 2.416746 -0.026845 -1.453052 0
M  V30 28 H 0.085887 1.131998 -3.945943 0
M  V30 29 H 2.073437 3.250690 -1.292489 0
M  V30 30 H 2.945302 4.281579 -2.442697 0
M  V30 31 H 1.133997 4.159788 -2.571120 0
M  V30 32 H -1.538819 1.420816 -2.022505 0
M  V30 33 H -2.218237 0.568932 0.118522 0
M  V30 34 H -1.756726 1.208806 2.241503 0
M  V30 35 H -2.655790 0.517015 4.473405 0
M  V30 36 H -0.942180 -4.078955 4.806734 0
M  V30 END ATOM
M  V30 BEGIN BOND
M  V30 1 1 1 2
M  V30 2 2 2 3
M  V30 3 1 3 4
M  V30 4 2 4 5
M  V30 5 1 5 6
M  V30 6 2 6 7
M  V30 7 1 7 8
M  V30 8 2 8 9
M  V30 9 1 9 10
M  V30 10 1 10 11
M  V30 11 1 11 12
M  V30 12 2 11 13
M  V30 13 2 11 14
M  V30 14 1 9 15
M  V30 15 2 15 16
M  V30 16 1 5 17
M  V30 17 2 17 18
M  V30 18 1 18 19
M  V30 19 2 19 20
M  V30 20 1 20 21
M  V30 21 1 21 2
M  V30 22 1 20 4
M  V30 23 1 16 6
M  V30 24 1 1 22
M  V30 25 1 1 23
M  V30 26 1 1 24
M  V30 27 1 3 25
M  V30 28 1 7 26
M  V30 29 1 8 27
M  V30 30 1 10 28
M  V30 31 1 12 29
M  V30 32 1 12 30
M  V30 33 1 12 31
M  V30 34 1 15 32
M  V30 35 1 16 33
M  V30 36 1 17 34
M  V30 37 1 18 35
M  V30 38 1 21 36
M  V30 END BOND
M  V30 END CTAB
M  END
>  <Dataset>  (978) 
ChEMBL_Kinases

>  <Ligand_Instance>  (978) 
nan

>  <PDB_ID>  (978) 
nan

>  <Standardized_SMILES>  (978) 
Cc1cc2c(-c3ccc(NS(C)(=O)=O)cc3)ccnc2[nH]1

>  <Name>  (978) 
nan

>  <Pocket>  (978) 
nan

>  <ATP_Site>  (978) 
nan

>  <Peripheral>  (978) 
nan

>  <Num_H_Atoms_ProtBoundConf>  (978) 
nan

>  <Num_Resolved_Atoms>  (978) 
nan

>  <Num_Not_Resolved_Atoms>  (978) 
nan

$$$$
CHEMBL4871178
     RDKit          3D

  0  0  0  0  0  0  0  0  0  0999 V3000
M  V30 BEGIN CTAB
M  V30 COUNTS 37 40 0 0 0
M  V30 BEGIN ATOM
M  V30 1 O 1.789479 -4.105329 3.786198 0
M  V30 2 S 0.942369 -3.149412 2.994785 0
M  V30 3 O -0.493218 -3.257635 3.454068 0
M  V30 4 N 1.039507 -3.541321 1.321432 0
M  V30 5 C 0.437386 -3.008078 0.156817 0
M  V30 6 C -0.146542 -3.893038 -0.759866 0
M  V30 7 C -0.778308 -3.529280 -1.928250 0
M  V30 8 C -0.816618 -2.173313 -2.177564 0
M  V30 9 C -0.273586 -1.219360 -1.342913 0
M  V30 10 C -0.324865 0.214015 -1.625894 0
M  V30 11 N -0.038774 0.666496 -2.859822 0
M  V30 12 N -0.137482 1.991112 -2.927092 0
M  V30 13 C -0.503002 2.456998 -1.698173 0
M  V30 14 C -0.770881 3.672659 -1.088651 0
M  V30 15 C -1.128025 3.737360 0.242058 0
M  V30 16 F -1.384653 4.953171 0.808918 0
M  V30 17 C -1.236163 2.588970 1.033845 0
M  V30 18 C -0.972787 1.371927 0.441829 0
M  V30 19 C -0.619129 1.344711 -0.888130 0
M  V30 20 C 0.336802 -1.684384 -0.198948 0
M  V30 21 C 1.515684 -1.501579 3.285581 0
M  V30 22 C 1.959535 -1.136383 4.693073 0
M  V30 23 C 2.959901 -1.369052 3.628182 0
M  V30 24 H 1.677665 -4.348383 1.043960 0
M  V30 25 H -0.100250 -4.958126 -0.535447 0
M  V30 26 H -1.201072 -4.276722 -2.577526 0
M  V30 27 H -1.297525 -1.820404 -3.076970 0
M  V30 28 H 0.013864 2.648489 -3.719023 0
M  V30 29 H -0.680899 4.546816 -1.720407 0
M  V30 30 H -1.522165 2.740874 2.066154 0
M  V30 31 H -1.054758 0.482951 1.048043 0
M  V30 32 H 0.765984 -0.964835 0.458393 0
M  V30 33 H 0.981984 -0.687368 2.794540 0
M  V30 34 H 1.855250 -0.097770 5.048402 0
M  V30 35 H 1.746718 -1.893220 5.462757 0
M  V30 36 H 3.474872 -0.473900 3.192723 0
M  V30 37 H 3.581350 -2.284081 3.605889 0
M  V30 END ATOM
M  V30 BEGIN BOND
M  V30 1 2 1 2
M  V30 2 2 2 3
M  V30 3 1 2 4
M  V30 4 1 4 5
M  V30 5 2 5 6
M  V30 6 1 6 7
M  V30 7 2 7 8
M  V30 8 1 8 9
M  V30 9 1 9 10
M  V30 10 2 10 11
M  V30 11 1 11 12
M  V30 12 1 12 13
M  V30 13 2 13 14
M  V30 14 1 14 15
M  V30 15 1 15 16
M  V30 16 2 15 17
M  V30 17 1 17 18
M  V30 18 2 18 19
M  V30 19 2 9 20
M  V30 20 1 2 21
M  V30 21 1 21 22
M  V30 22 1 22 23
M  V30 23 1 20 5
M  V30 24 1 23 21
M  V30 25 1 19 10
M  V30 26 1 19 13
M  V30 27 1 4 24
M  V30 28 1 6 25
M  V30 29 1 7 26
M  V30 30 1 8 27
M  V30 31 1 12 28
M  V30 32 1 14 29
M  V30 33 1 17 30
M  V30 34 1 18 31
M  V30 35 1 20 32
M  V30 36 1 21 33
M  V30 37 1 22 34
M  V30 38 1 22 35
M  V30 39 1 23 36
M  V30 40 1 23 37
M  V30 END BOND
M  V30 END CTAB
M  END
>  <Dataset>  (979) 
ChEMBL_Kinases

>  <Ligand_Instance>  (979) 
nan

>  <PDB_ID>  (979) 
nan

>  <Standardized_SMILES>  (979) 
O=S(=O)(Nc1cccc(-c2n[nH]c3cc(F)ccc23)c1)C1CC1

>  <Name>  (979) 
nan

>  <Pocket>  (979) 
nan

>  <ATP_Site>  (979) 
nan

>  <Peripheral>  (979) 
nan

>  <Num_H_Atoms_ProtBoundConf>  (979) 
nan

>  <Num_Resolved_Atoms>  (979) 
nan

>  <Num_Not_Resolved_Atoms>  (979) 
nan

$$$$
CHEMBL4851803
     RDKit          3D

  0  0  0  0  0  0  0  0  0  0999 V3000
M  V30 BEGIN CTAB
M  V30 COUNTS 36 38 0 0 0
M  V30 BEGIN ATOM
M  V30 1 O 2.355940 -4.147801 1.522215 0
M  V30 2 C 2.255260 -2.884832 1.534092 0
M  V30 3 N 3.159541 -2.309644 2.489871 0
M  V30 4 C 2.968715 -0.879377 2.423735 0
M  V30 5 O 3.364484 0.229448 2.920256 0
M  V30 6 C 1.933477 -0.628253 1.408783 0
M  V30 7 C 1.204626 0.487396 0.774828 0
M  V30 8 C -0.052483 0.871957 1.201264 0
M  V30 9 C -0.702124 1.895915 0.546785 0
M  V30 10 C -0.102489 2.531367 -0.524714 0
M  V30 11 C 1.171560 2.101190 -0.914554 0
M  V30 12 C 1.853020 1.081599 -0.285468 0
M  V30 13 C 3.203477 0.715378 -0.786461 0
M  V30 14 F 3.315894 -0.590357 -1.161868 0
M  V30 15 F 4.162724 1.020002 0.146680 0
M  V30 16 F 3.527839 1.477028 -1.910837 0
M  V30 17 C 1.532626 -1.815659 0.905019 0
M  V30 18 N 0.578831 -2.219896 -0.089232 0
M  V30 19 C -0.789626 -1.936555 0.089938 0
M  V30 20 C -1.491474 -1.321773 -0.940168 0
M  V30 21 C -2.836912 -1.067311 -0.718906 0
M  V30 22 C -3.405046 -1.428234 0.485420 0
M  V30 23 O -4.757594 -1.153195 0.662846 0
M  V30 24 C -2.722149 -2.038938 1.515528 0
M  V30 25 Cl -3.535491 -2.460191 3.003005 0
M  V30 26 C -1.380490 -2.291640 1.294331 0
M  V30 27 H 3.907244 -2.484174 3.224726 0
M  V30 28 H -0.514482 0.366423 2.039373 0
M  V30 29 H -1.701978 2.245188 0.837007 0
M  V30 30 H -0.592615 3.343744 -1.059796 0
M  V30 31 H 1.598651 2.644100 -1.769378 0
M  V30 32 H 0.907480 -2.728694 -0.952164 0
M  V30 33 H -1.009316 -1.053106 -1.865897 0
M  V30 34 H -3.364906 -0.587784 -1.526315 0
M  V30 35 H -5.037658 -0.342837 1.211857 0
M  V30 36 H -0.790891 -2.767355 2.063181 0
M  V30 END ATOM
M  V30 BEGIN BOND
M  V30 1 2 1 2
M  V30 2 1 2 3
M  V30 3 1 3 4
M  V30 4 2 4 5
M  V30 5 1 4 6
M  V30 6 1 6 7
M  V30 7 2 7 8
M  V30 8 1 8 9
M  V30 9 2 9 10
M  V30 10 1 10 11
M  V30 11 2 11 12
M  V30 12 1 12 13
M  V30 13 1 13 14
M  V30 14 1 13 15
M  V30 15 1 13 16
M  V30 16 2 6 17
M  V30 17 1 17 18
M  V30 18 1 18 19
M  V30 19 2 19 20
M  V30 20 1 20 21
M  V30 21 2 21 22
M  V30 22 1 22 23
M  V30 23 1 22 24
M  V30 24 1 24 25
M  V30 25 2 24 26
M  V30 26 1 17 2
M  V30 27 1 26 19
M  V30 28 1 12 7
M  V30 29 1 3 27
M  V30 30 1 8 28
M  V30 31 1 9 29
M  V30 32 1 10 30
M  V30 33 1 11 31
M  V30 34 1 18 32
M  V30 35 1 20 33
M  V30 36 1 21 34
M  V30 37 1 23 35
M  V30 38 1 26 36
M  V30 END BOND
M  V30 END CTAB
M  END
>  <Dataset>  (980) 
ChEMBL_Kinases

>  <Ligand_Instance>  (980) 
nan

>  <PDB_ID>  (980) 
nan

>  <Standardized_SMILES>  (980) 
O=C1NC(=O)C(c2ccccc2C(F)(F)F)=C1Nc1ccc(O)c(Cl)c1

>  <Name>  (980) 
nan

>  <Pocket>  (980) 
nan

>  <ATP_Site>  (980) 
nan

>  <Peripheral>  (980) 
nan

>  <Num_H_Atoms_ProtBoundConf>  (980) 
nan

>  <Num_Resolved_Atoms>  (980) 
nan

>  <Num_Not_Resolved_Atoms>  (980) 
nan

$$$$
CHEMBL4870774
     RDKit          3D

  0  0  0  0  0  0  0  0  0  0999 V3000
M  V30 BEGIN CTAB
M  V30 COUNTS 51 53 0 0 0
M  V30 BEGIN ATOM
M  V30 1 N -0.536892 -3.654187 4.406390 0
M  V30 2 C -0.352618 -2.552925 4.085472 0
M  V30 3 C -0.140613 -1.201946 3.712584 0
M  V30 4 C 0.474897 -0.257447 4.500988 0
M  V30 5 N 0.664944 1.032227 4.118003 0
M  V30 6 C 0.223375 1.419169 2.884528 0
M  V30 7 N 0.474313 2.786437 2.589582 0
M  V30 8 C 1.755774 2.975029 1.945398 0
M  V30 9 C 1.898724 2.270687 0.663937 0
M  V30 10 C 2.639893 1.103258 0.532400 0
M  V30 11 N 2.799065 0.422806 -0.619761 0
M  V30 12 C 2.203437 0.895663 -1.730687 0
M  V30 13 C 1.453721 2.056393 -1.650389 0
M  V30 14 C 1.276095 2.774495 -0.472621 0
M  V30 15 C 0.464241 4.019626 -0.418354 0
M  V30 16 F 1.181973 5.122575 -0.006913 0
M  V30 17 F 0.065454 4.301502 -1.726830 0
M  V30 18 F -0.701765 3.866769 0.305663 0
M  V30 19 C -0.397319 0.492407 2.073680 0
M  V30 20 C -0.598669 -0.820175 2.445200 0
M  V30 21 N -1.248377 -1.687839 1.561491 0
M  V30 22 C -1.777827 -1.572292 0.245070 0 CFG=1
M  V30 23 C -0.805017 -1.336668 -0.852425 0
M  V30 24 C -0.121187 -2.552176 -1.373233 0
M  V30 25 C -0.679165 -3.877198 -1.019315 0 CFG=1
M  V30 26 C 0.162078 -4.512474 0.036320 0
M  V30 27 N 0.419263 -5.600098 0.898150 0
M  V30 28 O 1.142890 -3.799493 0.389973 0
M  V30 29 C -2.088202 -3.949376 -0.551893 0
M  V30 30 C -2.708587 -2.651458 -0.161931 0
M  V30 31 H 0.801787 -0.628675 5.467831 0
M  V30 32 H -0.372639 3.319006 2.932069 0
M  V30 33 H 2.503693 2.516383 2.655452 0
M  V30 34 H 2.036385 4.031114 1.823294 0
M  V30 35 H 3.147641 0.673123 1.408962 0
M  V30 36 H 2.299318 0.386795 -2.684254 0
M  V30 37 H 0.966443 2.456159 -2.526741 0
M  V30 38 H -0.687572 0.947170 1.152108 0
M  V30 39 H -1.385209 -2.670106 1.951151 0
M  V30 40 H -2.418163 -0.630395 0.268614 0
M  V30 41 H -1.353720 -0.814099 -1.691418 0
M  V30 42 H -0.061163 -0.587037 -0.522628 0
M  V30 43 H -0.034217 -2.436384 -2.475892 0
M  V30 44 H 0.946237 -2.512700 -1.036056 0
M  V30 45 H -0.565851 -4.551796 -1.897560 0
M  V30 46 H 1.061216 -6.366279 0.625607 0
M  V30 47 H -0.018956 -5.697558 1.855778 0
M  V30 48 H -2.223374 -4.647689 0.302341 0
M  V30 49 H -2.752578 -4.392501 -1.342724 0
M  V30 50 H -3.330998 -2.241214 -1.010090 0
M  V30 51 H -3.454471 -2.793312 0.658336 0
M  V30 END ATOM
M  V30 BEGIN BOND
M  V30 1 3 1 2
M  V30 2 1 2 3
M  V30 3 2 3 4
M  V30 4 1 4 5
M  V30 5 2 5 6
M  V30 6 1 6 7
M  V30 7 1 7 8
M  V30 8 1 8 9
M  V30 9 2 9 10
M  V30 10 1 10 11
M  V30 11 2 11 12
M  V30 12 1 12 13
M  V30 13 2 13 14
M  V30 14 1 14 15
M  V30 15 1 15 16
M  V30 16 1 15 17
M  V30 17 1 15 18
M  V30 18 1 6 19
M  V30 19 2 19 20
M  V30 20 1 20 21
M  V30 21 1 21 22
M  V30 22 1 22 23
M  V30 23 1 23 24
M  V30 24 1 24 25
M  V30 25 1 25 26
M  V30 26 1 26 27
M  V30 27 2 26 28
M  V30 28 1 25 29
M  V30 29 1 29 30
M  V30 30 1 20 3
M  V30 31 1 30 22
M  V30 32 1 14 9
M  V30 33 1 4 31
M  V30 34 1 7 32
M  V30 35 1 8 33
M  V30 36 1 8 34
M  V30 37 1 10 35
M  V30 38 1 12 36
M  V30 39 1 13 37
M  V30 40 1 19 38
M  V30 41 1 21 39
M  V30 42 1 22 40 CFG=1
M  V30 43 1 23 41
M  V30 44 1 23 42
M  V30 45 1 24 43
M  V30 46 1 24 44
M  V30 47 1 25 45 CFG=3
M  V30 48 1 27 46
M  V30 49 1 27 47
M  V30 50 1 29 48
M  V30 51 1 29 49
M  V30 52 1 30 50
M  V30 53 1 30 51
M  V30 END BOND
M  V30 END CTAB
M  END
>  <Dataset>  (981) 
ChEMBL_Kinases

>  <Ligand_Instance>  (981) 
nan

>  <PDB_ID>  (981) 
nan

>  <Standardized_SMILES>  (981) 
N#Cc1cnc(NCc2cnccc2C(F)(F)F)cc1N[C@H]1CC[C@@H](C(N)=O)CC1

>  <Name>  (981) 
nan

>  <Pocket>  (981) 
nan

>  <ATP_Site>  (981) 
nan

>  <Peripheral>  (981) 
nan

>  <Num_H_Atoms_ProtBoundConf>  (981) 
nan

>  <Num_Resolved_Atoms>  (981) 
nan

>  <Num_Not_Resolved_Atoms>  (981) 
nan

$$$$
CHEMBL4851482
     RDKit          3D

  0  0  0  0  0  0  0  0  0  0999 V3000
M  V30 BEGIN CTAB
M  V30 COUNTS 46 49 0 0 0
M  V30 BEGIN ATOM
M  V30 1 C 1.904590 -3.415346 2.798025 0
M  V30 2 O 2.067918 -2.776542 1.535235 0
M  V30 3 C 2.787915 -1.596604 1.404744 0
M  V30 4 C 3.416495 -0.908306 2.414054 0
M  V30 5 C 4.112592 0.275696 2.155279 0
M  V30 6 C 4.175261 0.768836 0.871680 0
M  V30 7 C 3.540934 0.057359 -0.094514 0
M  V30 8 C 2.828376 -1.134684 0.103534 0
M  V30 9 C 2.232904 -1.753556 -1.090894 0
M  V30 10 C 1.535415 -1.005419 -1.966892 0
M  V30 11 N 1.092793 0.321820 -2.217640 0
M  V30 12 C 0.079774 0.453527 -1.219094 0
M  V30 13 C 0.219289 1.081644 -0.003589 0
M  V30 14 C -0.749218 1.179896 0.967734 0
M  V30 15 C -1.994289 0.592139 0.707805 0
M  V30 16 C -2.983506 0.719705 1.774500 0
M  V30 17 C -2.505095 0.743445 3.088192 0
M  V30 18 C -3.370847 0.864882 4.170655 0
M  V30 19 C -4.724943 0.962898 3.921081 0
M  V30 20 C -5.212118 0.941242 2.641086 0
M  V30 21 C -4.339087 0.818869 1.555960 0
M  V30 22 C -2.176019 -0.046080 -0.501610 0
M  V30 23 C -1.178084 -0.123417 -1.449778 0
M  V30 24 C 1.090594 -1.926324 -3.030083 0
M  V30 25 O 0.420165 -1.848518 -4.102543 0
M  V30 26 N 1.551583 -3.257586 -2.751832 0
M  V30 27 C 2.275212 -3.158860 -1.526147 0
M  V30 28 O 2.891836 -3.977241 -0.803926 0
M  V30 29 H 2.812786 -3.949314 3.119886 0
M  V30 30 H 1.636123 -2.690860 3.602579 0
M  V30 31 H 1.097563 -4.177396 2.648517 0
M  V30 32 H 3.309229 -1.378733 3.396550 0
M  V30 33 H 4.579547 0.760386 2.992163 0
M  V30 34 H 4.707915 1.679974 0.654528 0
M  V30 35 H 3.611819 0.482479 -1.107324 0
M  V30 36 H 1.432880 0.984405 -2.935869 0
M  V30 37 H 1.152203 1.550498 0.225128 0
M  V30 38 H -0.555255 1.691627 1.895930 0
M  V30 39 H -1.474360 0.672946 3.391375 0
M  V30 40 H -3.022382 0.886423 5.212086 0
M  V30 41 H -5.402298 1.058462 4.762818 0
M  V30 42 H -6.264500 1.015595 2.417469 0
M  V30 43 H -4.719346 0.801950 0.541260 0
M  V30 44 H -3.135171 -0.480187 -0.672529 0
M  V30 45 H -1.338145 -0.625588 -2.388786 0
M  V30 46 H 1.469251 -4.182612 -3.218903 0
M  V30 END ATOM
M  V30 BEGIN BOND
M  V30 1 1 1 2
M  V30 2 1 2 3
M  V30 3 2 3 4
M  V30 4 1 4 5
M  V30 5 2 5 6
M  V30 6 1 6 7
M  V30 7 2 7 8
M  V30 8 1 8 9
M  V30 9 2 9 10
M  V30 10 1 10 11
M  V30 11 1 11 12
M  V30 12 2 12 13
M  V30 13 1 13 14
M  V30 14 2 14 15
M  V30 15 1 15 16
M  V30 16 2 16 17
M  V30 17 1 17 18
M  V30 18 2 18 19
M  V30 19 1 19 20
M  V30 20 2 20 21
M  V30 21 1 15 22
M  V30 22 2 22 23
M  V30 23 1 10 24
M  V30 24 2 24 25
M  V30 25 1 24 26
M  V30 26 1 26 27
M  V30 27 2 27 28
M  V30 28 1 8 3
M  V30 29 1 27 9
M  V30 30 1 23 12
M  V30 31 1 21 16
M  V30 32 1 1 29
M  V30 33 1 1 30
M  V30 34 1 1 31
M  V30 35 1 4 32
M  V30 36 1 5 33
M  V30 37 1 6 34
M  V30 38 1 7 35
M  V30 39 1 11 36
M  V30 40 1 13 37
M  V30 41 1 14 38
M  V30 42 1 17 39
M  V30 43 1 18 40
M  V30 44 1 19 41
M  V30 45 1 20 42
M  V30 46 1 21 43
M  V30 47 1 22 44
M  V30 48 1 23 45
M  V30 49 1 26 46
M  V30 END BOND
M  V30 END CTAB
M  END
>  <Dataset>  (982) 
ChEMBL_Kinases

>  <Ligand_Instance>  (982) 
nan

>  <PDB_ID>  (982) 
nan

>  <Standardized_SMILES>  (982) 
COc1ccccc1C1=C(Nc2ccc(-c3ccccc3)cc2)C(=O)NC1=O

>  <Name>  (982) 
nan

>  <Pocket>  (982) 
nan

>  <ATP_Site>  (982) 
nan

>  <Peripheral>  (982) 
nan

>  <Num_H_Atoms_ProtBoundConf>  (982) 
nan

>  <Num_Resolved_Atoms>  (982) 
nan

>  <Num_Not_Resolved_Atoms>  (982) 
nan

$$$$
CHEMBL4870615
     RDKit          3D

  0  0  0  0  0  0  0  0  0  0999 V3000
M  V30 BEGIN CTAB
M  V30 COUNTS 48 51 0 0 0
M  V30 BEGIN ATOM
M  V30 1 C -2.684675 -1.091812 4.801925 0
M  V30 2 C -1.169908 -1.015797 4.727082 0
M  V30 3 C -0.590128 -2.006909 3.781398 0
M  V30 4 C -0.383704 -1.724369 2.416907 0
M  V30 5 C 0.162210 -2.879796 1.890723 0
M  V30 6 N 0.545128 -3.064605 0.532454 0
M  V30 7 C 0.369183 -2.105919 -0.503456 0
M  V30 8 N 1.073510 -0.969027 -0.652131 0
M  V30 9 C 0.882667 -0.112369 -1.660059 0
M  V30 10 N 1.621360 1.093352 -1.791519 0
M  V30 11 C 2.582855 1.580819 -0.815700 0 CFG=1
M  V30 12 C 3.244098 2.878684 -1.265887 0
M  V30 13 C 1.870040 1.840391 0.487310 0
M  V30 14 C 2.252125 1.562959 1.773477 0
M  V30 15 C 1.399849 1.897019 2.805310 0
M  V30 16 C 0.189548 2.498418 2.537774 0
M  V30 17 F -0.600756 2.798963 3.613618 0
M  V30 18 C -0.179141 2.770420 1.241518 0
M  V30 19 N 0.666326 2.435420 0.263560 0
M  V30 20 N -0.059490 -0.397100 -2.574522 0
M  V30 21 C -0.815664 -1.522119 -2.499808 0
M  V30 22 C -1.773684 -1.752615 -3.483455 0
M  V30 23 C -2.520901 -2.929013 -3.352564 0
M  V30 24 C -2.354745 -3.845929 -2.320229 0
M  V30 25 C -1.368178 -3.513514 -1.393483 0
M  V30 26 F -1.207650 -4.414039 -0.383886 0
M  V30 27 C -0.593798 -2.378112 -1.453066 0
M  V30 28 N 0.278404 -3.798117 2.863047 0
M  V30 29 N -0.168699 -3.286370 3.997456 0
M  V30 30 H -3.137059 -0.075563 4.884345 0
M  V30 31 H -3.042871 -1.453846 3.791682 0
M  V30 32 H -3.057607 -1.820013 5.533746 0
M  V30 33 H -0.935973 -0.004981 4.330786 0
M  V30 34 H -0.766303 -1.151885 5.752977 0
M  V30 35 H -0.608299 -0.800361 1.902328 0
M  V30 36 H 0.991814 -3.932285 0.175036 0
M  V30 37 H 1.489814 1.693605 -2.630046 0
M  V30 38 H 3.358556 0.835905 -0.632005 0
M  V30 39 H 4.350234 2.801213 -1.251372 0
M  V30 40 H 2.965764 3.108658 -2.320307 0
M  V30 41 H 2.988290 3.696178 -0.553476 0
M  V30 42 H 3.230039 1.092330 1.812132 0
M  V30 43 H 1.771270 1.649347 3.794428 0
M  V30 44 H -1.145797 3.246008 1.062588 0
M  V30 45 H -1.931496 -1.065842 -4.298908 0
M  V30 46 H -3.253207 -3.069422 -4.137057 0
M  V30 47 H -2.961280 -4.737727 -2.271478 0
M  V30 48 H -0.228049 -3.727447 4.965535 0
M  V30 END ATOM
M  V30 BEGIN BOND
M  V30 1 1 1 2
M  V30 2 1 2 3
M  V30 3 2 3 4
M  V30 4 1 4 5
M  V30 5 1 5 6
M  V30 6 1 6 7
M  V30 7 2 7 8
M  V30 8 1 8 9
M  V30 9 1 9 10
M  V30 10 1 10 11
M  V30 11 1 11 12
M  V30 12 1 11 13
M  V30 13 2 13 14
M  V30 14 1 14 15
M  V30 15 2 15 16
M  V30 16 1 16 17
M  V30 17 1 16 18
M  V30 18 2 18 19
M  V30 19 2 9 20
M  V30 20 1 20 21
M  V30 21 2 21 22
M  V30 22 1 22 23
M  V30 23 2 23 24
M  V30 24 1 24 25
M  V30 25 1 25 26
M  V30 26 2 25 27
M  V30 27 2 5 28
M  V30 28 1 28 29
M  V30 29 1 29 3
M  V30 30 1 27 7
M  V30 31 1 19 13
M  V30 32 1 27 21
M  V30 33 1 1 30
M  V30 34 1 1 31
M  V30 35 1 1 32
M  V30 36 1 2 33
M  V30 37 1 2 34
M  V30 38 1 4 35
M  V30 39 1 6 36
M  V30 40 1 10 37
M  V30 41 1 11 38 CFG=1
M  V30 42 1 12 39
M  V30 43 1 12 40
M  V30 44 1 12 41
M  V30 45 1 14 42
M  V30 46 1 15 43
M  V30 47 1 18 44
M  V30 48 1 22 45
M  V30 49 1 23 46
M  V30 50 1 24 47
M  V30 51 1 29 48
M  V30 END BOND
M  V30 END CTAB
M  END
>  <Dataset>  (983) 
ChEMBL_Kinases

>  <Ligand_Instance>  (983) 
nan

>  <PDB_ID>  (983) 
nan

>  <Standardized_SMILES>  (983) 
CCc1cc(Nc2nc(N[C@@H](C)c3ccc(F)cn3)nc3cccc(F)c23)n[nH]1

>  <Name>  (983) 
nan

>  <Pocket>  (983) 
nan

>  <ATP_Site>  (983) 
nan

>  <Peripheral>  (983) 
nan

>  <Num_H_Atoms_ProtBoundConf>  (983) 
nan

>  <Num_Resolved_Atoms>  (983) 
nan

>  <Num_Not_Resolved_Atoms>  (983) 
nan

$$$$
CHEMBL4851695
     RDKit          3D

  0  0  0  0  0  0  0  0  0  0999 V3000
M  V30 BEGIN CTAB
M  V30 COUNTS 53 55 0 0 0
M  V30 BEGIN ATOM
M  V30 1 C -2.093325 -3.986707 -0.028653 0
M  V30 2 C -0.654128 -3.520972 0.014048 0
M  V30 3 C -0.683570 -2.069521 -0.420446 0
M  V30 4 C -0.235651 -3.655684 1.470976 0
M  V30 5 C 1.272740 -3.448956 1.570260 0 CFG=2
M  V30 6 N 1.609518 -2.079280 1.209501 0
M  V30 7 C 1.184558 -1.029812 1.948204 0
M  V30 8 N 1.554919 0.016992 1.023843 0
M  V30 9 C 1.316867 1.334437 1.318460 0
M  V30 10 N 1.643542 2.400428 0.343215 0
M  V30 11 C 0.876086 3.163661 -0.697536 0
M  V30 12 C -0.357131 3.559245 0.043693 0
M  V30 13 C -0.118762 4.673331 0.880004 0
M  V30 14 N -1.118008 5.010108 1.691784 0
M  V30 15 C -2.284749 4.386262 1.761381 0
M  V30 16 C -2.585763 3.282543 0.965994 0
M  V30 17 C -1.564220 2.894881 0.098505 0
M  V30 18 C -1.826459 1.790836 -0.849381 0
M  V30 19 F -3.049776 1.220768 -0.549340 0
M  V30 20 F -2.114293 2.494622 -2.066866 0
M  V30 21 F -0.832738 0.956828 -1.143668 0
M  V30 22 N 0.731079 1.769253 2.474596 0
M  V30 23 C 0.319005 0.840371 3.468967 0
M  V30 24 C 0.772467 -0.123643 2.669874 0
M  V30 25 C 0.447294 -1.217578 3.824470 0
M  V30 26 N 0.210905 -2.079398 4.711619 0
M  V30 27 C 1.976867 -4.440624 0.699862 0
M  V30 28 C 1.626603 -4.231930 -0.755735 0
M  V30 29 C 0.141066 -4.299572 -0.949128 0 CFG=2
M  V30 30 O -0.102531 -3.732478 -2.224840 0
M  V30 31 H -2.686065 -3.144192 0.434425 0
M  V30 32 H -2.450923 -4.250884 -1.041493 0
M  V30 33 H -2.224436 -4.890660 0.620485 0
M  V30 34 H -1.154245 -1.421101 0.373471 0
M  V30 35 H 0.274529 -1.700579 -0.754667 0
M  V30 36 H -1.371395 -2.049401 -1.327493 0
M  V30 37 H -0.509506 -4.670283 1.842345 0
M  V30 38 H -0.743497 -2.900433 2.034018 0
M  V30 39 H 1.561697 -3.611202 2.606030 0
M  V30 40 H 2.195320 -2.145892 0.374821 0
M  V30 41 H 2.636868 2.445179 0.664296 0
M  V30 42 H 1.482599 4.030585 -0.941277 0
M  V30 43 H 0.737042 2.449062 -1.497371 0
M  V30 44 H 0.809943 5.239788 0.885783 0
M  V30 45 H -3.061564 4.715797 2.444413 0
M  V30 46 H -3.513555 2.725688 0.963947 0
M  V30 47 H -0.034124 1.559140 4.100039 0
M  V30 48 H 3.059677 -4.346867 0.822809 0
M  V30 49 H 1.680195 -5.490912 0.941492 0
M  V30 50 H 1.996763 -3.291600 -1.195990 0
M  V30 51 H 2.097130 -5.075019 -1.329516 0
M  V30 52 H -0.199976 -5.369634 -1.017243 0
M  V30 53 H -1.058823 -3.698976 -2.439382 0
M  V30 END ATOM
M  V30 BEGIN BOND
M  V30 1 1 1 2
M  V30 2 1 2 3
M  V30 3 1 2 4
M  V30 4 1 4 5
M  V30 5 1 5 6
M  V30 6 1 6 7
M  V30 7 2 7 8
M  V30 8 1 8 9
M  V30 9 1 9 10
M  V30 10 1 10 11
M  V30 11 1 11 12
M  V30 12 2 12 13
M  V30 13 1 13 14
M  V30 14 2 14 15
M  V30 15 1 15 16
M  V30 16 2 16 17
M  V30 17 1 17 18
M  V30 18 1 18 19
M  V30 19 1 18 20
M  V30 20 1 18 21
M  V30 21 2 9 22
M  V30 22 1 22 23
M  V30 23 2 23 24
M  V30 24 1 24 25
M  V30 25 3 25 26
M  V30 26 1 5 27
M  V30 27 1 27 28
M  V30 28 1 28 29
M  V30 29 1 29 30
M  V30 30 1 29 2
M  V30 31 1 24 7
M  V30 32 1 17 12
M  V30 33 1 1 31
M  V30 34 1 1 32
M  V30 35 1 1 33
M  V30 36 1 3 34
M  V30 37 1 3 35
M  V30 38 1 3 36
M  V30 39 1 4 37
M  V30 40 1 4 38
M  V30 41 1 5 39 CFG=1
M  V30 42 1 6 40
M  V30 43 1 10 41
M  V30 44 1 11 42
M  V30 45 1 11 43
M  V30 46 1 13 44
M  V30 47 1 15 45
M  V30 48 1 16 46
M  V30 49 1 23 47
M  V30 50 1 27 48
M  V30 51 1 27 49
M  V30 52 1 28 50
M  V30 53 1 28 51
M  V30 54 1 29 52 CFG=3
M  V30 55 1 30 53
M  V30 END BOND
M  V30 END CTAB
M  END
>  <Dataset>  (984) 
ChEMBL_Kinases

>  <Ligand_Instance>  (984) 
nan

>  <PDB_ID>  (984) 
nan

>  <Standardized_SMILES>  (984) 
CC1(C)C[C@H](Nc2nc(NCc3cnccc3C(F)(F)F)ncc2C#N)CC[C@@H]1O

>  <Name>  (984) 
nan

>  <Pocket>  (984) 
nan

>  <ATP_Site>  (984) 
nan

>  <Peripheral>  (984) 
nan

>  <Num_H_Atoms_ProtBoundConf>  (984) 
nan

>  <Num_Resolved_Atoms>  (984) 
nan

>  <Num_Not_Resolved_Atoms>  (984) 
nan

$$$$
CHEMBL4870533
     RDKit          3D

  0  0  0  0  0  0  0  0  0  0999 V3000
M  V30 BEGIN CTAB
M  V30 COUNTS 44 47 0 0 0
M  V30 BEGIN ATOM
M  V30 1 C -2.156684 1.565499 -2.258341 0
M  V30 2 O -1.530973 1.291877 -1.027291 0
M  V30 3 C -0.180231 1.224775 -0.808040 0
M  V30 4 C 0.843473 1.412955 -1.718922 0
M  V30 5 C 2.178462 1.307291 -1.330985 0
M  V30 6 C 2.519546 1.011126 -0.028009 0
M  V30 7 C 3.913170 0.930038 0.381207 0
M  V30 8 C 4.801228 1.746230 -0.239258 0
M  V30 9 C 6.155917 1.724984 0.101869 0
M  V30 10 S 6.232896 0.470469 1.391385 0
M  V30 11 C 4.433486 0.073107 1.372603 0
M  V30 12 C 1.511724 0.818185 0.897701 0
M  V30 13 C 0.197052 0.925270 0.508245 0
M  V30 14 C -0.836613 0.738039 1.551814 0
M  V30 15 C -0.895376 -0.232615 2.456571 0
M  V30 16 N -0.063052 -1.335441 2.718702 0
M  V30 17 C -0.339826 -2.529947 1.999284 0
M  V30 18 C 0.162344 -2.803253 0.716657 0
M  V30 19 C -0.168803 -4.004212 0.117140 0
M  V30 20 C -0.970250 -4.948580 0.719257 0
M  V30 21 C -1.481229 -4.713528 1.979432 0
M  V30 22 C -2.306364 -5.696100 2.602553 0
M  V30 23 N -2.978550 -6.493007 3.115272 0
M  V30 24 C -1.133941 -3.509857 2.549097 0
M  V30 25 C -2.069343 -0.036709 3.302812 0
M  V30 26 O -2.550687 -0.667219 4.272335 0
M  V30 27 N -2.755967 1.130822 2.873403 0
M  V30 28 C -1.989219 1.641242 1.758067 0
M  V30 29 O -2.238333 2.672893 1.066155 0
M  V30 30 H -3.198102 1.156235 -2.203855 0
M  V30 31 H -2.160913 2.663190 -2.419414 0
M  V30 32 H -1.621064 1.046575 -3.104916 0
M  V30 33 H 0.523437 1.641115 -2.731985 0
M  V30 34 H 2.922626 1.469460 -2.105102 0
M  V30 35 H 4.652568 2.477802 -1.019214 0
M  V30 36 H 7.050186 2.199292 -0.165866 0
M  V30 37 H 3.796237 -0.624461 1.928197 0
M  V30 38 H 1.820567 0.586977 1.914051 0
M  V30 39 H 0.695755 -1.191893 3.420239 0
M  V30 40 H 0.774911 -2.061192 0.271314 0
M  V30 41 H 0.230828 -4.199385 -0.877568 0
M  V30 42 H -1.214130 -5.886317 0.218870 0
M  V30 43 H -1.549714 -3.329116 3.552000 0
M  V30 44 H -3.629166 1.666563 3.160121 0
M  V30 END ATOM
M  V30 BEGIN BOND
M  V30 1 1 1 2
M  V30 2 1 2 3
M  V30 3 2 3 4
M  V30 4 1 4 5
M  V30 5 2 5 6
M  V30 6 1 6 7
M  V30 7 1 7 8
M  V30 8 2 8 9
M  V30 9 1 9 10
M  V30 10 1 10 11
M  V30 11 1 6 12
M  V30 12 2 12 13
M  V30 13 1 13 14
M  V30 14 2 14 15
M  V30 15 1 15 16
M  V30 16 1 16 17
M  V30 17 2 17 18
M  V30 18 1 18 19
M  V30 19 2 19 20
M  V30 20 1 20 21
M  V30 21 1 21 22
M  V30 22 3 22 23
M  V30 23 2 21 24
M  V30 24 1 15 25
M  V30 25 2 25 26
M  V30 26 1 25 27
M  V30 27 1 27 28
M  V30 28 2 28 29
M  V30 29 1 13 3
M  V30 30 1 28 14
M  V30 31 2 11 7
M  V30 32 1 24 17
M  V30 33 1 1 30
M  V30 34 1 1 31
M  V30 35 1 1 32
M  V30 36 1 4 33
M  V30 37 1 5 34
M  V30 38 1 8 35
M  V30 39 1 9 36
M  V30 40 1 11 37
M  V30 41 1 12 38
M  V30 42 1 16 39
M  V30 43 1 18 40
M  V30 44 1 19 41
M  V30 45 1 20 42
M  V30 46 1 24 43
M  V30 47 1 27 44
M  V30 END BOND
M  V30 END CTAB
M  END
>  <Dataset>  (985) 
ChEMBL_Kinases

>  <Ligand_Instance>  (985) 
nan

>  <PDB_ID>  (985) 
nan

>  <Standardized_SMILES>  (985) 
COc1ccc(-c2ccsc2)cc1C1=C(Nc2cccc(C#N)c2)C(=O)NC1=O

>  <Name>  (985) 
nan

>  <Pocket>  (985) 
nan

>  <ATP_Site>  (985) 
nan

>  <Peripheral>  (985) 
nan

>  <Num_H_Atoms_ProtBoundConf>  (985) 
nan

>  <Num_Resolved_Atoms>  (985) 
nan

>  <Num_Not_Resolved_Atoms>  (985) 
nan

$$$$
CHEMBL4870529
     RDKit          3D

  0  0  0  0  0  0  0  0  0  0999 V3000
M  V30 BEGIN CTAB
M  V30 COUNTS 42 45 0 0 0
M  V30 BEGIN ATOM
M  V30 1 C 0.719998 -6.142054 0.667722 0
M  V30 2 N 0.338278 -4.761382 0.826720 0
M  V30 3 C -0.923189 -4.414270 1.444376 0
M  V30 4 C 1.203606 -3.725079 0.375691 0
M  V30 5 N 2.389225 -4.037430 -0.201581 0
M  V30 6 C 3.221279 -3.052285 -0.634487 0
M  V30 7 C 2.873784 -1.710838 -0.494217 0
M  V30 8 N 1.699284 -1.391155 0.077323 0
M  V30 9 C 1.132058 -0.201433 0.329155 0
M  V30 10 C 1.615200 1.127749 0.059365 0
M  V30 11 C 1.835515 1.410277 -1.291606 0
M  V30 12 C 2.297698 2.638630 -1.712568 0
M  V30 13 N 2.540483 3.590953 -0.766940 0
M  V30 14 C 2.329312 3.324288 0.542472 0
M  V30 15 N 2.547160 4.238007 1.609604 0
M  V30 16 N 1.878835 2.120452 0.927177 0
M  V30 17 C -0.098319 -0.465182 0.941777 0
M  V30 18 C -1.138415 0.430410 1.434390 0
M  V30 19 C -2.406552 0.367561 0.861488 0
M  V30 20 C -3.429810 1.204963 1.302907 0
M  V30 21 C -3.161519 2.104920 2.326371 0
M  V30 22 F -4.116392 2.942804 2.795945 0
M  V30 23 C -1.912760 2.200024 2.924374 0
M  V30 24 C -0.930985 1.344155 2.447455 0
M  V30 25 N -0.246722 -1.818459 1.046458 0
M  V30 26 C 0.872252 -2.380149 0.507890 0
M  V30 27 H 0.053635 -6.664966 -0.056719 0
M  V30 28 H 1.775941 -6.197905 0.307665 0
M  V30 29 H 0.652362 -6.599203 1.695832 0
M  V30 30 H -0.746593 -3.839752 2.386869 0
M  V30 31 H -1.605879 -3.871973 0.763567 0
M  V30 32 H -1.440236 -5.342989 1.774268 0
M  V30 33 H 4.179835 -3.322361 -1.100841 0
M  V30 34 H 3.533691 -0.935742 -0.837370 0
M  V30 35 H 1.676196 0.726297 -2.138921 0
M  V30 36 H 2.483348 2.904160 -2.743958 0
M  V30 37 H 3.346900 4.643943 2.141923 0
M  V30 38 H 1.594596 4.577357 1.921103 0
M  V30 39 H -2.668071 -0.320683 0.056216 0
M  V30 40 H -4.434638 1.184880 0.879266 0
M  V30 41 H -1.703131 2.901835 3.722589 0
M  V30 42 H 0.037631 1.419079 2.912965 0
M  V30 END ATOM
M  V30 BEGIN BOND
M  V30 1 1 1 2
M  V30 2 1 2 3
M  V30 3 1 2 4
M  V30 4 2 4 5
M  V30 5 1 5 6
M  V30 6 2 6 7
M  V30 7 1 7 8
M  V30 8 1 8 9
M  V30 9 1 9 10
M  V30 10 2 10 11
M  V30 11 1 11 12
M  V30 12 2 12 13
M  V30 13 1 13 14
M  V30 14 1 14 15
M  V30 15 2 14 16
M  V30 16 2 9 17
M  V30 17 1 17 18
M  V30 18 2 18 19
M  V30 19 1 19 20
M  V30 20 2 20 21
M  V30 21 1 21 22
M  V30 22 1 21 23
M  V30 23 2 23 24
M  V30 24 1 17 25
M  V30 25 2 25 26
M  V30 26 1 26 4
M  V30 27 1 26 8
M  V30 28 1 16 10
M  V30 29 1 24 18
M  V30 30 1 1 27
M  V30 31 1 1 28
M  V30 32 1 1 29
M  V30 33 1 3 30
M  V30 34 1 3 31
M  V30 35 1 3 32
M  V30 36 1 6 33
M  V30 37 1 7 34
M  V30 38 1 11 35
M  V30 39 1 12 36
M  V30 40 1 15 37
M  V30 41 1 15 38
M  V30 42 1 19 39
M  V30 43 1 20 40
M  V30 44 1 23 41
M  V30 45 1 24 42
M  V30 END BOND
M  V30 END CTAB
M  END
>  <Dataset>  (986) 
ChEMBL_Kinases

>  <Ligand_Instance>  (986) 
nan

>  <PDB_ID>  (986) 
nan

>  <Standardized_SMILES>  (986) 
CN(C)c1nccn2c(-c3ccnc(N)n3)c(-c3ccc(F)cc3)nc12

>  <Name>  (986) 
nan

>  <Pocket>  (986) 
nan

>  <ATP_Site>  (986) 
nan

>  <Peripheral>  (986) 
nan

>  <Num_H_Atoms_ProtBoundConf>  (986) 
nan

>  <Num_Resolved_Atoms>  (986) 
nan

>  <Num_Not_Resolved_Atoms>  (986) 
nan

$$$$
CHEMBL4870467
     RDKit          3D

  0  0  0  0  0  0  0  0  0  0999 V3000
M  V30 BEGIN CTAB
M  V30 COUNTS 50 54 0 0 0
M  V30 BEGIN ATOM
M  V30 1 O 3.700808 -5.076129 0.717919 0
M  V30 2 C 2.600772 -4.478726 0.555257 0
M  V30 3 O 1.803443 -5.577080 0.831981 0
M  V30 4 C 2.305600 -3.107211 0.199340 0
M  V30 5 C 3.492728 -2.395111 0.020415 0
M  V30 6 C 3.485498 -1.060200 -0.327479 0
M  V30 7 C 2.272354 -0.425929 -0.499514 0
M  V30 8 C 2.173691 0.985896 -0.868021 0
M  V30 9 C 2.951858 1.547986 -1.863531 0
M  V30 10 C 2.715810 2.892156 -2.066836 0
M  V30 11 N 1.821901 3.629450 -1.384610 0
M  V30 12 C 1.079638 3.083623 -0.431806 0
M  V30 13 N 0.119690 3.556720 0.407135 0
M  V30 14 C -0.315735 2.555501 1.193262 0
M  V30 15 C -1.331127 2.541673 2.252214 0
M  V30 16 C -1.641218 1.398272 2.955673 0
M  V30 17 C -2.615092 1.428707 3.956756 0
M  V30 18 C -3.245154 2.634728 4.208626 0
M  V30 19 C -2.969459 3.794725 3.535346 0
M  V30 20 C -1.997328 3.736105 2.545478 0
M  V30 21 N 0.388509 1.456018 0.828788 0
M  V30 22 C 1.253704 1.748946 -0.167309 0
M  V30 23 C 1.112113 -1.141671 -0.319415 0
M  V30 24 C 1.075039 -2.462418 0.024543 0
M  V30 25 C -0.069679 -3.340305 0.251346 0
M  V30 26 C -0.515316 -4.122571 -0.980759 0
M  V30 27 C -1.845160 -4.675352 -0.475521 0
M  V30 28 C -2.388299 -3.561667 0.396573 0
M  V30 29 C -1.316600 -2.490537 0.418151 0
M  V30 30 H 1.634367 -5.982519 1.726808 0
M  V30 31 H 4.506647 -2.768025 0.123261 0
M  V30 32 H 4.363243 -0.449408 -0.481753 0
M  V30 33 H 3.657647 0.957053 -2.399250 0
M  V30 34 H 3.293048 3.401549 -2.836136 0
M  V30 35 H -0.246610 4.530593 0.462603 0
M  V30 36 H -1.120967 0.464278 2.727068 0
M  V30 37 H -2.818029 0.501712 4.476751 0
M  V30 38 H -4.000358 2.595518 5.005886 0
M  V30 39 H -3.496633 4.706693 3.778486 0
M  V30 40 H -1.762756 4.624874 2.005385 0
M  V30 41 H 0.176702 -0.665490 -0.447619 0
M  V30 42 H 0.057712 -4.063275 1.062359 0
M  V30 43 H 0.164565 -4.917121 -1.275000 0
M  V30 44 H -0.817477 -3.431949 -1.802660 0
M  V30 45 H -1.663803 -5.559074 0.145945 0
M  V30 46 H -2.548086 -4.881797 -1.320296 0
M  V30 47 H -2.491560 -3.902834 1.459042 0
M  V30 48 H -3.342305 -3.149970 0.062934 0
M  V30 49 H -1.325380 -1.842084 1.282928 0
M  V30 50 H -1.421437 -1.885760 -0.501480 0
M  V30 END ATOM
M  V30 BEGIN BOND
M  V30 1 2 1 2
M  V30 2 1 2 3
M  V30 3 1 2 4
M  V30 4 2 4 5
M  V30 5 1 5 6
M  V30 6 2 6 7
M  V30 7 1 7 8
M  V30 8 2 8 9
M  V30 9 1 9 10
M  V30 10 2 10 11
M  V30 11 1 11 12
M  V30 12 1 12 13
M  V30 13 1 13 14
M  V30 14 1 14 15
M  V30 15 2 15 16
M  V30 16 1 16 17
M  V30 17 2 17 18
M  V30 18 1 18 19
M  V30 19 2 19 20
M  V30 20 2 14 21
M  V30 21 1 21 22
M  V30 22 1 7 23
M  V30 23 2 23 24
M  V30 24 1 24 25
M  V30 25 1 25 26
M  V30 26 1 26 27
M  V30 27 1 27 28
M  V30 28 1 28 29
M  V30 29 1 24 4
M  V30 30 1 29 25
M  V30 31 1 22 8
M  V30 32 2 22 12
M  V30 33 1 20 15
M  V30 34 1 3 30
M  V30 35 1 5 31
M  V30 36 1 6 32
M  V30 37 1 9 33
M  V30 38 1 10 34
M  V30 39 1 13 35
M  V30 40 1 16 36
M  V30 41 1 17 37
M  V30 42 1 18 38
M  V30 43 1 19 39
M  V30 44 1 20 40
M  V30 45 1 23 41
M  V30 46 1 25 42
M  V30 47 1 26 43
M  V30 48 1 26 44
M  V30 49 1 27 45
M  V30 50 1 27 46
M  V30 51 1 28 47
M  V30 52 1 28 48
M  V30 53 1 29 49
M  V30 54 1 29 50
M  V30 END BOND
M  V30 END CTAB
M  END
>  <Dataset>  (987) 
ChEMBL_Kinases

>  <Ligand_Instance>  (987) 
nan

>  <PDB_ID>  (987) 
nan

>  <Standardized_SMILES>  (987) 
O=C(O)c1ccc(-c2ccnc3[nH]c(-c4ccccc4)nc23)cc1C1CCCC1

>  <Name>  (987) 
nan

>  <Pocket>  (987) 
nan

>  <ATP_Site>  (987) 
nan

>  <Peripheral>  (987) 
nan

>  <Num_H_Atoms_ProtBoundConf>  (987) 
nan

>  <Num_Resolved_Atoms>  (987) 
nan

>  <Num_Not_Resolved_Atoms>  (987) 
nan

$$$$
CHEMBL4870383
     RDKit          3D

  0  0  0  0  0  0  0  0  0  0999 V3000
M  V30 BEGIN CTAB
M  V30 COUNTS 61 66 0 0 0
M  V30 BEGIN ATOM
M  V30 1 C 2.989025 -2.956720 3.934136 0
M  V30 2 C 3.774429 -2.497087 2.741194 0
M  V30 3 C 3.769857 -3.527809 1.633863 0
M  V30 4 N 3.344759 -1.207235 2.232532 0
M  V30 5 C 3.943034 -0.010035 2.443570 0
M  V30 6 O 4.980152 0.220617 3.115849 0
M  V30 7 C 3.231949 0.971016 1.793388 0
M  V30 8 C 3.294853 2.333968 1.610070 0
M  V30 9 N 2.383176 2.982613 0.877665 0
M  V30 10 C 1.364927 2.352210 0.284721 0
M  V30 11 N 0.426411 3.084143 -0.479911 0
M  V30 12 C -0.705279 2.617949 -1.177886 0
M  V30 13 C -1.520845 3.504509 -1.883925 0
M  V30 14 C -2.636957 3.112647 -2.583573 0
M  V30 15 C -3.007187 1.792301 -2.617965 0
M  V30 16 C -2.234113 0.878418 -1.936500 0
M  V30 17 C -1.138725 1.326241 -1.260347 0
M  V30 18 C -2.646101 -0.546074 -1.982199 0
M  V30 19 C -3.206608 -0.763878 -3.383434 0
M  V30 20 N -4.407530 0.027377 -3.555457 0
M  V30 21 C -4.211528 1.428116 -3.382669 0
M  V30 22 N 1.313483 1.030731 0.469000 0
M  V30 23 C 2.183019 0.328335 1.181459 0
M  V30 24 N 2.281382 -0.999873 1.469495 0
M  V30 25 C 1.323286 -1.956207 0.971924 0
M  V30 26 C 1.294848 -2.576200 -0.264421 0
M  V30 27 C 0.289137 -3.460492 -0.539863 0
M  V30 28 C -0.683453 -3.726956 0.409349 0
M  V30 29 C -0.614128 -3.085397 1.627194 0
M  V30 30 C -1.676470 -3.384414 2.647503 0
M  V30 31 C -1.830316 -4.781181 2.971226 0
M  V30 32 N -1.970672 -5.913160 3.224943 0
M  V30 33 C -2.858105 -2.506097 2.580140 0
M  V30 34 C -1.813471 -2.361033 3.715362 0
M  V30 35 N 0.377428 -2.214935 1.895900 0
M  V30 36 H 2.715210 -2.073270 4.559098 0
M  V30 37 H 2.076758 -3.523272 3.697367 0
M  V30 38 H 3.650459 -3.674453 4.494955 0
M  V30 39 H 4.836131 -2.379933 3.080105 0
M  V30 40 H 2.849097 -4.114308 1.640436 0
M  V30 41 H 3.996170 -3.077206 0.663588 0
M  V30 42 H 4.611291 -4.244038 1.831972 0
M  V30 43 H 4.116783 2.860485 2.085768 0
M  V30 44 H 0.589134 4.129061 -0.542001 0
M  V30 45 H -1.276219 4.573061 -1.893777 0
M  V30 46 H -3.220230 3.857867 -3.106979 0
M  V30 47 H -0.596797 0.552544 -0.760539 0
M  V30 48 H -1.792010 -1.240391 -1.850191 0
M  V30 49 H -3.454131 -0.709381 -1.251986 0
M  V30 50 H -2.473911 -0.479380 -4.149569 0
M  V30 51 H -3.483419 -1.821844 -3.506197 0
M  V30 52 H -5.207828 -0.375523 -3.013022 0
M  V30 53 H -5.136156 1.840739 -2.892625 0
M  V30 54 H -4.154640 1.917700 -4.373770 0
M  V30 55 H 2.126414 -2.254681 -0.882544 0
M  V30 56 H 0.331462 -3.904505 -1.521937 0
M  V30 57 H -1.449764 -4.436100 0.126488 0
M  V30 58 H -2.883688 -1.687096 1.832569 0
M  V30 59 H -3.857596 -2.782668 2.968896 0
M  V30 60 H -2.081454 -2.723145 4.719225 0
M  V30 61 H -1.262551 -1.407285 3.697765 0
M  V30 END ATOM
M  V30 BEGIN BOND
M  V30 1 1 1 2
M  V30 2 1 2 3
M  V30 3 1 2 4
M  V30 4 1 4 5
M  V30 5 2 5 6
M  V30 6 1 5 7
M  V30 7 2 7 8
M  V30 8 1 8 9
M  V30 9 2 9 10
M  V30 10 1 10 11
M  V30 11 1 11 12
M  V30 12 2 12 13
M  V30 13 1 13 14
M  V30 14 2 14 15
M  V30 15 1 15 16
M  V30 16 2 16 17
M  V30 17 1 16 18
M  V30 18 1 18 19
M  V30 19 1 19 20
M  V30 20 1 20 21
M  V30 21 1 10 22
M  V30 22 2 22 23
M  V30 23 1 23 24
M  V30 24 1 24 25
M  V30 25 2 25 26
M  V30 26 1 26 27
M  V30 27 2 27 28
M  V30 28 1 28 29
M  V30 29 1 29 30
M  V30 30 1 30 31
M  V30 31 3 31 32
M  V30 32 1 30 33
M  V30 33 1 33 34
M  V30 34 2 29 35
M  V30 35 1 24 4
M  V30 36 1 35 25
M  V30 37 1 23 7
M  V30 38 1 34 30
M  V30 39 1 17 12
M  V30 40 1 21 15
M  V30 41 1 1 36
M  V30 42 1 1 37
M  V30 43 1 1 38
M  V30 44 1 2 39
M  V30 45 1 3 40
M  V30 46 1 3 41
M  V30 47 1 3 42
M  V30 48 1 8 43
M  V30 49 1 11 44
M  V30 50 1 13 45
M  V30 51 1 14 46
M  V30 52 1 17 47
M  V30 53 1 18 48
M  V30 54 1 18 49
M  V30 55 1 19 50
M  V30 56 1 19 51
M  V30 57 1 20 52
M  V30 58 1 21 53
M  V30 59 1 21 54
M  V30 60 1 26 55
M  V30 61 1 27 56
M  V30 62 1 28 57
M  V30 63 1 33 58
M  V30 64 1 33 59
M  V30 65 1 34 60
M  V30 66 1 34 61
M  V30 END BOND
M  V30 END CTAB
M  END
>  <Dataset>  (988) 
ChEMBL_Kinases

>  <Ligand_Instance>  (988) 
nan

>  <PDB_ID>  (988) 
nan

>  <Standardized_SMILES>  (988) 
CC(C)n1c(=O)c2cnc(Nc3ccc4c(c3)CCNC4)nc2n1-c1cccc(C2(C#N)CC2)n1

>  <Name>  (988) 
nan

>  <Pocket>  (988) 
nan

>  <ATP_Site>  (988) 
nan

>  <Peripheral>  (988) 
nan

>  <Num_H_Atoms_ProtBoundConf>  (988) 
nan

>  <Num_Resolved_Atoms>  (988) 
nan

>  <Num_Not_Resolved_Atoms>  (988) 
nan

$$$$
CHEMBL4870359
     RDKit          3D

  0  0  0  0  0  0  0  0  0  0999 V3000
M  V30 BEGIN CTAB
M  V30 COUNTS 30 32 0 0 0
M  V30 BEGIN ATOM
M  V30 1 C -0.764531 -2.604858 4.212173 0
M  V30 2 O -0.418122 -1.967232 3.032637 0
M  V30 3 C 0.125161 -2.459358 1.899106 0
M  V30 4 N 0.347131 -3.783763 1.975273 0
M  V30 5 C 0.892587 -4.465937 0.927500 0
M  V30 6 C 1.247903 -3.859457 -0.259544 0
M  V30 7 C 1.011863 -2.501597 -0.316305 0
M  V30 8 C 1.359508 -1.873926 -1.494133 0
M  V30 9 Br 2.127491 -2.816936 -2.977799 0
M  V30 10 C 1.151038 -0.520566 -1.618178 0
M  V30 11 C 0.589422 0.145886 -0.522091 0
M  V30 12 C 0.403003 1.482568 -0.693729 0
M  V30 13 C -0.142839 2.186809 0.344452 0
M  V30 14 C -0.360481 3.642168 0.194524 0
M  V30 15 O -0.846314 4.414368 1.048809 0
M  V30 16 O -0.007724 4.262259 -0.992637 0
M  V30 17 C -0.516474 1.609454 1.563657 0
M  V30 18 C -0.294657 0.251272 1.656359 0
M  V30 19 C 0.246770 -0.488877 0.646551 0
M  V30 20 C 0.464229 -1.822843 0.738614 0
M  V30 21 H 0.068215 -3.154185 4.695261 0
M  V30 22 H -1.576794 -3.337036 4.022829 0
M  V30 23 H -1.193777 -1.826698 4.890802 0
M  V30 24 H 1.063507 -5.530219 1.007501 0
M  V30 25 H 1.679591 -4.395404 -1.090668 0
M  V30 26 H 1.421200 -0.023856 -2.537783 0
M  V30 27 H 0.658924 2.012978 -1.593599 0
M  V30 28 H 0.014520 5.252179 -1.111686 0
M  V30 29 H -0.941270 2.256247 2.324218 0
M  V30 30 H -0.606206 -0.100580 2.610788 0
M  V30 END ATOM
M  V30 BEGIN BOND
M  V30 1 1 1 2
M  V30 2 1 2 3
M  V30 3 2 3 4
M  V30 4 1 4 5
M  V30 5 2 5 6
M  V30 6 1 6 7
M  V30 7 2 7 8
M  V30 8 1 8 9
M  V30 9 1 8 10
M  V30 10 2 10 11
M  V30 11 1 11 12
M  V30 12 2 12 13
M  V30 13 1 13 14
M  V30 14 2 14 15
M  V30 15 1 14 16
M  V30 16 1 13 17
M  V30 17 2 17 18
M  V30 18 1 18 19
M  V30 19 2 19 20
M  V30 20 1 20 3
M  V30 21 1 20 7
M  V30 22 1 19 11
M  V30 23 1 1 21
M  V30 24 1 1 22
M  V30 25 1 1 23
M  V30 26 1 5 24
M  V30 27 1 6 25
M  V30 28 1 10 26
M  V30 29 1 12 27
M  V30 30 1 16 28
M  V30 31 1 17 29
M  V30 32 1 18 30
M  V30 END BOND
M  V30 END CTAB
M  END
>  <Dataset>  (989) 
ChEMBL_Kinases

>  <Ligand_Instance>  (989) 
nan

>  <PDB_ID>  (989) 
nan

>  <Standardized_SMILES>  (989) 
COc1nccc2c(Br)cc3cc(C(=O)O)ccc3c12

>  <Name>  (989) 
nan

>  <Pocket>  (989) 
nan

>  <ATP_Site>  (989) 
nan

>  <Peripheral>  (989) 
nan

>  <Num_H_Atoms_ProtBoundConf>  (989) 
nan

>  <Num_Resolved_Atoms>  (989) 
nan

>  <Num_Not_Resolved_Atoms>  (989) 
nan

$$$$
CHEMBL1532720
     RDKit          3D

  0  0  0  0  0  0  0  0  0  0999 V3000
M  V30 BEGIN CTAB
M  V30 COUNTS 38 40 0 0 0
M  V30 BEGIN ATOM
M  V30 1 C 0.756993 -4.480002 4.970672 0
M  V30 2 O 0.438260 -3.415904 4.105353 0
M  V30 3 C 1.535807 -2.958340 3.422382 0
M  V30 4 C 1.238687 -1.822270 2.488298 0
M  V30 5 N 0.271577 -2.151475 1.459587 0
M  V30 6 C -0.100883 -1.171214 0.502974 0
M  V30 7 N 0.450167 0.055383 0.561278 0
M  V30 8 C 0.142366 1.031104 -0.314048 0
M  V30 9 C 0.747116 2.357772 -0.241513 0
M  V30 10 C 0.425054 3.353644 -1.139933 0
M  V30 11 C 0.988103 4.612207 -1.084710 0
M  V30 12 C 1.912409 4.930534 -0.111071 0
M  V30 13 C 2.258945 3.959126 0.805017 0
M  V30 14 C 1.673984 2.716487 0.714843 0
M  V30 15 Cl 2.170189 1.542352 1.916014 0
M  V30 16 N -0.748878 0.799410 -1.297388 0
M  V30 17 C -1.354295 -0.405691 -1.433769 0
M  V30 18 C -2.270046 -0.672177 -2.429802 0
M  V30 19 C -2.860520 -1.929541 -2.521262 0
M  V30 20 C -2.534808 -2.938060 -1.607211 0
M  V30 21 C -1.612787 -2.609467 -0.634939 0
M  V30 22 C -1.008244 -1.375766 -0.514093 0
M  V30 23 H 1.181047 -5.338375 4.370972 0
M  V30 24 H -0.181115 -4.896394 5.392219 0
M  V30 25 H 1.513063 -4.210609 5.707075 0
M  V30 26 H 1.944658 -3.782040 2.782242 0
M  V30 27 H 2.371445 -2.664036 4.076920 0
M  V30 28 H 0.864680 -0.919156 3.018327 0
M  V30 29 H 2.193307 -1.519508 2.004537 0
M  V30 30 H -0.081795 -3.125191 1.515725 0
M  V30 31 H -0.310922 3.089003 -1.909554 0
M  V30 32 H 0.680963 5.330358 -1.824525 0
M  V30 33 H 2.299813 5.937705 -0.144403 0
M  V30 34 H 2.984522 4.222903 1.562301 0
M  V30 35 H -2.515158 0.103653 -3.126241 0
M  V30 36 H -3.588828 -2.160024 -3.304009 0
M  V30 37 H -3.002730 -3.895543 -1.699421 0
M  V30 38 H -1.397426 -3.421992 0.043337 0
M  V30 END ATOM
M  V30 BEGIN BOND
M  V30 1 1 1 2
M  V30 2 1 2 3
M  V30 3 1 3 4
M  V30 4 1 4 5
M  V30 5 1 5 6
M  V30 6 2 6 7
M  V30 7 1 7 8
M  V30 8 1 8 9
M  V30 9 2 9 10
M  V30 10 1 10 11
M  V30 11 2 11 12
M  V30 12 1 12 13
M  V30 13 2 13 14
M  V30 14 1 14 15
M  V30 15 2 8 16
M  V30 16 1 16 17
M  V30 17 2 17 18
M  V30 18 1 18 19
M  V30 19 2 19 20
M  V30 20 1 20 21
M  V30 21 2 21 22
M  V30 22 1 22 6
M  V30 23 1 14 9
M  V30 24 1 22 17
M  V30 25 1 1 23
M  V30 26 1 1 24
M  V30 27 1 1 25
M  V30 28 1 3 26
M  V30 29 1 3 27
M  V30 30 1 4 28
M  V30 31 1 4 29
M  V30 32 1 5 30
M  V30 33 1 10 31
M  V30 34 1 11 32
M  V30 35 1 12 33
M  V30 36 1 13 34
M  V30 37 1 18 35
M  V30 38 1 19 36
M  V30 39 1 20 37
M  V30 40 1 21 38
M  V30 END BOND
M  V30 END CTAB
M  END
>  <Dataset>  (990) 
ChEMBL_Kinases

>  <Ligand_Instance>  (990) 
nan

>  <PDB_ID>  (990) 
nan

>  <Standardized_SMILES>  (990) 
COCCNc1nc(-c2ccccc2Cl)nc2ccccc12

>  <Name>  (990) 
nan

>  <Pocket>  (990) 
nan

>  <ATP_Site>  (990) 
nan

>  <Peripheral>  (990) 
nan

>  <Num_H_Atoms_ProtBoundConf>  (990) 
nan

>  <Num_Resolved_Atoms>  (990) 
nan

>  <Num_Not_Resolved_Atoms>  (990) 
nan

$$$$
CHEMBL4871036
     RDKit          3D

  0  0  0  0  0  0  0  0  0  0999 V3000
M  V30 BEGIN CTAB
M  V30 COUNTS 38 41 0 0 0
M  V30 BEGIN ATOM
M  V30 1 C -0.062446 -4.475568 2.293226 0
M  V30 2 O -0.624160 -3.511753 1.420253 0
M  V30 3 C 0.234698 -2.942228 0.487981 0
M  V30 4 C 1.570788 -3.270980 0.385487 0
M  V30 5 C 2.437476 -2.716135 -0.533242 0
M  V30 6 C 1.918553 -1.771672 -1.399684 0
M  V30 7 C 0.576390 -1.426334 -1.313467 0
M  V30 8 C -0.285589 -1.985590 -0.391497 0
M  V30 9 C -1.679356 -1.555653 -0.381202 0
M  V30 10 C -2.061450 -0.297288 -0.623101 0
M  V30 11 N -1.219064 0.808091 -0.922268 0
M  V30 12 C -0.330941 1.404282 -0.007773 0
M  V30 13 N 0.484996 2.351152 -0.030030 0
M  V30 14 C 1.192371 2.660303 1.056307 0
M  V30 15 C 2.113269 3.684444 1.127414 0
M  V30 16 C 2.788854 3.920179 2.293514 0
M  V30 17 C 2.632880 3.204571 3.452809 0
M  V30 18 C 1.719629 2.174563 3.413340 0
M  V30 19 C 1.041184 1.933270 2.252149 0
M  V30 20 S -0.244051 0.705332 1.717836 0
M  V30 21 C -3.512929 -0.213391 -0.534301 0
M  V30 22 O -4.254940 0.790941 -0.695209 0
M  V30 23 N -4.038237 -1.518022 -0.215699 0
M  V30 24 C -2.865470 -2.326034 -0.128614 0
M  V30 25 O -2.927508 -3.555280 0.139719 0
M  V30 26 H 0.419234 -5.283413 1.677351 0
M  V30 27 H 0.772638 -4.045259 2.891699 0
M  V30 28 H -0.800964 -4.905483 2.981804 0
M  V30 29 H 1.949386 -4.020788 1.085070 0
M  V30 30 H 3.465826 -3.017674 -0.558315 0
M  V30 31 H 2.594674 -1.326472 -2.130102 0
M  V30 32 H 0.286072 -0.672124 -2.048757 0
M  V30 33 H -1.221919 1.234908 -1.851563 0
M  V30 34 H 2.358225 4.349123 0.298812 0
M  V30 35 H 3.524921 4.734921 2.358582 0
M  V30 36 H 3.120266 3.324827 4.401712 0
M  V30 37 H 1.455560 1.508187 4.198145 0
M  V30 38 H -5.054148 -1.773086 -0.086207 0
M  V30 END ATOM
M  V30 BEGIN BOND
M  V30 1 1 1 2
M  V30 2 1 2 3
M  V30 3 2 3 4
M  V30 4 1 4 5
M  V30 5 2 5 6
M  V30 6 1 6 7
M  V30 7 2 7 8
M  V30 8 1 8 9
M  V30 9 2 9 10
M  V30 10 1 10 11
M  V30 11 1 11 12
M  V30 12 2 12 13
M  V30 13 1 13 14
M  V30 14 2 14 15
M  V30 15 1 15 16
M  V30 16 2 16 17
M  V30 17 1 17 18
M  V30 18 2 18 19
M  V30 19 1 19 20
M  V30 20 1 10 21
M  V30 21 2 21 22
M  V30 22 1 21 23
M  V30 23 1 23 24
M  V30 24 2 24 25
M  V30 25 1 8 3
M  V30 26 1 24 9
M  V30 27 1 20 12
M  V30 28 1 19 14
M  V30 29 1 1 26
M  V30 30 1 1 27
M  V30 31 1 1 28
M  V30 32 1 4 29
M  V30 33 1 5 30
M  V30 34 1 6 31
M  V30 35 1 7 32
M  V30 36 1 11 33
M  V30 37 1 15 34
M  V30 38 1 16 35
M  V30 39 1 17 36
M  V30 40 1 18 37
M  V30 41 1 23 38
M  V30 END BOND
M  V30 END CTAB
M  END
>  <Dataset>  (991) 
ChEMBL_Kinases

>  <Ligand_Instance>  (991) 
nan

>  <PDB_ID>  (991) 
nan

>  <Standardized_SMILES>  (991) 
COc1ccccc1C1=C(Nc2nc3ccccc3s2)C(=O)NC1=O

>  <Name>  (991) 
nan

>  <Pocket>  (991) 
nan

>  <ATP_Site>  (991) 
nan

>  <Peripheral>  (991) 
nan

>  <Num_H_Atoms_ProtBoundConf>  (991) 
nan

>  <Num_Resolved_Atoms>  (991) 
nan

>  <Num_Not_Resolved_Atoms>  (991) 
nan

$$$$
CHEMBL4855356
     RDKit          3D

  0  0  0  0  0  0  0  0  0  0999 V3000
M  V30 BEGIN CTAB
M  V30 COUNTS 67 72 0 0 0
M  V30 BEGIN ATOM
M  V30 1 C 3.087895 -0.863742 5.374196 0
M  V30 2 C 2.883934 -2.111597 4.514931 0
M  V30 3 C 1.616146 -2.819110 4.848009 0
M  V30 4 N 3.087675 -1.855006 3.115355 0
M  V30 5 C 4.308235 -1.803952 2.508378 0
M  V30 6 O 5.428832 -1.967359 3.051283 0
M  V30 7 C 4.072686 -1.538043 1.182746 0
M  V30 8 C 4.869863 -1.368036 0.071550 0
M  V30 9 N 4.312369 -1.110628 -1.119807 0
M  V30 10 C 2.987745 -1.002996 -1.314173 0
M  V30 11 N 2.458371 -0.728303 -2.602810 0
M  V30 12 C 1.125708 -0.582430 -2.998097 0
M  V30 13 C 0.792715 -0.311445 -4.310140 0
M  V30 14 C -0.502576 -0.159742 -4.746019 0
M  V30 15 C -1.551202 -0.273745 -3.873892 0
M  V30 16 C -1.286663 -0.543928 -2.547641 0
M  V30 17 C 0.031179 -0.686046 -2.167386 0
M  V30 18 C -2.431849 -0.663475 -1.622553 0
M  V30 19 N -3.471171 -1.379614 -2.379053 0
M  V30 20 C -3.972517 -0.479244 -3.376101 0
M  V30 21 C -2.919939 -0.104537 -4.379567 0
M  V30 22 C -3.186639 0.922382 -5.410240 0
M  V30 23 C -3.227259 -0.497829 -5.833258 0
M  V30 24 N 2.270011 -1.178225 -0.197702 0
M  V30 25 C 2.727119 -1.435307 1.019904 0
M  V30 26 N 2.141827 -1.633087 2.217625 0
M  V30 27 C 0.729653 -1.590680 2.388929 0
M  V30 28 C -0.158711 -2.638464 2.165313 0
M  V30 29 C -1.511648 -2.461640 2.371440 0
M  V30 30 C -1.962218 -1.235890 2.799967 0
M  V30 31 F -3.311291 -1.178689 2.968748 0
M  V30 32 C -1.081143 -0.200683 3.020524 0
M  V30 33 C -1.672015 1.065299 3.477175 0
M  V30 34 C -2.410895 0.991380 4.769449 0
M  V30 35 C -0.549194 2.099884 3.609721 0
M  V30 36 O -2.580221 1.516442 2.507651 0
M  V30 37 N 0.247123 -0.403086 2.809268 0
M  V30 38 H 3.344856 -1.190041 6.417620 0
M  V30 39 H 2.259707 -0.155325 5.314362 0
M  V30 40 H 4.045535 -0.401740 5.000173 0
M  V30 41 H 3.714764 -2.800237 4.849841 0
M  V30 42 H 1.752537 -3.216138 5.897033 0
M  V30 43 H 0.716247 -2.212083 4.897095 0
M  V30 44 H 1.569313 -3.726995 4.224018 0
M  V30 45 H 5.943931 -1.443313 0.166138 0
M  V30 46 H 3.184490 -0.619001 -3.372906 0
M  V30 47 H 1.588682 -0.208729 -5.055765 0
M  V30 48 H -0.683929 0.052460 -5.794866 0
M  V30 49 H 0.157115 -0.893361 -1.129082 0
M  V30 50 H -2.177910 -1.154468 -0.684711 0
M  V30 51 H -2.814643 0.351891 -1.363953 0
M  V30 52 H -2.986661 -2.209922 -2.768161 0
M  V30 53 H -4.394376 0.404874 -2.842613 0
M  V30 54 H -4.818050 -1.021391 -3.887529 0
M  V30 55 H -2.363175 1.573405 -5.750593 0
M  V30 56 H -4.183697 1.444835 -5.423659 0
M  V30 57 H -2.377127 -0.928620 -6.397955 0
M  V30 58 H -4.188767 -1.010491 -6.024687 0
M  V30 59 H 0.298396 -3.575613 1.825051 0
M  V30 60 H -2.116731 -3.346622 2.166290 0
M  V30 61 H -1.978784 0.345670 5.537877 0
M  V30 62 H -2.399001 2.028018 5.218147 0
M  V30 63 H -3.510120 0.804211 4.596682 0
M  V30 64 H -0.962134 3.142437 3.500392 0
M  V30 65 H -0.067686 1.922132 4.570021 0
M  V30 66 H 0.161640 1.873643 2.787963 0
M  V30 67 H -2.095591 1.881474 1.718825 0
M  V30 END ATOM
M  V30 BEGIN BOND
M  V30 1 1 1 2
M  V30 2 1 2 3
M  V30 3 1 2 4
M  V30 4 1 4 5
M  V30 5 2 5 6
M  V30 6 1 5 7
M  V30 7 2 7 8
M  V30 8 1 8 9
M  V30 9 2 9 10
M  V30 10 1 10 11
M  V30 11 1 11 12
M  V30 12 2 12 13
M  V30 13 1 13 14
M  V30 14 2 14 15
M  V30 15 1 15 16
M  V30 16 2 16 17
M  V30 17 1 16 18
M  V30 18 1 18 19
M  V30 19 1 19 20
M  V30 20 1 20 21
M  V30 21 1 21 22
M  V30 22 1 22 23
M  V30 23 1 10 24
M  V30 24 2 24 25
M  V30 25 1 25 26
M  V30 26 1 26 27
M  V30 27 2 27 28
M  V30 28 1 28 29
M  V30 29 2 29 30
M  V30 30 1 30 31
M  V30 31 1 30 32
M  V30 32 1 32 33
M  V30 33 1 33 34
M  V30 34 1 33 35
M  V30 35 1 33 36
M  V30 36 2 32 37
M  V30 37 1 26 4
M  V30 38 1 37 27
M  V30 39 1 25 7
M  V30 40 1 17 12
M  V30 41 1 23 21
M  V30 42 1 21 15
M  V30 43 1 1 38
M  V30 44 1 1 39
M  V30 45 1 1 40
M  V30 46 1 2 41
M  V30 47 1 3 42
M  V30 48 1 3 43
M  V30 49 1 3 44
M  V30 50 1 8 45
M  V30 51 1 11 46
M  V30 52 1 13 47
M  V30 53 1 14 48
M  V30 54 1 17 49
M  V30 55 1 18 50
M  V30 56 1 18 51
M  V30 57 1 19 52
M  V30 58 1 20 53
M  V30 59 1 20 54
M  V30 60 1 22 55
M  V30 61 1 22 56
M  V30 62 1 23 57
M  V30 63 1 23 58
M  V30 64 1 28 59
M  V30 65 1 29 60
M  V30 66 1 34 61
M  V30 67 1 34 62
M  V30 68 1 34 63
M  V30 69 1 35 64
M  V30 70 1 35 65
M  V30 71 1 35 66
M  V30 72 1 36 67
M  V30 END BOND
M  V30 END CTAB
M  END
>  <Dataset>  (992) 
ChEMBL_Kinases

>  <Ligand_Instance>  (992) 
nan

>  <PDB_ID>  (992) 
nan

>  <Standardized_SMILES>  (992) 
CC(C)n1c(=O)c2cnc(Nc3ccc4c(c3)CNCC43CC3)nc2n1-c1ccc(F)c(C(C)(C)O)n1

>  <Name>  (992) 
nan

>  <Pocket>  (992) 
nan

>  <ATP_Site>  (992) 
nan

>  <Peripheral>  (992) 
nan

>  <Num_H_Atoms_ProtBoundConf>  (992) 
nan

>  <Num_Resolved_Atoms>  (992) 
nan

>  <Num_Not_Resolved_Atoms>  (992) 
nan

$$$$
CHEMBL99203
     RDKit          3D

  0  0  0  0  0  0  0  0  0  0999 V3000
M  V30 BEGIN CTAB
M  V30 COUNTS 33 35 0 0 0
M  V30 BEGIN ATOM
M  V30 1 N 4.322610 0.429191 3.237643 0
M  V30 2 C 3.279117 -0.306693 2.611400 0
M  V30 3 N 3.394472 -1.661228 2.698041 0
M  V30 4 C 2.438753 -2.432402 2.125657 0
M  V30 5 N 1.416525 -1.825634 1.496080 0
M  V30 6 C 1.319207 -0.500805 1.420779 0
M  V30 7 C 2.244331 0.346725 1.973614 0
M  V30 8 C 1.915919 1.654938 1.757854 0
M  V30 9 I 3.038462 3.303224 2.421131 0
M  V30 10 C 0.724790 1.605903 1.033427 0
M  V30 11 N 0.383984 0.302876 0.841778 0
M  V30 12 C -0.802150 -0.061949 0.124223 0 CFG=2
M  V30 13 O -1.222134 -1.371937 0.437874 0
M  V30 14 C -2.295664 -1.517092 -0.438236 0 CFG=2
M  V30 15 C -2.701596 -2.970269 -0.565916 0
M  V30 16 O -3.065767 -3.395665 0.726693 0
M  V30 17 C -1.866989 -0.939952 -1.766900 0 CFG=1
M  V30 18 O -2.835012 -0.072488 -2.227867 0
M  V30 19 C -0.595717 -0.183560 -1.359050 0 CFG=1
M  V30 20 O -0.521462 1.025261 -2.023434 0
M  V30 21 H 5.288979 0.770386 3.261040 0
M  V30 22 H 3.877970 0.817975 4.119476 0
M  V30 23 H 2.375524 -3.502443 2.100151 0
M  V30 24 H 0.222541 2.511378 0.716745 0
M  V30 25 H -1.678470 0.586953 0.364971 0
M  V30 26 H -3.125335 -0.904129 -0.021162 0
M  V30 27 H -1.834465 -3.561753 -0.867460 0
M  V30 28 H -3.568045 -3.048820 -1.227447 0
M  V30 29 H -3.885333 -2.892115 0.990147 0
M  V30 30 H -1.621001 -1.738528 -2.497200 0
M  V30 31 H -3.662503 -0.179065 -1.697179 0
M  V30 32 H 0.290362 -0.825203 -1.529235 0
M  V30 33 H -1.310920 1.554848 -1.802530 0
M  V30 END ATOM
M  V30 BEGIN BOND
M  V30 1 1 1 2
M  V30 2 2 2 3
M  V30 3 1 3 4
M  V30 4 2 4 5
M  V30 5 1 5 6
M  V30 6 2 6 7
M  V30 7 1 7 8
M  V30 8 1 8 9
M  V30 9 2 8 10
M  V30 10 1 10 11
M  V30 11 1 11 12
M  V30 12 1 12 13
M  V30 13 1 13 14
M  V30 14 1 14 15
M  V30 15 1 15 16
M  V30 16 1 14 17
M  V30 17 1 17 18
M  V30 18 1 17 19
M  V30 19 1 19 20
M  V30 20 1 7 2
M  V30 21 1 19 12
M  V30 22 1 11 6
M  V30 23 1 1 21
M  V30 24 1 1 22
M  V30 25 1 4 23
M  V30 26 1 10 24
M  V30 27 1 12 25 CFG=3
M  V30 28 1 14 26 CFG=1
M  V30 29 1 15 27
M  V30 30 1 15 28
M  V30 31 1 16 29
M  V30 32 1 17 30 CFG=3
M  V30 33 1 18 31
M  V30 34 1 19 32 CFG=1
M  V30 35 1 20 33
M  V30 END BOND
M  V30 END CTAB
M  END
>  <Dataset>  (993) 
ChEMBL_Kinases

>  <Ligand_Instance>  (993) 
nan

>  <PDB_ID>  (993) 
nan

>  <Standardized_SMILES>  (993) 
Nc1ncnc2c1c(I)cn2[C@@H]1O[C@H](CO)[C@@H](O)[C@H]1O

>  <Name>  (993) 
IODOTUBERCIDIN

>  <Pocket>  (993) 
nan

>  <ATP_Site>  (993) 
nan

>  <Peripheral>  (993) 
nan

>  <Num_H_Atoms_ProtBoundConf>  (993) 
nan

>  <Num_Resolved_Atoms>  (993) 
nan

>  <Num_Not_Resolved_Atoms>  (993) 
nan

$$$$
CHEMBL4855513
     RDKit          3D

  0  0  0  0  0  0  0  0  0  0999 V3000
M  V30 BEGIN CTAB
M  V30 COUNTS 36 38 0 0 0
M  V30 BEGIN ATOM
M  V30 1 C 0.289801 -5.367412 0.862996 0
M  V30 2 O 0.103150 -3.990744 0.667714 0
M  V30 3 C 0.747794 -2.966188 1.333497 0
M  V30 4 C 1.641367 -3.405929 2.264813 0
M  V30 5 C 2.365925 -2.508031 3.007088 0
M  V30 6 C 2.165805 -1.131693 2.787138 0
M  V30 7 C 1.244790 -0.745890 1.828583 0
M  V30 8 C 0.501970 -1.617164 1.066359 0
M  V30 9 C -0.479754 -1.322232 0.055257 0
M  V30 10 C -0.430308 -0.391425 -0.873340 0
M  V30 11 N 0.443511 0.643887 -1.315401 0
M  V30 12 C 0.317932 1.921753 -0.679785 0
M  V30 13 C -0.883006 2.570386 -0.512714 0
M  V30 14 C -1.038870 3.796471 0.096091 0
M  V30 15 C 0.107235 4.418397 0.574988 0
M  V30 16 C 1.368346 3.840072 0.451327 0
M  V30 17 F 2.492875 4.454052 0.937793 0
M  V30 18 C 1.399382 2.611040 -0.176632 0
M  V30 19 C -1.648706 -0.465379 -1.695697 0
M  V30 20 O -2.106933 0.175367 -2.705763 0
M  V30 21 N -2.483988 -1.535973 -1.196836 0
M  V30 22 C -1.754234 -2.071100 -0.102305 0
M  V30 23 O -2.243019 -3.038768 0.549417 0
M  V30 24 H -0.507281 -5.950725 0.326422 0
M  V30 25 H 0.207017 -5.603442 1.971973 0
M  V30 26 H 1.256388 -5.754929 0.489745 0
M  V30 27 H 1.811265 -4.454571 2.466699 0
M  V30 28 H 3.086326 -2.851486 3.767425 0
M  V30 29 H 2.735528 -0.435169 3.365990 0
M  V30 30 H 1.075017 0.303660 1.627476 0
M  V30 31 H 1.173724 0.576959 -2.077388 0
M  V30 32 H -1.813567 2.138361 -0.863707 0
M  V30 33 H -1.967203 4.320973 0.235915 0
M  V30 34 H 0.088396 5.399853 1.075352 0
M  V30 35 H 2.380749 2.173864 -0.262847 0
M  V30 36 H -3.433763 -1.863717 -1.552657 0
M  V30 END ATOM
M  V30 BEGIN BOND
M  V30 1 1 1 2
M  V30 2 1 2 3
M  V30 3 2 3 4
M  V30 4 1 4 5
M  V30 5 2 5 6
M  V30 6 1 6 7
M  V30 7 2 7 8
M  V30 8 1 8 9
M  V30 9 2 9 10
M  V30 10 1 10 11
M  V30 11 1 11 12
M  V30 12 2 12 13
M  V30 13 1 13 14
M  V30 14 2 14 15
M  V30 15 1 15 16
M  V30 16 1 16 17
M  V30 17 2 16 18
M  V30 18 1 10 19
M  V30 19 2 19 20
M  V30 20 1 19 21
M  V30 21 1 21 22
M  V30 22 2 22 23
M  V30 23 1 8 3
M  V30 24 1 22 9
M  V30 25 1 18 12
M  V30 26 1 1 24
M  V30 27 1 1 25
M  V30 28 1 1 26
M  V30 29 1 4 27
M  V30 30 1 5 28
M  V30 31 1 6 29
M  V30 32 1 7 30
M  V30 33 1 11 31
M  V30 34 1 13 32
M  V30 35 1 14 33
M  V30 36 1 15 34
M  V30 37 1 18 35
M  V30 38 1 21 36
M  V30 END BOND
M  V30 END CTAB
M  END
>  <Dataset>  (994) 
ChEMBL_Kinases

>  <Ligand_Instance>  (994) 
nan

>  <PDB_ID>  (994) 
nan

>  <Standardized_SMILES>  (994) 
COc1ccccc1C1=C(Nc2cccc(F)c2)C(=O)NC1=O

>  <Name>  (994) 
nan

>  <Pocket>  (994) 
nan

>  <ATP_Site>  (994) 
nan

>  <Peripheral>  (994) 
nan

>  <Num_H_Atoms_ProtBoundConf>  (994) 
nan

>  <Num_Resolved_Atoms>  (994) 
nan

>  <Num_Not_Resolved_Atoms>  (994) 
nan

$$$$
CHEMBL4855533
     RDKit          3D

  0  0  0  0  0  0  0  0  0  0999 V3000
M  V30 BEGIN CTAB
M  V30 COUNTS 36 38 0 0 0
M  V30 BEGIN ATOM
M  V30 1 O -2.522786 -2.566547 3.341509 0
M  V30 2 C -1.508489 -1.841916 3.171260 0
M  V30 3 N -1.147191 -0.969706 4.246785 0
M  V30 4 C 0.007264 -0.286878 3.791550 0
M  V30 5 O 0.657883 0.573750 4.423799 0
M  V30 6 C 0.401841 -0.690169 2.456247 0
M  V30 7 C 1.403857 -0.479909 1.435547 0
M  V30 8 C 2.157317 -1.601789 1.059879 0
M  V30 9 C 3.141304 -1.663342 0.073299 0
M  V30 10 C 3.338894 -0.457149 -0.555142 0
M  V30 11 C 2.647174 0.693919 -0.252300 0
M  V30 12 C 1.669966 0.683498 0.751345 0
M  V30 13 C 0.951633 1.935212 1.027628 0
M  V30 14 F 1.133136 2.446902 2.286127 0
M  V30 15 F -0.413678 1.806554 0.741650 0
M  V30 16 F 1.400932 2.903785 0.145219 0
M  V30 17 C -0.517165 -1.615320 2.114571 0
M  V30 18 N -0.787910 -2.448602 0.964181 0
M  V30 19 C -1.025223 -1.595240 -0.148173 0
M  V30 20 C -2.133107 -0.753908 -0.100884 0
M  V30 21 C -2.463674 0.111242 -1.119281 0
M  V30 22 C -1.633484 0.113000 -2.218505 0
M  V30 23 C -0.514259 -0.681034 -2.362815 0
M  V30 24 O 0.321503 -0.683245 -3.464239 0
M  V30 25 C -0.272810 -1.509479 -1.287983 0
M  V30 26 H -1.560960 -0.783953 5.201251 0
M  V30 27 H 1.981384 -2.558394 1.580546 0
M  V30 28 H 3.667780 -2.573537 -0.142232 0
M  V30 29 H 4.078456 -0.382151 -1.339777 0
M  V30 30 H 2.856068 1.607241 -0.792427 0
M  V30 31 H -0.787383 -3.489661 1.028029 0
M  V30 32 H -2.759538 -0.777388 0.766170 0
M  V30 33 H -3.322068 0.772758 -1.103360 0
M  V30 34 H -1.877056 0.787383 -3.033708 0
M  V30 35 H 1.052294 0.012226 -3.569415 0
M  V30 36 H 0.591763 -2.165025 -1.321365 0
M  V30 END ATOM
M  V30 BEGIN BOND
M  V30 1 2 1 2
M  V30 2 1 2 3
M  V30 3 1 3 4
M  V30 4 2 4 5
M  V30 5 1 4 6
M  V30 6 1 6 7
M  V30 7 2 7 8
M  V30 8 1 8 9
M  V30 9 2 9 10
M  V30 10 1 10 11
M  V30 11 2 11 12
M  V30 12 1 12 13
M  V30 13 1 13 14
M  V30 14 1 13 15
M  V30 15 1 13 16
M  V30 16 2 6 17
M  V30 17 1 17 18
M  V30 18 1 18 19
M  V30 19 2 19 20
M  V30 20 1 20 21
M  V30 21 2 21 22
M  V30 22 1 22 23
M  V30 23 1 23 24
M  V30 24 2 23 25
M  V30 25 1 17 2
M  V30 26 1 25 19
M  V30 27 1 12 7
M  V30 28 1 3 26
M  V30 29 1 8 27
M  V30 30 1 9 28
M  V30 31 1 10 29
M  V30 32 1 11 30
M  V30 33 1 18 31
M  V30 34 1 20 32
M  V30 35 1 21 33
M  V30 36 1 22 34
M  V30 37 1 24 35
M  V30 38 1 25 36
M  V30 END BOND
M  V30 END CTAB
M  END
>  <Dataset>  (995) 
ChEMBL_Kinases

>  <Ligand_Instance>  (995) 
nan

>  <PDB_ID>  (995) 
nan

>  <Standardized_SMILES>  (995) 
O=C1NC(=O)C(c2ccccc2C(F)(F)F)=C1Nc1cccc(O)c1

>  <Name>  (995) 
nan

>  <Pocket>  (995) 
nan

>  <ATP_Site>  (995) 
nan

>  <Peripheral>  (995) 
nan

>  <Num_H_Atoms_ProtBoundConf>  (995) 
nan

>  <Num_Resolved_Atoms>  (995) 
nan

>  <Num_Not_Resolved_Atoms>  (995) 
nan

$$$$
CHEMBL4855568
     RDKit          3D

  0  0  0  0  0  0  0  0  0  0999 V3000
M  V30 BEGIN CTAB
M  V30 COUNTS 54 56 0 0 0
M  V30 BEGIN ATOM
M  V30 1 C -1.731935 -3.366423 4.329758 0
M  V30 2 C -1.382958 -2.339919 3.261763 0
M  V30 3 C -1.422740 -0.996562 3.970417 0
M  V30 4 C -0.033808 -2.695134 2.718090 0
M  V30 5 C 0.398800 -1.944910 1.506290 0 CFG=1
M  V30 6 N 1.192011 -2.809440 0.614567 0
M  V30 7 C 1.783680 -2.191362 -0.543693 0
M  V30 8 C 1.715521 -0.844968 -0.793265 0
M  V30 9 C 2.276203 -0.360449 -1.978810 0
M  V30 10 N 2.184641 1.035053 -2.176434 0
M  V30 11 C 1.478969 2.273969 -2.455775 0
M  V30 12 C 0.596481 2.665677 -1.349524 0
M  V30 13 C 1.289265 3.530013 -0.488736 0
M  V30 14 N 0.749632 4.013011 0.672460 0
M  V30 15 C -0.484052 3.672025 1.039867 0
M  V30 16 C -1.184305 2.825843 0.211664 0
M  V30 17 C -0.666983 2.319244 -0.974626 0
M  V30 18 C -1.380257 1.458242 -1.935514 0
M  V30 19 F -2.630632 1.178071 -1.383186 0
M  V30 20 F -1.684241 2.242928 -3.064092 0
M  V30 21 F -0.796843 0.296333 -2.277556 0
M  V30 22 N 2.887885 -1.158532 -2.900097 0
M  V30 23 C 2.974443 -2.495377 -2.685556 0
M  V30 24 C 2.411933 -2.938848 -1.508072 0
M  V30 25 C 2.493610 -4.349907 -1.279500 0
M  V30 26 N 2.571057 -5.493478 -1.079523 0
M  V30 27 C -0.841020 -1.569206 0.691650 0
M  V30 28 C -1.901717 -2.658157 0.872177 0
M  V30 29 C -2.497462 -2.420008 2.234519 0 CFG=2
M  V30 30 O -3.239605 -1.245890 2.203137 0
M  V30 31 H -1.240412 -3.059183 5.256992 0
M  V30 32 H -2.836852 -3.407554 4.414530 0
M  V30 33 H -1.395128 -4.350867 3.934485 0
M  V30 34 H -0.473377 -0.808179 4.479264 0
M  V30 35 H -2.221361 -1.011173 4.761420 0
M  V30 36 H -1.721239 -0.174318 3.291644 0
M  V30 37 H -0.062818 -3.782961 2.455767 0
M  V30 38 H 0.681962 -2.583550 3.558466 0
M  V30 39 H 1.032692 -1.072890 1.724273 0
M  V30 40 H 1.359422 -3.823590 0.749586 0
M  V30 41 H 1.255763 -0.177709 -0.107686 0
M  V30 42 H 3.216037 1.253908 -2.000691 0
M  V30 43 H 0.792090 2.068808 -3.328068 0
M  V30 44 H 2.143218 3.056556 -2.796188 0
M  V30 45 H 2.303350 3.925063 -0.604751 0
M  V30 46 H -0.934433 4.037482 1.949657 0
M  V30 47 H -2.185617 2.526582 0.478594 0
M  V30 48 H 3.449996 -3.168259 -3.384329 0
M  V30 49 H -1.189709 -0.573624 0.952547 0
M  V30 50 H -0.616559 -1.588647 -0.394028 0
M  V30 51 H -1.376646 -3.636902 0.808711 0
M  V30 52 H -2.627243 -2.571146 0.060896 0
M  V30 53 H -3.217486 -3.238885 2.436102 0
M  V30 54 H -3.370268 -0.994252 1.259108 0
M  V30 END ATOM
M  V30 BEGIN BOND
M  V30 1 1 1 2
M  V30 2 1 2 3
M  V30 3 1 2 4
M  V30 4 1 4 5
M  V30 5 1 5 6
M  V30 6 1 6 7
M  V30 7 2 7 8
M  V30 8 1 8 9
M  V30 9 1 9 10
M  V30 10 1 10 11
M  V30 11 1 11 12
M  V30 12 2 12 13
M  V30 13 1 13 14
M  V30 14 2 14 15
M  V30 15 1 15 16
M  V30 16 2 16 17
M  V30 17 1 17 18
M  V30 18 1 18 19
M  V30 19 1 18 20
M  V30 20 1 18 21
M  V30 21 2 9 22
M  V30 22 1 22 23
M  V30 23 2 23 24
M  V30 24 1 24 25
M  V30 25 3 25 26
M  V30 26 1 5 27
M  V30 27 1 27 28
M  V30 28 1 28 29
M  V30 29 1 29 30
M  V30 30 1 29 2
M  V30 31 1 24 7
M  V30 32 1 17 12
M  V30 33 1 1 31
M  V30 34 1 1 32
M  V30 35 1 1 33
M  V30 36 1 3 34
M  V30 37 1 3 35
M  V30 38 1 3 36
M  V30 39 1 4 37
M  V30 40 1 4 38
M  V30 41 1 5 39 CFG=1
M  V30 42 1 6 40
M  V30 43 1 8 41
M  V30 44 1 10 42
M  V30 45 1 11 43
M  V30 46 1 11 44
M  V30 47 1 13 45
M  V30 48 1 15 46
M  V30 49 1 16 47
M  V30 50 1 23 48
M  V30 51 1 27 49
M  V30 52 1 27 50
M  V30 53 1 28 51
M  V30 54 1 28 52
M  V30 55 1 29 53 CFG=1
M  V30 56 1 30 54
M  V30 END BOND
M  V30 END CTAB
M  END
>  <Dataset>  (996) 
ChEMBL_Kinases

>  <Ligand_Instance>  (996) 
nan

>  <PDB_ID>  (996) 
nan

>  <Standardized_SMILES>  (996) 
CC1(C)C[C@@H](Nc2cc(NCc3cnccc3C(F)(F)F)ncc2C#N)CC[C@@H]1O

>  <Name>  (996) 
nan

>  <Pocket>  (996) 
nan

>  <ATP_Site>  (996) 
nan

>  <Peripheral>  (996) 
nan

>  <Num_H_Atoms_ProtBoundConf>  (996) 
nan

>  <Num_Resolved_Atoms>  (996) 
nan

>  <Num_Not_Resolved_Atoms>  (996) 
nan

$$$$
CHEMBL4855633
     RDKit          3D

  0  0  0  0  0  0  0  0  0  0999 V3000
M  V30 BEGIN CTAB
M  V30 COUNTS 43 46 0 0 0
M  V30 BEGIN ATOM
M  V30 1 C -0.782521 -3.324040 2.672139 0
M  V30 2 O -0.045014 -2.797013 1.584941 0
M  V30 3 C 1.226491 -2.298918 1.693722 0
M  V30 4 C 1.801358 -2.324411 2.947102 0
M  V30 5 C 3.078006 -1.840241 3.136886 0
M  V30 6 C 3.757151 -1.339408 2.068466 0
M  V30 7 C 3.163139 -1.327101 0.839592 0
M  V30 8 C 1.888794 -1.793678 0.571550 0
M  V30 9 C 1.282321 -1.779366 -0.755442 0
M  V30 10 C 1.245949 -0.880794 -1.756150 0
M  V30 11 N 1.993228 0.279781 -1.327111 0
M  V30 12 C 1.343743 1.142758 -0.370070 0
M  V30 13 C 1.962756 2.273750 0.154599 0
M  V30 14 C 1.257747 3.042629 1.063899 0
M  V30 15 C -0.023367 2.737228 1.469235 0
M  V30 16 C -0.668706 1.626057 0.972131 0
M  V30 17 C -2.025708 1.298988 1.390421 0
M  V30 18 C -2.547838 0.036367 1.488754 0
M  V30 19 C -3.826006 -0.147802 1.886711 0
M  V30 20 S -4.438050 1.516282 2.171208 0
M  V30 21 C -2.915290 2.354783 1.730581 0
M  V30 22 C 0.053547 0.880257 0.070951 0
M  V30 23 C 0.492605 -1.390410 -2.875714 0
M  V30 24 O 0.458221 -0.554007 -3.809468 0
M  V30 25 N 0.040361 -2.687681 -2.530660 0
M  V30 26 C 0.515695 -2.958717 -1.216317 0
M  V30 27 O 0.235424 -4.059304 -0.700104 0
M  V30 28 H -0.428786 -4.321570 2.994557 0
M  V30 29 H -0.707596 -2.597915 3.515038 0
M  V30 30 H -1.833930 -3.433194 2.348829 0
M  V30 31 H 1.303589 -2.711964 3.825749 0
M  V30 32 H 3.535508 -1.859092 4.118216 0
M  V30 33 H 4.768815 -0.959112 2.236332 0
M  V30 34 H 3.753582 -0.921249 0.041004 0
M  V30 35 H 2.952610 0.581696 -1.624050 0
M  V30 36 H 2.957304 2.467939 -0.190901 0
M  V30 37 H 1.748718 3.931274 1.474670 0
M  V30 38 H -0.517757 3.380915 2.182757 0
M  V30 39 H -1.965974 -0.843878 1.255258 0
M  V30 40 H -4.415549 -1.015476 2.026812 0
M  V30 41 H -2.722373 3.404114 1.724912 0
M  V30 42 H -0.448057 -0.003337 -0.329458 0
M  V30 43 H -0.529173 -3.164520 -3.282787 0
M  V30 END ATOM
M  V30 BEGIN BOND
M  V30 1 1 1 2
M  V30 2 1 2 3
M  V30 3 2 3 4
M  V30 4 1 4 5
M  V30 5 2 5 6
M  V30 6 1 6 7
M  V30 7 2 7 8
M  V30 8 1 8 9
M  V30 9 2 9 10
M  V30 10 1 10 11
M  V30 11 1 11 12
M  V30 12 2 12 13
M  V30 13 1 13 14
M  V30 14 2 14 15
M  V30 15 1 15 16
M  V30 16 1 16 17
M  V30 17 1 17 18
M  V30 18 2 18 19
M  V30 19 1 19 20
M  V30 20 1 20 21
M  V30 21 2 16 22
M  V30 22 1 10 23
M  V30 23 2 23 24
M  V30 24 1 23 25
M  V30 25 1 25 26
M  V30 26 2 26 27
M  V30 27 1 8 3
M  V30 28 1 26 9
M  V30 29 1 22 12
M  V30 30 2 21 17
M  V30 31 1 1 28
M  V30 32 1 1 29
M  V30 33 1 1 30
M  V30 34 1 4 31
M  V30 35 1 5 32
M  V30 36 1 6 33
M  V30 37 1 7 34
M  V30 38 1 11 35
M  V30 39 1 13 36
M  V30 40 1 14 37
M  V30 41 1 15 38
M  V30 42 1 18 39
M  V30 43 1 19 40
M  V30 44 1 21 41
M  V30 45 1 22 42
M  V30 46 1 25 43
M  V30 END BOND
M  V30 END CTAB
M  END
>  <Dataset>  (997) 
ChEMBL_Kinases

>  <Ligand_Instance>  (997) 
nan

>  <PDB_ID>  (997) 
nan

>  <Standardized_SMILES>  (997) 
COc1ccccc1C1=C(Nc2cccc(-c3ccsc3)c2)C(=O)NC1=O

>  <Name>  (997) 
nan

>  <Pocket>  (997) 
nan

>  <ATP_Site>  (997) 
nan

>  <Peripheral>  (997) 
nan

>  <Num_H_Atoms_ProtBoundConf>  (997) 
nan

>  <Num_Resolved_Atoms>  (997) 
nan

>  <Num_Not_Resolved_Atoms>  (997) 
nan

$$$$
CHEMBL4868821
     RDKit          3D

  0  0  0  0  0  0  0  0  0  0999 V3000
M  V30 BEGIN CTAB
M  V30 COUNTS 41 44 0 0 0
M  V30 BEGIN ATOM
M  V30 1 C 1.483651 -4.289677 2.003393 0
M  V30 2 O 1.128624 -3.362409 0.997882 0
M  V30 3 C 1.923570 -2.287752 0.617480 0
M  V30 4 C 3.146862 -2.034488 1.201555 0
M  V30 5 C 3.917150 -0.959933 0.808465 0
M  V30 6 C 3.482347 -0.098001 -0.190242 0
M  V30 7 C 2.265309 -0.416813 -0.716378 0
M  V30 8 C 1.433074 -1.474023 -0.378601 0
M  V30 9 C 0.176044 -1.636051 -1.094470 0
M  V30 10 C -0.841458 -0.903369 -1.500588 0
M  V30 11 N -1.018043 0.504675 -1.310611 0
M  V30 12 C -0.705868 1.188081 -0.092312 0
M  V30 13 C 0.263405 2.157019 0.102331 0
M  V30 14 C 0.450656 2.707483 1.370934 0
M  V30 15 C -0.361539 2.240689 2.377541 0
M  V30 16 N -0.100522 2.835846 3.579092 0
M  V30 17 C -0.781230 2.517430 4.685779 0
M  V30 18 C -1.774867 1.549737 4.571650 0
M  V30 19 C -2.038471 0.950375 3.363359 0
M  V30 20 C -1.346029 1.266723 2.213006 0
M  V30 21 C -1.500552 0.747899 0.946351 0
M  V30 22 C -1.786101 -1.780464 -2.199024 0
M  V30 23 O -2.877369 -1.341584 -2.704544 0
M  V30 24 N -1.300294 -3.115833 -2.209551 0
M  V30 25 C -0.043674 -3.042254 -1.506761 0
M  V30 26 O 0.546809 -4.149051 -1.413885 0
M  V30 27 H 2.085864 -5.094427 1.514845 0
M  V30 28 H 2.110911 -3.868733 2.807903 0
M  V30 29 H 0.574757 -4.758572 2.440188 0
M  V30 30 H 3.536666 -2.676808 1.987491 0
M  V30 31 H 4.873730 -0.797545 1.293150 0
M  V30 32 H 4.051788 0.751027 -0.525402 0
M  V30 33 H 1.913802 0.260964 -1.506635 0
M  V30 34 H -1.393259 0.974888 -2.156836 0
M  V30 35 H 0.820354 2.421956 -0.781396 0
M  V30 36 H 1.202729 3.447136 1.483312 0
M  V30 37 H -0.617540 2.955348 5.661297 0
M  V30 38 H -2.401120 1.195352 5.379772 0
M  V30 39 H -2.807856 0.183822 3.223919 0
M  V30 40 H -2.278144 -0.002631 0.882939 0
M  V30 41 H -1.861333 -3.862082 -2.671316 0
M  V30 END ATOM
M  V30 BEGIN BOND
M  V30 1 1 1 2
M  V30 2 1 2 3
M  V30 3 2 3 4
M  V30 4 1 4 5
M  V30 5 2 5 6
M  V30 6 1 6 7
M  V30 7 2 7 8
M  V30 8 1 8 9
M  V30 9 2 9 10
M  V30 10 1 10 11
M  V30 11 1 11 12
M  V30 12 2 12 13
M  V30 13 1 13 14
M  V30 14 2 14 15
M  V30 15 1 15 16
M  V30 16 2 16 17
M  V30 17 1 17 18
M  V30 18 2 18 19
M  V30 19 1 19 20
M  V30 20 2 20 21
M  V30 21 1 10 22
M  V30 22 2 22 23
M  V30 23 1 22 24
M  V30 24 1 24 25
M  V30 25 2 25 26
M  V30 26 1 8 3
M  V30 27 1 25 9
M  V30 28 1 21 12
M  V30 29 1 20 15
M  V30 30 1 1 27
M  V30 31 1 1 28
M  V30 32 1 1 29
M  V30 33 1 4 30
M  V30 34 1 5 31
M  V30 35 1 6 32
M  V30 36 1 7 33
M  V30 37 1 11 34
M  V30 38 1 13 35
M  V30 39 1 14 36
M  V30 40 1 17 37
M  V30 41 1 18 38
M  V30 42 1 19 39
M  V30 43 1 21 40
M  V30 44 1 24 41
M  V30 END BOND
M  V30 END CTAB
M  END
>  <Dataset>  (998) 
ChEMBL_Kinases

>  <Ligand_Instance>  (998) 
nan

>  <PDB_ID>  (998) 
nan

>  <Standardized_SMILES>  (998) 
COc1ccccc1C1=C(Nc2ccc3ncccc3c2)C(=O)NC1=O

>  <Name>  (998) 
nan

>  <Pocket>  (998) 
nan

>  <ATP_Site>  (998) 
nan

>  <Peripheral>  (998) 
nan

>  <Num_H_Atoms_ProtBoundConf>  (998) 
nan

>  <Num_Resolved_Atoms>  (998) 
nan

>  <Num_Not_Resolved_Atoms>  (998) 
nan

$$$$
CHEMBL1472955
     RDKit          3D

  0  0  0  0  0  0  0  0  0  0999 V3000
M  V30 BEGIN CTAB
M  V30 COUNTS 45 48 0 0 0
M  V30 BEGIN ATOM
M  V30 1 C 3.063023 0.624524 4.852317 0
M  V30 2 S 3.109725 -1.144091 4.675853 0
M  V30 3 O 3.571365 -1.780601 5.951106 0
M  V30 4 O 1.709182 -1.654714 4.408708 0
M  V30 5 N 4.145838 -1.593678 3.358871 0
M  V30 6 C 3.837631 -1.165979 2.051998 0
M  V30 7 C 4.915110 -0.669910 1.327724 0
M  V30 8 C 4.783033 -0.203401 0.014620 0
M  V30 9 C 3.537690 -0.233977 -0.591256 0
M  V30 10 C 2.481466 -0.726654 0.135744 0
M  V30 11 C 1.155569 -0.771241 -0.476855 0
M  V30 12 N 0.106811 -1.258850 0.242230 0
M  V30 13 C -1.138020 -1.313802 -0.298070 0
M  V30 14 N -2.242032 -1.825593 0.454802 0
M  V30 15 C -2.960884 -0.873765 1.221345 0
M  V30 16 C -2.621380 0.464675 1.243053 0
M  V30 17 C -3.294785 1.421720 1.975276 0
M  V30 18 N -4.350275 1.046744 2.720472 0
M  V30 19 C -4.747800 -0.250709 2.752939 0
M  V30 20 C -4.051719 -1.189412 2.006919 0
M  V30 21 C -1.316809 -0.863883 -1.593852 0
M  V30 22 C -2.561273 -0.890884 -2.208435 0
M  V30 23 C -2.716334 -0.436646 -3.502749 0
M  V30 24 C -1.649014 0.052526 -4.215755 0
M  V30 25 C -0.384323 0.096134 -3.634196 0
M  V30 26 C -0.262488 -0.365398 -2.338816 0
M  V30 27 N 0.953571 -0.339644 -1.736686 0
M  V30 28 C 2.598196 -1.189282 1.430058 0
M  V30 29 H 2.522370 0.836577 5.800371 0
M  V30 30 H 4.114918 0.990634 4.897402 0
M  V30 31 H 2.510788 1.071867 3.998194 0
M  V30 32 H 5.006286 -2.181694 3.505547 0
M  V30 33 H 5.935396 -0.601889 1.709874 0
M  V30 34 H 5.632189 0.181261 -0.539474 0
M  V30 35 H 3.379207 0.111303 -1.596637 0
M  V30 36 H -2.583471 -2.812037 0.509526 0
M  V30 37 H -1.784658 0.831734 0.667288 0
M  V30 38 H -3.010409 2.470587 1.978000 0
M  V30 39 H -5.598575 -0.538163 3.356771 0
M  V30 40 H -4.392358 -2.212355 2.053795 0
M  V30 41 H -3.360872 -1.286358 -1.597140 0
M  V30 42 H -3.720831 -0.491302 -3.911385 0
M  V30 43 H -1.776650 0.407029 -5.229575 0
M  V30 44 H 0.490681 0.469252 -4.144424 0
M  V30 45 H 1.793749 -1.583659 2.034646 0
M  V30 END ATOM
M  V30 BEGIN BOND
M  V30 1 1 1 2
M  V30 2 2 2 3
M  V30 3 2 2 4
M  V30 4 1 2 5
M  V30 5 1 5 6
M  V30 6 2 6 7
M  V30 7 1 7 8
M  V30 8 2 8 9
M  V30 9 1 9 10
M  V30 10 1 10 11
M  V30 11 2 11 12
M  V30 12 1 12 13
M  V30 13 1 13 14
M  V30 14 1 14 15
M  V30 15 2 15 16
M  V30 16 1 16 17
M  V30 17 2 17 18
M  V30 18 1 18 19
M  V30 19 2 19 20
M  V30 20 2 13 21
M  V30 21 1 21 22
M  V30 22 2 22 23
M  V30 23 1 23 24
M  V30 24 2 24 25
M  V30 25 1 25 26
M  V30 26 2 26 27
M  V30 27 2 10 28
M  V30 28 1 28 6
M  V30 29 1 27 11
M  V30 30 1 20 15
M  V30 31 1 26 21
M  V30 32 1 1 29
M  V30 33 1 1 30
M  V30 34 1 1 31
M  V30 35 1 5 32
M  V30 36 1 7 33
M  V30 37 1 8 34
M  V30 38 1 9 35
M  V30 39 1 14 36
M  V30 40 1 16 37
M  V30 41 1 17 38
M  V30 42 1 19 39
M  V30 43 1 20 40
M  V30 44 1 22 41
M  V30 45 1 23 42
M  V30 46 1 24 43
M  V30 47 1 25 44
M  V30 48 1 28 45
M  V30 END BOND
M  V30 END CTAB
M  END
>  <Dataset>  (999) 
ChEMBL_Kinases

>  <Ligand_Instance>  (999) 
nan

>  <PDB_ID>  (999) 
nan

>  <Standardized_SMILES>  (999) 
CS(=O)(=O)Nc1cccc(-c2nc(Nc3ccncc3)c3ccccc3n2)c1

>  <Name>  (999) 
nan

>  <Pocket>  (999) 
nan

>  <ATP_Site>  (999) 
nan

>  <Peripheral>  (999) 
nan

>  <Num_H_Atoms_ProtBoundConf>  (999) 
nan

>  <Num_Resolved_Atoms>  (999) 
nan

>  <Num_Not_Resolved_Atoms>  (999) 
nan

$$$$
