CHEMBL3774667
     RDKit          3D

  0  0  0  0  0  0  0  0  0  0999 V3000
M  V30 BEGIN CTAB
M  V30 COUNTS 25 26 0 0 0
M  V30 BEGIN ATOM
M  V30 1 C -2.277348 -3.932674 2.227672 0
M  V30 2 O -1.300329 -3.499622 1.322278 0
M  V30 3 C -0.600626 -2.308318 1.379747 0
M  V30 4 C 0.324230 -2.089758 0.372445 0
M  V30 5 C 1.033490 -0.884857 0.432577 0
M  V30 6 C 0.846745 0.056596 1.424681 0
M  V30 7 C 1.646909 1.269975 1.319459 0
M  V30 8 C 1.800369 2.034972 0.220098 0
M  V30 9 N 1.150356 1.695482 -0.980989 0
M  V30 10 C 1.398946 2.558762 -2.087904 0
M  V30 11 O 0.909907 2.721121 -3.225558 0
M  V30 12 S 2.769635 3.621471 -1.600979 0
M  V30 13 C 2.645223 3.236002 0.167731 0
M  V30 14 O 3.162022 3.857435 1.102406 0
M  V30 15 C -0.090663 -0.179124 2.433856 0
M  V30 16 C -0.802548 -1.382009 2.380684 0
M  V30 17 H -2.307237 -5.052105 2.308719 0
M  V30 18 H -2.091498 -3.458383 3.203460 0
M  V30 19 H -3.314219 -3.642373 1.892358 0
M  V30 20 H 0.487318 -2.807303 -0.413627 0
M  V30 21 H 1.760390 -0.787853 -0.384441 0
M  V30 22 H 2.170382 1.589933 2.208147 0
M  V30 23 H 0.494787 0.930775 -1.241740 0
M  V30 24 H -0.218751 0.570846 3.198982 0
M  V30 25 H -1.512041 -1.523628 3.169901 0
M  V30 END ATOM
M  V30 BEGIN BOND
M  V30 1 1 1 2
M  V30 2 1 2 3
M  V30 3 2 3 4
M  V30 4 1 4 5
M  V30 5 2 5 6
M  V30 6 1 6 7
M  V30 7 2 7 8
M  V30 8 1 8 9
M  V30 9 1 9 10
M  V30 10 2 10 11
M  V30 11 1 10 12
M  V30 12 1 12 13
M  V30 13 2 13 14
M  V30 14 1 6 15
M  V30 15 2 15 16
M  V30 16 1 16 3
M  V30 17 1 13 8
M  V30 18 1 1 17
M  V30 19 1 1 18
M  V30 20 1 1 19
M  V30 21 1 4 20
M  V30 22 1 5 21
M  V30 23 1 7 22
M  V30 24 1 9 23
M  V30 25 1 15 24
M  V30 26 1 16 25
M  V30 END BOND
M  V30 END CTAB
M  END
>  <Dataset>  (1) 
ChEMBL_Kinases

>  <Ligand_Instance>  (1) 
nan

>  <PDB_ID>  (1) 
nan

>  <Standardized_SMILES>  (1) 
COc1ccc(/C=C2\NC(=O)SC2=O)cc1

>  <Name>  (1) 
nan

>  <Pocket>  (1) 
nan

>  <ATP_Site>  (1) 
nan

>  <Peripheral>  (1) 
nan

>  <Num_H_Atoms_ProtBoundConf>  (1) 
nan

>  <Num_Resolved_Atoms>  (1) 
nan

>  <Num_Not_Resolved_Atoms>  (1) 
nan

$$$$
CHEMBL4851793
     RDKit          3D

  0  0  0  0  0  0  0  0  0  0999 V3000
M  V30 BEGIN CTAB
M  V30 COUNTS 40 43 0 0 0
M  V30 BEGIN ATOM
M  V30 1 C 1.655263 -6.401711 1.741789 0
M  V30 2 N 1.358252 -5.370241 0.770499 0
M  V30 3 C 0.816127 -5.700819 -0.499261 0
M  V30 4 O 0.550141 -6.865091 -0.894425 0
M  V30 5 C 0.552652 -4.598928 -1.403398 0
M  V30 6 C 0.695810 -3.279931 -1.348111 0
M  V30 7 C 0.359423 -2.441481 -2.373245 0
M  V30 8 N 0.502931 -1.027627 -2.338692 0
M  V30 9 N 0.968983 -0.277222 -3.321623 0
M  V30 10 C 0.966323 1.033061 -2.941112 0
M  V30 11 C 0.458596 1.005413 -1.645000 0
M  V30 12 C 0.263076 2.097597 -0.830342 0
M  V30 13 C -0.257031 1.933610 0.459624 0
M  V30 14 N -0.518438 2.977773 1.374754 0
M  V30 15 C -0.428907 3.128039 2.776774 0
M  V30 16 C 0.024007 2.209454 3.689739 0
M  V30 17 C 0.084117 2.381465 5.052112 0
M  V30 18 C -0.356854 3.599426 5.523273 0
M  V30 19 C -0.822494 4.561774 4.654551 0
M  V30 20 C -0.856753 4.326077 3.299924 0
M  V30 21 Cl -1.466854 5.616618 2.286075 0
M  V30 22 C -0.526588 0.618458 0.774434 0
M  V30 23 N -0.332548 -0.459115 -0.031496 0
M  V30 24 C 0.167844 -0.287407 -1.267025 0
M  V30 25 C -0.167136 -3.136403 -3.521564 0
M  V30 26 S -0.120895 -4.919511 -3.001454 0
M  V30 27 H 2.293404 -5.993066 2.537914 0
M  V30 28 H 2.127855 -7.304910 1.280979 0
M  V30 29 H 0.712138 -6.744364 2.255484 0
M  V30 30 H 1.553280 -4.359636 1.024601 0
M  V30 31 H 1.105548 -2.915214 -0.414536 0
M  V30 32 H 1.293613 1.875348 -3.541493 0
M  V30 33 H 0.494312 3.123393 -1.131603 0
M  V30 34 H -0.851902 3.782458 0.797036 0
M  V30 35 H 0.380615 1.262502 3.325661 0
M  V30 36 H 0.455629 1.602881 5.699971 0
M  V30 37 H -0.336343 3.799726 6.585569 0
M  V30 38 H -1.159781 5.504947 5.061687 0
M  V30 39 H -0.944313 0.275659 1.708234 0
M  V30 40 H -0.489626 -2.481448 -4.470475 0
M  V30 END ATOM
M  V30 BEGIN BOND
M  V30 1 1 1 2
M  V30 2 1 2 3
M  V30 3 2 3 4
M  V30 4 1 3 5
M  V30 5 2 5 6
M  V30 6 1 6 7
M  V30 7 1 7 8
M  V30 8 1 8 9
M  V30 9 2 9 10
M  V30 10 1 10 11
M  V30 11 2 11 12
M  V30 12 1 12 13
M  V30 13 1 13 14
M  V30 14 1 14 15
M  V30 15 2 15 16
M  V30 16 1 16 17
M  V30 17 2 17 18
M  V30 18 1 18 19
M  V30 19 2 19 20
M  V30 20 1 20 21
M  V30 21 2 13 22
M  V30 22 1 22 23
M  V30 23 2 23 24
M  V30 24 2 7 25
M  V30 25 1 25 26
M  V30 26 1 26 5
M  V30 27 1 24 8
M  V30 28 1 24 11
M  V30 29 1 20 15
M  V30 30 1 1 27
M  V30 31 1 1 28
M  V30 32 1 1 29
M  V30 33 1 2 30
M  V30 34 1 6 31
M  V30 35 1 10 32
M  V30 36 1 12 33
M  V30 37 1 14 34
M  V30 38 1 16 35
M  V30 39 1 17 36
M  V30 40 1 18 37
M  V30 41 1 19 38
M  V30 42 1 22 39
M  V30 43 1 25 40
M  V30 END BOND
M  V30 END CTAB
M  END
>  <Dataset>  (2) 
ChEMBL_Kinases

>  <Ligand_Instance>  (2) 
nan

>  <PDB_ID>  (2) 
nan

>  <Standardized_SMILES>  (2) 
CNC(=O)c1cc(-n2ncc3cc(Nc4ccccc4Cl)cnc32)cs1

>  <Name>  (2) 
nan

>  <Pocket>  (2) 
nan

>  <ATP_Site>  (2) 
nan

>  <Peripheral>  (2) 
nan

>  <Num_H_Atoms_ProtBoundConf>  (2) 
nan

>  <Num_Resolved_Atoms>  (2) 
nan

>  <Num_Not_Resolved_Atoms>  (2) 
nan

$$$$
CHEMBL4459800
     RDKit          3D

  0  0  0  0  0  0  0  0  0  0999 V3000
M  V30 BEGIN CTAB
M  V30 COUNTS 45 47 0 0 0
M  V30 BEGIN ATOM
M  V30 1 C 5.717761 -5.628167 0.273384 0
M  V30 2 O 5.242685 -4.489797 -0.389512 0
M  V30 3 C 4.489864 -3.523232 0.248355 0
M  V30 4 C 4.123578 -3.564427 1.590404 0
M  V30 5 C 3.365851 -2.556383 2.161573 0
M  V30 6 C 2.994463 -1.515129 1.338114 0
M  V30 7 C 3.348265 -1.450425 -0.008500 0
M  V30 8 C 2.829452 -0.222139 -0.698009 0 CFG=1
M  V30 9 C 3.004728 -0.396674 -2.175450 0
M  V30 10 N 1.444704 -0.023030 -0.318634 0
M  V30 11 C 0.928449 1.041597 0.447166 0
M  V30 12 O 1.690489 1.945538 0.878018 0
M  V30 13 C -0.487424 1.157616 0.779403 0
M  V30 14 C -0.890412 2.254953 1.545891 0
M  V30 15 C -2.220870 2.433581 1.900403 0
M  V30 16 C -3.182076 1.502605 1.487017 0
M  V30 17 C -4.609031 1.651933 1.840140 0
M  V30 18 C -5.008940 2.239089 3.024542 0
M  V30 19 C -6.335041 2.358099 3.312097 0
M  V30 20 N -7.248200 1.899964 2.434826 0
M  V30 21 C -6.849275 1.329236 1.283427 0
M  V30 22 F -7.805093 0.878060 0.420938 0
M  V30 23 C -5.516334 1.159041 0.893658 0
M  V30 24 C -2.775736 0.404837 0.719903 0
M  V30 25 C -1.444864 0.245515 0.377478 0
M  V30 26 C 4.094261 -2.466062 -0.524012 0
M  V30 27 H 6.680420 -5.387678 0.768220 0
M  V30 28 H 5.929483 -6.464368 -0.438080 0
M  V30 29 H 5.037650 -6.012795 1.062976 0
M  V30 30 H 4.444407 -4.401277 2.176148 0
M  V30 31 H 3.115652 -2.645301 3.199013 0
M  V30 32 H 2.398234 -0.745872 1.837834 0
M  V30 33 H 3.440780 0.608872 -0.298460 0
M  V30 34 H 4.093298 -0.403670 -2.389815 0
M  V30 35 H 2.569773 0.430339 -2.745341 0
M  V30 36 H 2.641777 -1.395060 -2.499727 0
M  V30 37 H 0.835240 -0.772819 -0.680084 0
M  V30 38 H -0.197685 3.023765 1.905719 0
M  V30 39 H -2.551842 3.282258 2.496464 0
M  V30 40 H -4.242766 2.591024 3.695474 0
M  V30 41 H -6.683494 2.813012 4.230837 0
M  V30 42 H -5.261596 0.700245 -0.029294 0
M  V30 43 H -3.496755 -0.330784 0.386313 0
M  V30 44 H -1.143442 -0.607144 -0.215157 0
M  V30 45 H 4.318446 -2.321950 -1.585512 0
M  V30 END ATOM
M  V30 BEGIN BOND
M  V30 1 1 1 2
M  V30 2 1 2 3
M  V30 3 2 3 4
M  V30 4 1 4 5
M  V30 5 2 5 6
M  V30 6 1 6 7
M  V30 7 1 7 8
M  V30 8 1 8 9
M  V30 9 1 8 10
M  V30 10 1 10 11
M  V30 11 2 11 12
M  V30 12 1 11 13
M  V30 13 2 13 14
M  V30 14 1 14 15
M  V30 15 2 15 16
M  V30 16 1 16 17
M  V30 17 2 17 18
M  V30 18 1 18 19
M  V30 19 2 19 20
M  V30 20 1 20 21
M  V30 21 1 21 22
M  V30 22 2 21 23
M  V30 23 1 16 24
M  V30 24 2 24 25
M  V30 25 2 7 26
M  V30 26 1 26 3
M  V30 27 1 25 13
M  V30 28 1 23 17
M  V30 29 1 1 27
M  V30 30 1 1 28
M  V30 31 1 1 29
M  V30 32 1 4 30
M  V30 33 1 5 31
M  V30 34 1 6 32
M  V30 35 1 8 33 CFG=1
M  V30 36 1 9 34
M  V30 37 1 9 35
M  V30 38 1 9 36
M  V30 39 1 10 37
M  V30 40 1 14 38
M  V30 41 1 15 39
M  V30 42 1 18 40
M  V30 43 1 19 41
M  V30 44 1 23 42
M  V30 45 1 24 43
M  V30 46 1 25 44
M  V30 47 1 26 45
M  V30 END BOND
M  V30 END CTAB
M  END
>  <Dataset>  (3) 
ChEMBL_Kinases

>  <Ligand_Instance>  (3) 
nan

>  <PDB_ID>  (3) 
nan

>  <Standardized_SMILES>  (3) 
COc1cccc([C@@H](C)NC(=O)c2ccc(-c3ccnc(F)c3)cc2)c1

>  <Name>  (3) 
nan

>  <Pocket>  (3) 
nan

>  <ATP_Site>  (3) 
nan

>  <Peripheral>  (3) 
nan

>  <Num_H_Atoms_ProtBoundConf>  (3) 
nan

>  <Num_Resolved_Atoms>  (3) 
nan

>  <Num_Not_Resolved_Atoms>  (3) 
nan

$$$$
CHEMBL2392228
     RDKit          3D

  0  0  0  0  0  0  0  0  0  0999 V3000
M  V30 BEGIN CTAB
M  V30 COUNTS 38 41 0 0 0
M  V30 BEGIN ATOM
M  V30 1 Cl -1.531349 -6.867224 -1.134553 0
M  V30 2 C -0.537561 -5.518487 -0.620668 0
M  V30 3 C 0.234514 -4.932900 -1.586560 0
M  V30 4 C 1.062816 -3.864954 -1.324242 0
M  V30 5 C 1.144617 -3.337731 -0.054227 0
M  V30 6 C 1.926481 -2.213930 0.489254 0
M  V30 7 N 1.234603 -0.943518 0.502197 0
M  V30 8 C 0.743895 -0.242529 -0.632945 0
M  V30 9 N 0.862129 -0.729808 -1.859556 0
M  V30 10 C 0.359878 -0.034984 -2.891651 0
M  V30 11 N -0.275951 1.161992 -2.757629 0
M  V30 12 C -0.413262 1.691163 -1.504387 0
M  V30 13 C 0.107129 0.969057 -0.449245 0
M  V30 14 C -0.073862 1.647550 0.828565 0
M  V30 15 C -1.384800 2.045136 1.132303 0
M  V30 16 C -1.777461 2.710079 2.275726 0
M  V30 17 C -0.805851 3.014829 3.206349 0
M  V30 18 C 0.490850 2.634142 2.929598 0
M  V30 19 C 0.871439 1.969065 1.781108 0
M  V30 20 O 1.273045 3.052312 4.012123 0
M  V30 21 C 0.416782 3.305964 5.131633 0
M  V30 22 O -0.791777 3.655711 4.447451 0
M  V30 23 C 0.357777 -3.932367 0.937245 0
M  V30 24 C -0.473154 -5.010927 0.653440 0
M  V30 25 Cl -1.476425 -5.789606 1.857123 0
M  V30 26 H 0.237036 -5.277999 -2.614508 0
M  V30 27 H 1.701667 -3.356400 -2.024255 0
M  V30 28 H 2.862131 -2.118520 -0.148808 0
M  V30 29 H 2.331655 -2.424039 1.497282 0
M  V30 30 H 1.082725 -0.518783 1.468411 0
M  V30 31 H 0.478156 -0.469917 -3.880147 0
M  V30 32 H -0.915788 2.629777 -1.431744 0
M  V30 33 H -2.196243 1.826619 0.424506 0
M  V30 34 H -2.790728 2.982137 2.442521 0
M  V30 35 H 1.867635 1.683644 1.560146 0
M  V30 36 H 0.183274 2.336756 5.656435 0
M  V30 37 H 0.783589 4.090664 5.788428 0
M  V30 38 H 0.305112 -3.643109 1.975461 0
M  V30 END ATOM
M  V30 BEGIN BOND
M  V30 1 1 1 2
M  V30 2 2 2 3
M  V30 3 1 3 4
M  V30 4 2 4 5
M  V30 5 1 5 6
M  V30 6 1 6 7
M  V30 7 1 7 8
M  V30 8 2 8 9
M  V30 9 1 9 10
M  V30 10 2 10 11
M  V30 11 1 11 12
M  V30 12 2 12 13
M  V30 13 1 13 14
M  V30 14 2 14 15
M  V30 15 1 15 16
M  V30 16 2 16 17
M  V30 17 1 17 18
M  V30 18 2 18 19
M  V30 19 1 18 20
M  V30 20 1 20 21
M  V30 21 1 21 22
M  V30 22 1 5 23
M  V30 23 2 23 24
M  V30 24 1 24 25
M  V30 25 1 24 2
M  V30 26 1 13 8
M  V30 27 1 19 14
M  V30 28 1 22 17
M  V30 29 1 3 26
M  V30 30 1 4 27
M  V30 31 1 6 28
M  V30 32 1 6 29
M  V30 33 1 7 30
M  V30 34 1 10 31
M  V30 35 1 12 32
M  V30 36 1 15 33
M  V30 37 1 16 34
M  V30 38 1 19 35
M  V30 39 1 21 36
M  V30 40 1 21 37
M  V30 41 1 23 38
M  V30 END BOND
M  V30 END CTAB
M  END
>  <Dataset>  (4) 
ChEMBL_Kinases

>  <Ligand_Instance>  (4) 
nan

>  <PDB_ID>  (4) 
nan

>  <Standardized_SMILES>  (4) 
Clc1ccc(CNc2ncncc2-c2ccc3c(c2)OCO3)cc1Cl

>  <Name>  (4) 
nan

>  <Pocket>  (4) 
nan

>  <ATP_Site>  (4) 
nan

>  <Peripheral>  (4) 
nan

>  <Num_H_Atoms_ProtBoundConf>  (4) 
nan

>  <Num_Resolved_Atoms>  (4) 
nan

>  <Num_Not_Resolved_Atoms>  (4) 
nan

$$$$
CHEMBL3774632
     RDKit          3D

  0  0  0  0  0  0  0  0  0  0999 V3000
M  V30 BEGIN CTAB
M  V30 COUNTS 58 61 0 0 0
M  V30 BEGIN ATOM
M  V30 1 C 1.314773 -0.528540 4.509329 0
M  V30 2 C 1.438484 -2.009198 4.318643 0
M  V30 3 O 2.519060 -2.359154 3.511196 0
M  V30 4 C 0.203306 -2.689519 3.821003 0
M  V30 5 N -0.178730 -2.373460 2.481664 0
M  V30 6 C 0.364887 -2.444886 1.186885 0
M  V30 7 N 1.004646 -1.405816 0.626044 0
M  V30 8 C 1.541661 -1.429542 -0.605026 0
M  V30 9 N 2.208526 -0.308447 -1.162965 0
M  V30 10 C 2.427152 0.979065 -0.567239 0
M  V30 11 C 1.199512 1.722333 -0.222183 0
M  V30 12 C 0.718604 2.506251 -1.278069 0
M  V30 13 C -0.439130 3.266297 -1.076847 0
M  V30 14 C -1.147547 3.296453 0.104792 0
M  V30 15 C -2.339399 4.104665 0.258340 0
M  V30 16 C -3.046843 4.137041 1.433036 0
M  V30 17 C -4.183202 4.955420 1.468117 0
M  V30 18 C -4.630771 5.725487 0.399346 0
M  V30 19 C -3.846529 5.625919 -0.749718 0
M  V30 20 N -2.758017 4.844740 -0.789313 0
M  V30 21 C -0.635816 2.510049 1.111636 0
M  V30 22 C 0.500021 1.743089 0.966304 0
M  V30 23 C 1.401759 -2.622829 -1.302047 0
M  V30 24 N 1.821778 -2.972001 -2.545699 0
M  V30 25 N 1.443225 -4.223892 -2.754521 0
M  V30 26 C 0.788345 -4.699525 -1.680901 0
M  V30 27 C 0.167638 -6.031409 -1.407309 0
M  V30 28 C -1.306466 -6.021430 -1.821876 0
M  V30 29 C 0.825964 -7.069796 -2.313943 0
M  V30 30 C 0.745628 -3.693180 -0.730623 0
M  V30 31 N 0.223542 -3.604983 0.521343 0
M  V30 32 H 2.293584 0.002880 4.320880 0
M  V30 33 H 0.559624 -0.040596 3.860774 0
M  V30 34 H 1.092955 -0.270684 5.582202 0
M  V30 35 H 1.649885 -2.476621 5.326014 0
M  V30 36 H 3.182263 -2.937899 3.964663 0
M  V30 37 H 0.331132 -3.787276 4.007605 0
M  V30 38 H -0.633633 -2.388645 4.512272 0
M  V30 39 H -1.122943 -1.955639 2.248671 0
M  V30 40 H 2.590455 -0.435065 -2.135579 0
M  V30 41 H 2.951187 0.794971 0.415350 0
M  V30 42 H 3.151492 1.587179 -1.143792 0
M  V30 43 H 1.146820 2.607275 -2.282847 0
M  V30 44 H -0.840937 3.891468 -1.886966 0
M  V30 45 H -2.770982 3.578146 2.295265 0
M  V30 46 H -4.776337 5.012819 2.381823 0
M  V30 47 H -5.504969 6.325474 0.498036 0
M  V30 48 H -4.205194 6.231073 -1.578295 0
M  V30 49 H -1.099027 2.455551 2.063930 0
M  V30 50 H 0.909643 1.133696 1.734855 0
M  V30 51 H 2.347466 -2.346100 -3.199937 0
M  V30 52 H 0.235715 -6.310661 -0.351204 0
M  V30 53 H -1.897978 -6.767755 -1.277236 0
M  V30 54 H -1.445973 -6.005815 -2.911708 0
M  V30 55 H -1.691775 -5.025299 -1.454909 0
M  V30 56 H 1.170187 -6.500541 -3.223024 0
M  V30 57 H 1.698296 -7.551480 -1.868783 0
M  V30 58 H 0.077592 -7.787511 -2.720193 0
M  V30 END ATOM
M  V30 BEGIN BOND
M  V30 1 1 1 2
M  V30 2 1 2 3
M  V30 3 1 2 4
M  V30 4 1 4 5
M  V30 5 1 5 6
M  V30 6 2 6 7
M  V30 7 1 7 8
M  V30 8 1 8 9
M  V30 9 1 9 10
M  V30 10 1 10 11
M  V30 11 2 11 12
M  V30 12 1 12 13
M  V30 13 2 13 14
M  V30 14 1 14 15
M  V30 15 2 15 16
M  V30 16 1 16 17
M  V30 17 2 17 18
M  V30 18 1 18 19
M  V30 19 2 19 20
M  V30 20 1 14 21
M  V30 21 2 21 22
M  V30 22 2 8 23
M  V30 23 1 23 24
M  V30 24 1 24 25
M  V30 25 2 25 26
M  V30 26 1 26 27
M  V30 27 1 27 28
M  V30 28 1 27 29
M  V30 29 1 26 30
M  V30 30 2 30 31
M  V30 31 1 31 6
M  V30 32 1 22 11
M  V30 33 1 30 23
M  V30 34 1 20 15
M  V30 35 1 1 32
M  V30 36 1 1 33
M  V30 37 1 1 34
M  V30 38 1 2 35
M  V30 39 1 3 36
M  V30 40 1 4 37
M  V30 41 1 4 38
M  V30 42 1 5 39
M  V30 43 1 9 40
M  V30 44 1 10 41
M  V30 45 1 10 42
M  V30 46 1 12 43
M  V30 47 1 13 44
M  V30 48 1 16 45
M  V30 49 1 17 46
M  V30 50 1 18 47
M  V30 51 1 19 48
M  V30 52 1 21 49
M  V30 53 1 22 50
M  V30 54 1 24 51
M  V30 55 1 27 52
M  V30 56 1 28 53
M  V30 57 1 28 54
M  V30 58 1 28 55
M  V30 59 1 29 56
M  V30 60 1 29 57
M  V30 61 1 29 58
M  V30 END BOND
M  V30 END CTAB
M  END
>  <Dataset>  (5) 
ChEMBL_Kinases

>  <Ligand_Instance>  (5) 
nan

>  <PDB_ID>  (5) 
nan

>  <Standardized_SMILES>  (5) 
CC(O)CNc1nc(NCc2ccc(-c3ccccn3)cc2)c2[nH]nc(C(C)C)c2n1

>  <Name>  (5) 
nan

>  <Pocket>  (5) 
nan

>  <ATP_Site>  (5) 
nan

>  <Peripheral>  (5) 
nan

>  <Num_H_Atoms_ProtBoundConf>  (5) 
nan

>  <Num_Resolved_Atoms>  (5) 
nan

>  <Num_Not_Resolved_Atoms>  (5) 
nan

$$$$
CHEMBL493269
     RDKit          3D

  0  0  0  0  0  0  0  0  0  0999 V3000
M  V30 BEGIN CTAB
M  V30 COUNTS 54 56 0 0 0
M  V30 BEGIN ATOM
M  V30 1 C 1.370411 -2.195659 -2.142639 0
M  V30 2 C 0.593705 -0.910724 -2.072659 0
M  V30 3 N 0.667915 -0.278844 -0.781563 0
M  V30 4 C 1.608521 0.566751 -0.356637 0
M  V30 5 C 2.838597 1.127838 -0.841335 0
M  V30 6 N 3.583767 2.006436 -0.158102 0
M  V30 7 O 4.610317 2.340732 -0.843053 0
M  V30 8 N 4.654337 1.753033 -1.989623 0
M  V30 9 C 3.532793 0.976202 -2.003856 0
M  V30 10 N 3.327906 0.204087 -3.138184 0
M  V30 11 N 1.164815 0.894890 0.867657 0
M  V30 12 C 0.030208 0.295447 1.185683 0
M  V30 13 C -0.690038 0.399956 2.345075 0
M  V30 14 C -0.234116 1.259255 3.410195 0
M  V30 15 C 0.131462 1.970564 4.312852 0
M  V30 16 C 0.562860 2.837597 5.431669 0
M  V30 17 C -0.680524 3.411801 6.040155 0
M  V30 18 C 1.443245 3.964966 4.931512 0
M  V30 19 O 1.312975 2.100849 6.357993 0
M  V30 20 N -1.824774 -0.312259 2.452635 0
M  V30 21 C -2.246809 -1.106915 1.454069 0
M  V30 22 C -1.483474 -1.187618 0.283201 0
M  V30 23 O -1.853575 -1.986447 -0.789049 0
M  V30 24 C -3.046881 -2.724096 -0.653811 0
M  V30 25 C -3.365521 -3.554041 -1.854747 0
M  V30 26 C -2.315532 -4.578142 -2.203393 0
M  V30 27 C -2.149217 -5.523440 -1.050408 0
M  V30 28 N -1.148981 -6.543937 -1.329754 0
M  V30 29 C -0.314125 -0.484869 0.110038 0
M  V30 30 H 1.522340 -2.564828 -3.156091 0
M  V30 31 H 0.922133 -2.992179 -1.502718 0
M  V30 32 H 2.363883 -1.966173 -1.650445 0
M  V30 33 H -0.493343 -1.104831 -2.353260 0
M  V30 34 H 0.909536 -0.221624 -2.858473 0
M  V30 35 H 3.432383 -0.759425 -3.592525 0
M  V30 36 H 2.963578 0.182933 -4.126735 0
M  V30 37 H -1.095008 2.807542 6.861895 0
M  V30 38 H -0.449316 4.462792 6.363233 0
M  V30 39 H -1.437720 3.525210 5.224596 0
M  V30 40 H 0.730760 4.730132 4.505141 0
M  V30 41 H 2.074091 3.628578 4.062814 0
M  V30 42 H 2.071871 4.368427 5.735247 0
M  V30 43 H 0.693689 1.376901 6.683086 0
M  V30 44 H -3.136424 -1.708217 1.453202 0
M  V30 45 H -3.929867 -2.042450 -0.502695 0
M  V30 46 H -3.001195 -3.357738 0.253722 0
M  V30 47 H -3.465144 -2.895049 -2.768445 0
M  V30 48 H -4.377069 -4.008293 -1.749050 0
M  V30 49 H -2.564156 -5.126756 -3.135089 0
M  V30 50 H -1.390090 -3.997923 -2.414409 0
M  V30 51 H -1.814063 -4.936651 -0.154015 0
M  V30 52 H -3.124243 -6.001721 -0.850405 0
M  V30 53 H -1.388109 -7.453893 -0.849931 0
M  V30 54 H -0.207824 -6.191630 -1.043873 0
M  V30 END ATOM
M  V30 BEGIN BOND
M  V30 1 1 1 2
M  V30 2 1 2 3
M  V30 3 1 3 4
M  V30 4 1 4 5
M  V30 5 2 5 6
M  V30 6 1 6 7
M  V30 7 1 7 8
M  V30 8 2 8 9
M  V30 9 1 9 10
M  V30 10 2 4 11
M  V30 11 1 11 12
M  V30 12 2 12 13
M  V30 13 1 13 14
M  V30 14 3 14 15
M  V30 15 1 15 16
M  V30 16 1 16 17
M  V30 17 1 16 18
M  V30 18 1 16 19
M  V30 19 1 13 20
M  V30 20 2 20 21
M  V30 21 1 21 22
M  V30 22 1 22 23
M  V30 23 1 23 24
M  V30 24 1 24 25
M  V30 25 1 25 26
M  V30 26 1 26 27
M  V30 27 1 27 28
M  V30 28 2 22 29
M  V30 29 1 29 3
M  V30 30 1 9 5
M  V30 31 1 29 12
M  V30 32 1 1 30
M  V30 33 1 1 31
M  V30 34 1 1 32
M  V30 35 1 2 33
M  V30 36 1 2 34
M  V30 37 1 10 35
M  V30 38 1 10 36
M  V30 39 1 17 37
M  V30 40 1 17 38
M  V30 41 1 17 39
M  V30 42 1 18 40
M  V30 43 1 18 41
M  V30 44 1 18 42
M  V30 45 1 19 43
M  V30 46 1 21 44
M  V30 47 1 24 45
M  V30 48 1 24 46
M  V30 49 1 25 47
M  V30 50 1 25 48
M  V30 51 1 26 49
M  V30 52 1 26 50
M  V30 53 1 27 51
M  V30 54 1 27 52
M  V30 55 1 28 53
M  V30 56 1 28 54
M  V30 END BOND
M  V30 END CTAB
M  END
>  <Dataset>  (6) 
ChEMBL_Kinases

>  <Ligand_Instance>  (6) 
nan

>  <PDB_ID>  (6) 
nan

>  <Standardized_SMILES>  (6) 
CCn1c(-c2nonc2N)nc2c(C#CC(C)(C)O)ncc(OCCCCN)c21

>  <Name>  (6) 
nan

>  <Pocket>  (6) 
nan

>  <ATP_Site>  (6) 
nan

>  <Peripheral>  (6) 
nan

>  <Num_H_Atoms_ProtBoundConf>  (6) 
nan

>  <Num_Resolved_Atoms>  (6) 
nan

>  <Num_Not_Resolved_Atoms>  (6) 
nan

$$$$
CHEMBL2407910
     RDKit          3D

  0  0  0  0  0  0  0  0  0  0999 V3000
M  V30 BEGIN CTAB
M  V30 COUNTS 31 34 0 0 0
M  V30 BEGIN ATOM
M  V30 1 O -0.670146 -0.805312 2.589755 0
M  V30 2 C 0.279284 -1.483592 2.125984 0
M  V30 3 N 0.878842 -2.587324 2.765584 0
M  V30 4 C 1.914175 -3.072369 1.918067 0
M  V30 5 C 2.772168 -4.132868 2.115726 0
M  V30 6 C 3.714133 -4.441351 1.157984 0
M  V30 7 C 3.777728 -3.665021 -0.000473 0
M  V30 8 C 2.925315 -2.587968 -0.229464 0
M  V30 9 C 1.998344 -2.318242 0.759161 0
M  V30 10 C 0.973988 -1.315210 0.876992 0
M  V30 11 C 0.674086 -0.394133 -0.016630 0
M  V30 12 C -0.377717 0.609493 0.041938 0
M  V30 13 C -0.062579 1.940904 -0.125507 0
M  V30 14 C -1.063541 2.890010 -0.105287 0
M  V30 15 C -2.369744 2.479980 0.084038 0
M  V30 16 N -3.540209 3.148651 0.152496 0
M  V30 17 N -4.566961 2.315098 0.352314 0
M  V30 18 C -4.085302 1.042849 0.422386 0
M  V30 19 C -2.698185 1.135824 0.253881 0
M  V30 20 C -1.665474 0.183831 0.229819 0
M  V30 21 H 0.569889 -2.942406 3.706410 0
M  V30 22 H 2.780386 -4.785741 2.998008 0
M  V30 23 H 4.429927 -5.272599 1.249578 0
M  V30 24 H 4.494122 -3.833382 -0.819280 0
M  V30 25 H 2.980713 -1.992043 -1.129230 0
M  V30 26 H 1.266450 -0.344728 -0.932352 0
M  V30 27 H 0.959840 2.246773 -0.273075 0
M  V30 28 H -0.832300 3.949395 -0.236731 0
M  V30 29 H -3.627849 4.196998 0.059835 0
M  V30 30 H -4.637406 0.137511 0.574194 0
M  V30 31 H -2.037342 -0.827337 0.349345 0
M  V30 END ATOM
M  V30 BEGIN BOND
M  V30 1 2 1 2
M  V30 2 1 2 3
M  V30 3 1 3 4
M  V30 4 2 4 5
M  V30 5 1 5 6
M  V30 6 2 6 7
M  V30 7 1 7 8
M  V30 8 2 8 9
M  V30 9 1 9 10
M  V30 10 2 10 11
M  V30 11 1 11 12
M  V30 12 2 12 13
M  V30 13 1 13 14
M  V30 14 2 14 15
M  V30 15 1 15 16
M  V30 16 1 16 17
M  V30 17 2 17 18
M  V30 18 1 18 19
M  V30 19 2 19 20
M  V30 20 1 10 2
M  V30 21 1 20 12
M  V30 22 1 9 4
M  V30 23 1 19 15
M  V30 24 1 3 21
M  V30 25 1 5 22
M  V30 26 1 6 23
M  V30 27 1 7 24
M  V30 28 1 8 25
M  V30 29 1 11 26
M  V30 30 1 13 27
M  V30 31 1 14 28
M  V30 32 1 16 29
M  V30 33 1 18 30
M  V30 34 1 20 31
M  V30 END BOND
M  V30 END CTAB
M  END
>  <Dataset>  (7) 
ChEMBL_Kinases

>  <Ligand_Instance>  (7) 
nan

>  <PDB_ID>  (7) 
nan

>  <Standardized_SMILES>  (7) 
O=C1Nc2ccccc2/C1=C/c1ccc2[nH]ncc2c1

>  <Name>  (7) 
nan

>  <Pocket>  (7) 
nan

>  <ATP_Site>  (7) 
nan

>  <Peripheral>  (7) 
nan

>  <Num_H_Atoms_ProtBoundConf>  (7) 
nan

>  <Num_Resolved_Atoms>  (7) 
nan

>  <Num_Not_Resolved_Atoms>  (7) 
nan

$$$$
CHEMBL2011936
     RDKit          3D

  0  0  0  0  0  0  0  0  0  0999 V3000
M  V30 BEGIN CTAB
M  V30 COUNTS 56 59 0 0 0
M  V30 BEGIN ATOM
M  V30 1 C -0.697068 -3.417726 6.110708 0
M  V30 2 O 0.031229 -4.275697 5.247397 0
M  V30 3 C 0.489562 -3.822506 4.029155 0
M  V30 4 C 0.282258 -2.531083 3.563217 0
M  V30 5 C 0.771325 -2.139615 2.325879 0
M  V30 6 C 1.469382 -3.049571 1.557930 0
M  V30 7 C 2.001832 -2.678330 0.248139 0
M  V30 8 N 1.888384 -1.474957 -0.344368 0
M  V30 9 C 2.492056 -1.470518 -1.546356 0
M  V30 10 C 2.697112 -0.564818 -2.569154 0
M  V30 11 N 2.173329 0.751489 -2.423344 0
M  V30 12 C 1.439306 1.113318 -1.211249 0
M  V30 13 C 0.985055 2.539097 -1.277477 0
M  V30 14 C 0.225038 2.932955 -0.035438 0
M  V30 15 N -0.961082 2.138836 0.193163 0
M  V30 16 C -2.001543 2.118794 -0.771118 0
M  V30 17 O -1.985245 2.757457 -1.854252 0
M  V30 18 C -3.189541 1.302831 -0.507694 0
M  V30 19 C -3.926194 1.721195 0.770806 0
M  V30 20 C -4.938947 0.595605 0.885715 0
M  V30 21 C -4.249689 -0.628656 0.291328 0
M  V30 22 C -2.867061 -0.140045 -0.139131 0
M  V30 23 C 3.384890 -0.873512 -3.725388 0
M  V30 24 Br 3.644284 0.409474 -5.112522 0
M  V30 25 C 3.861071 -2.169153 -3.790612 0
M  V30 26 N 3.678122 -3.074541 -2.811929 0
M  V30 27 C 2.995223 -2.746012 -1.678866 0
M  V30 28 N 2.705126 -3.488089 -0.598365 0
M  V30 29 C 1.668505 -4.329260 2.032138 0
M  V30 30 C 1.195318 -4.750437 3.258129 0
M  V30 31 H -0.070395 -2.500798 6.209462 0
M  V30 32 H -1.683838 -3.196072 5.664571 0
M  V30 33 H -0.800904 -3.871880 7.110210 0
M  V30 34 H -0.272482 -1.827406 4.186726 0
M  V30 35 H 0.620550 -1.130287 1.939365 0
M  V30 36 H 2.297924 1.476507 -3.163578 0
M  V30 37 H 2.025371 0.921090 -0.291763 0
M  V30 38 H 0.505186 0.485699 -1.255805 0
M  V30 39 H 0.325844 2.684879 -2.151903 0
M  V30 40 H 1.873397 3.205104 -1.314011 0
M  V30 41 H 0.895835 2.926014 0.847868 0
M  V30 42 H -0.132786 3.987484 -0.110355 0
M  V30 43 H -1.028278 1.588756 1.075716 0
M  V30 44 H -3.917751 1.284865 -1.325778 0
M  V30 45 H -4.378339 2.708202 0.695681 0
M  V30 46 H -3.172829 1.623109 1.591212 0
M  V30 47 H -5.803456 0.820179 0.224013 0
M  V30 48 H -5.218579 0.384237 1.919981 0
M  V30 49 H -4.773273 -1.010649 -0.595529 0
M  V30 50 H -4.180562 -1.450830 1.046956 0
M  V30 51 H -2.249014 -0.171226 0.780262 0
M  V30 52 H -2.474495 -0.707437 -0.987242 0
M  V30 53 H 4.417561 -2.474622 -4.688273 0
M  V30 54 H 2.958485 -4.482990 -0.425412 0
M  V30 55 H 2.218172 -5.062183 1.438592 0
M  V30 56 H 1.380121 -5.772134 3.585440 0
M  V30 END ATOM
M  V30 BEGIN BOND
M  V30 1 1 1 2
M  V30 2 1 2 3
M  V30 3 2 3 4
M  V30 4 1 4 5
M  V30 5 2 5 6
M  V30 6 1 6 7
M  V30 7 2 7 8
M  V30 8 1 8 9
M  V30 9 2 9 10
M  V30 10 1 10 11
M  V30 11 1 11 12
M  V30 12 1 12 13
M  V30 13 1 13 14
M  V30 14 1 14 15
M  V30 15 1 15 16
M  V30 16 2 16 17
M  V30 17 1 16 18
M  V30 18 1 18 19
M  V30 19 1 19 20
M  V30 20 1 20 21
M  V30 21 1 21 22
M  V30 22 1 10 23
M  V30 23 1 23 24
M  V30 24 2 23 25
M  V30 25 1 25 26
M  V30 26 2 26 27
M  V30 27 1 27 28
M  V30 28 1 6 29
M  V30 29 2 29 30
M  V30 30 1 30 3
M  V30 31 1 28 7
M  V30 32 1 27 9
M  V30 33 1 22 18
M  V30 34 1 1 31
M  V30 35 1 1 32
M  V30 36 1 1 33
M  V30 37 1 4 34
M  V30 38 1 5 35
M  V30 39 1 11 36
M  V30 40 1 12 37
M  V30 41 1 12 38
M  V30 42 1 13 39
M  V30 43 1 13 40
M  V30 44 1 14 41
M  V30 45 1 14 42
M  V30 46 1 15 43
M  V30 47 1 18 44
M  V30 48 1 19 45
M  V30 49 1 19 46
M  V30 50 1 20 47
M  V30 51 1 20 48
M  V30 52 1 21 49
M  V30 53 1 21 50
M  V30 54 1 22 51
M  V30 55 1 22 52
M  V30 56 1 25 53
M  V30 57 1 28 54
M  V30 58 1 29 55
M  V30 59 1 30 56
M  V30 END BOND
M  V30 END CTAB
M  END
>  <Dataset>  (8) 
ChEMBL_Kinases

>  <Ligand_Instance>  (8) 
nan

>  <PDB_ID>  (8) 
nan

>  <Standardized_SMILES>  (8) 
COc1ccc(-c2nc3c(NCCCNC(=O)C4CCCC4)c(Br)cnc3[nH]2)cc1

>  <Name>  (8) 
nan

>  <Pocket>  (8) 
nan

>  <ATP_Site>  (8) 
nan

>  <Peripheral>  (8) 
nan

>  <Num_H_Atoms_ProtBoundConf>  (8) 
nan

>  <Num_Resolved_Atoms>  (8) 
nan

>  <Num_Not_Resolved_Atoms>  (8) 
nan

$$$$
CHEMBL2030386
     RDKit          3D

  0  0  0  0  0  0  0  0  0  0999 V3000
M  V30 BEGIN CTAB
M  V30 COUNTS 36 39 0 0 0
M  V30 BEGIN ATOM
M  V30 1 O -0.520667 -1.434714 4.239104 0
M  V30 2 C -0.005063 -0.977930 3.191079 0
M  V30 3 N 0.908149 -1.666963 2.511634 0
M  V30 4 C 1.500797 -1.237784 1.382243 0
M  V30 5 C 2.506431 -1.905146 0.560319 0
M  V30 6 N 2.027008 -2.733121 -0.495028 0
M  V30 7 C 1.200131 -3.833258 -0.113657 0
M  V30 8 C -0.172021 -3.548013 -0.738834 0
M  V30 9 C 0.320546 -2.981230 -2.079142 0 CFG=1
M  V30 10 O -0.682320 -2.318535 -2.754486 0
M  V30 11 C 1.384248 -2.032075 -1.562055 0
M  V30 12 N 1.098770 -0.004848 0.951168 0
M  V30 13 C 0.179333 0.733967 1.599864 0
M  V30 14 C -0.411547 0.267097 2.756432 0
M  V30 15 O -1.259587 1.177002 3.175268 0
M  V30 16 C -1.278322 2.215392 2.384641 0
M  V30 17 C -2.003721 3.400029 2.423738 0
M  V30 18 C -1.805397 4.332086 1.426484 0
M  V30 19 C -0.899555 4.104414 0.394469 0
M  V30 20 Br -0.627205 5.409435 -0.994715 0
M  V30 21 C -0.176417 2.922287 0.356430 0
M  V30 22 C -0.367280 1.979528 1.352118 0
M  V30 23 H 1.222562 -2.607597 2.831548 0
M  V30 24 H 3.155142 -2.507043 1.230424 0
M  V30 25 H 3.190507 -1.151497 0.107763 0
M  V30 26 H 1.567178 -4.722266 -0.706052 0
M  V30 27 H 1.155804 -4.078618 0.942604 0
M  V30 28 H -0.793320 -4.432022 -0.849408 0
M  V30 29 H -0.602349 -2.710809 -0.170659 0
M  V30 30 H 0.777003 -3.792922 -2.680904 0
M  V30 31 H -0.682766 -2.674394 -3.693749 0
M  V30 32 H 2.062025 -1.664751 -2.355274 0
M  V30 33 H 0.793654 -1.207603 -1.079550 0
M  V30 34 H -2.714307 3.595227 3.220258 0
M  V30 35 H -2.375307 5.257523 1.461349 0
M  V30 36 H 0.541526 2.702278 -0.430444 0
M  V30 END ATOM
M  V30 BEGIN BOND
M  V30 1 2 1 2
M  V30 2 1 2 3
M  V30 3 1 3 4
M  V30 4 1 4 5
M  V30 5 1 5 6
M  V30 6 1 6 7
M  V30 7 1 7 8
M  V30 8 1 8 9
M  V30 9 1 9 10
M  V30 10 1 9 11
M  V30 11 2 4 12
M  V30 12 1 12 13
M  V30 13 2 13 14
M  V30 14 1 14 15
M  V30 15 1 15 16
M  V30 16 2 16 17
M  V30 17 1 17 18
M  V30 18 2 18 19
M  V30 19 1 19 20
M  V30 20 1 19 21
M  V30 21 2 21 22
M  V30 22 1 14 2
M  V30 23 1 22 16
M  V30 24 1 11 6
M  V30 25 1 22 13
M  V30 26 1 3 23
M  V30 27 1 5 24
M  V30 28 1 5 25
M  V30 29 1 7 26
M  V30 30 1 7 27
M  V30 31 1 8 28
M  V30 32 1 8 29
M  V30 33 1 9 30 CFG=3
M  V30 34 1 10 31
M  V30 35 1 11 32
M  V30 36 1 11 33
M  V30 37 1 17 34
M  V30 38 1 18 35
M  V30 39 1 21 36
M  V30 END BOND
M  V30 END CTAB
M  END
>  <Dataset>  (9) 
ChEMBL_Kinases

>  <Ligand_Instance>  (9) 
nan

>  <PDB_ID>  (9) 
nan

>  <Standardized_SMILES>  (9) 
O=c1[nH]c(CN2CC[C@@H](O)C2)nc2c1oc1ccc(Br)cc12

>  <Name>  (9) 
nan

>  <Pocket>  (9) 
nan

>  <ATP_Site>  (9) 
nan

>  <Peripheral>  (9) 
nan

>  <Num_H_Atoms_ProtBoundConf>  (9) 
nan

>  <Num_Resolved_Atoms>  (9) 
nan

>  <Num_Not_Resolved_Atoms>  (9) 
nan

$$$$
CHEMBL1802963
     RDKit          3D

  0  0  0  0  0  0  0  0  0  0999 V3000
M  V30 BEGIN CTAB
M  V30 COUNTS 26 28 0 0 0
M  V30 BEGIN ATOM
M  V30 1 N -0.230466 -2.410855 4.992135 0
M  V30 2 C 0.304806 -2.445726 3.658630 0
M  V30 3 N 1.082132 -3.448275 3.219350 0
M  V30 4 C 1.555724 -3.422662 1.950764 0
M  V30 5 C 1.182661 -2.333540 1.205157 0
M  V30 6 C 0.401631 -1.281714 1.575024 0
M  V30 7 C -0.021457 -0.103380 0.859668 0
M  V30 8 C -0.718234 0.905884 1.516223 0
M  V30 9 N -1.009253 1.887568 0.649680 0
M  V30 10 C -0.548033 1.608933 -0.580185 0
M  V30 11 C -0.557963 2.223374 -1.814935 0
M  V30 12 Br -1.406753 3.924781 -1.968604 0
M  V30 13 C 0.022573 1.646570 -2.926890 0
M  V30 14 C 0.615652 0.416661 -2.735075 0
M  V30 15 C 0.629570 -0.201216 -1.508193 0
M  V30 16 C 0.049613 0.385362 -0.415803 0
M  V30 17 N -0.002848 -1.423651 2.848395 0
M  V30 18 H -0.049101 -1.747595 5.776824 0
M  V30 19 H -0.922689 -3.137000 5.303959 0
M  V30 20 H 2.183953 -4.198098 1.541444 0
M  V30 21 H 1.582300 -2.338818 0.211944 0
M  V30 22 H -1.047954 1.028141 2.551403 0
M  V30 23 H -1.525701 2.787327 0.829877 0
M  V30 24 H 0.024442 2.116362 -3.908025 0
M  V30 25 H 1.073245 -0.031215 -3.626941 0
M  V30 26 H 1.108109 -1.144149 -1.487684 0
M  V30 END ATOM
M  V30 BEGIN BOND
M  V30 1 1 1 2
M  V30 2 2 2 3
M  V30 3 1 3 4
M  V30 4 2 4 5
M  V30 5 1 5 6
M  V30 6 1 6 7
M  V30 7 2 7 8
M  V30 8 1 8 9
M  V30 9 1 9 10
M  V30 10 2 10 11
M  V30 11 1 11 12
M  V30 12 1 11 13
M  V30 13 2 13 14
M  V30 14 1 14 15
M  V30 15 2 15 16
M  V30 16 2 6 17
M  V30 17 1 17 2
M  V30 18 1 16 7
M  V30 19 1 16 10
M  V30 20 1 1 18
M  V30 21 1 1 19
M  V30 22 1 4 20
M  V30 23 1 5 21
M  V30 24 1 8 22
M  V30 25 1 9 23
M  V30 26 1 13 24
M  V30 27 1 14 25
M  V30 28 1 15 26
M  V30 END BOND
M  V30 END CTAB
M  END
>  <Dataset>  (10) 
ChEMBL_Kinases

>  <Ligand_Instance>  (10) 
nan

>  <PDB_ID>  (10) 
nan

>  <Standardized_SMILES>  (10) 
Nc1nccc(-c2c[nH]c3c(Br)cccc23)n1

>  <Name>  (10) 
nan

>  <Pocket>  (10) 
nan

>  <ATP_Site>  (10) 
nan

>  <Peripheral>  (10) 
nan

>  <Num_H_Atoms_ProtBoundConf>  (10) 
nan

>  <Num_Resolved_Atoms>  (10) 
nan

>  <Num_Not_Resolved_Atoms>  (10) 
nan

$$$$
CHEMBL2030387
     RDKit          3D

  0  0  0  0  0  0  0  0  0  0999 V3000
M  V30 BEGIN CTAB
M  V30 COUNTS 37 40 0 0 0
M  V30 BEGIN ATOM
M  V30 1 N -1.472359 -2.668344 1.187235 0
M  V30 2 C -0.753877 -3.318754 2.252980 0 CFG=1
M  V30 3 C -0.110227 -4.556773 1.652383 0
M  V30 4 C 0.995931 -3.882463 0.827661 0
M  V30 5 N 1.544191 -2.990519 1.810547 0
M  V30 6 C 2.417667 -1.988841 1.286803 0
M  V30 7 C 1.829736 -1.076375 0.304224 0
M  V30 8 N 1.245814 0.068847 0.731119 0
M  V30 9 C 0.688448 0.952470 -0.091198 0
M  V30 10 C 0.688114 0.721154 -1.452581 0
M  V30 11 O 0.088974 1.722261 -2.035700 0
M  V30 12 C -0.321610 2.623493 -1.172213 0
M  V30 13 C -0.986320 3.811493 -1.365282 0
M  V30 14 C -1.285450 4.555079 -0.225543 0
M  V30 15 C -0.935155 4.126639 1.036225 0
M  V30 16 Br -1.382057 5.203427 2.538863 0
M  V30 17 C -0.265981 2.921465 1.176612 0
M  V30 18 C 0.045196 2.161091 0.068209 0
M  V30 19 C 1.277346 -0.443568 -1.936673 0
M  V30 20 O 1.310842 -0.712158 -3.152130 0
M  V30 21 N 1.812816 -1.272019 -1.026558 0
M  V30 22 C 0.478271 -2.520122 2.634571 0
M  V30 23 H -2.285508 -2.106121 1.503857 0
M  V30 24 H -1.753402 -3.358431 0.455848 0
M  V30 25 H -1.399419 -3.570973 3.117051 0
M  V30 26 H 0.420979 -5.146404 2.452526 0
M  V30 27 H -0.791577 -5.159207 1.039585 0
M  V30 28 H 1.707970 -4.629104 0.463477 0
M  V30 29 H 0.453653 -3.357317 0.016437 0
M  V30 30 H 3.292708 -2.489326 0.845985 0
M  V30 31 H 2.819312 -1.431667 2.173618 0
M  V30 32 H -1.269279 4.165630 -2.337313 0
M  V30 33 H -1.805882 5.484431 -0.381303 0
M  V30 34 H 0.010665 2.578129 2.144037 0
M  V30 35 H 2.268752 -2.164201 -1.347927 0
M  V30 36 H 0.714599 -2.779643 3.693470 0
M  V30 37 H 0.303768 -1.429704 2.554067 0
M  V30 END ATOM
M  V30 BEGIN BOND
M  V30 1 1 1 2
M  V30 2 1 2 3
M  V30 3 1 3 4
M  V30 4 1 4 5
M  V30 5 1 5 6
M  V30 6 1 6 7
M  V30 7 2 7 8
M  V30 8 1 8 9
M  V30 9 2 9 10
M  V30 10 1 10 11
M  V30 11 1 11 12
M  V30 12 2 12 13
M  V30 13 1 13 14
M  V30 14 2 14 15
M  V30 15 1 15 16
M  V30 16 1 15 17
M  V30 17 2 17 18
M  V30 18 1 10 19
M  V30 19 2 19 20
M  V30 20 1 19 21
M  V30 21 1 5 22
M  V30 22 1 22 2
M  V30 23 1 21 7
M  V30 24 1 18 9
M  V30 25 1 18 12
M  V30 26 1 1 23
M  V30 27 1 1 24
M  V30 28 1 2 25 CFG=1
M  V30 29 1 3 26
M  V30 30 1 3 27
M  V30 31 1 4 28
M  V30 32 1 4 29
M  V30 33 1 6 30
M  V30 34 1 6 31
M  V30 35 1 13 32
M  V30 36 1 14 33
M  V30 37 1 17 34
M  V30 38 1 21 35
M  V30 39 1 22 36
M  V30 40 1 22 37
M  V30 END BOND
M  V30 END CTAB
M  END
>  <Dataset>  (11) 
ChEMBL_Kinases

>  <Ligand_Instance>  (11) 
nan

>  <PDB_ID>  (11) 
nan

>  <Standardized_SMILES>  (11) 
N[C@H]1CCN(Cc2nc3c(oc4ccc(Br)cc43)c(=O)[nH]2)C1

>  <Name>  (11) 
nan

>  <Pocket>  (11) 
nan

>  <ATP_Site>  (11) 
nan

>  <Peripheral>  (11) 
nan

>  <Num_H_Atoms_ProtBoundConf>  (11) 
nan

>  <Num_Resolved_Atoms>  (11) 
nan

>  <Num_Not_Resolved_Atoms>  (11) 
nan

$$$$
CHEMBL2385591
     RDKit          3D

  0  0  0  0  0  0  0  0  0  0999 V3000
M  V30 BEGIN CTAB
M  V30 COUNTS 53 58 0 0 0
M  V30 BEGIN ATOM
M  V30 1 C 2.757443 -7.242056 1.983241 0
M  V30 2 C 3.032437 -5.889710 2.015339 0
M  V30 3 C 2.942936 -5.163326 0.845648 0
M  V30 4 C 3.198704 -3.712380 0.690487 0
M  V30 5 C 4.317378 -2.947436 0.393589 0
M  V30 6 N 3.936178 -1.661951 0.386549 0
M  V30 7 N 2.641703 -1.564663 0.661347 0
M  V30 8 C 1.842276 -0.461763 0.758061 0
M  V30 9 C 0.511142 -0.638966 1.060196 0
M  V30 10 C -0.389214 0.498657 1.174499 0
M  V30 11 C 0.034668 1.730957 1.625939 0
M  V30 12 C -0.828349 2.795338 1.726760 0
M  V30 13 C -2.159090 2.718056 1.391654 0
M  V30 14 N -3.056402 3.794986 1.486834 0
M  V30 15 C -4.463890 3.807342 1.150681 0
M  V30 16 C -4.768503 4.768280 0.018106 0
M  V30 17 N -4.302943 6.080772 0.336562 0
M  V30 18 C -2.963460 6.126579 0.835808 0
M  V30 19 C -2.733662 5.110846 1.944255 0
M  V30 20 C -2.555523 1.479436 0.944927 0
M  V30 21 C -1.718529 0.388914 0.830583 0
M  V30 22 C -0.007958 -1.900847 1.261467 0
M  V30 23 N 0.836900 -2.937451 1.150128 0
M  V30 24 C 2.142853 -2.814543 0.857352 0
M  V30 25 C 2.586416 -5.756556 -0.348746 0
M  V30 26 C 2.476466 -5.090831 -1.561611 0
M  V30 27 C 2.119260 -5.715226 -2.729330 0
M  V30 28 C 1.863974 -7.055222 -2.674572 0
M  V30 29 N 1.955799 -7.745288 -1.527839 0
M  V30 30 C 2.308910 -7.106032 -0.395726 0
M  V30 31 C 2.396432 -7.843955 0.775549 0
M  V30 32 H 2.834218 -7.793687 2.917079 0
M  V30 33 H 3.320486 -5.321119 2.892062 0
M  V30 34 H 5.233199 -3.490290 0.232240 0
M  V30 35 H 2.236716 0.541045 0.601732 0
M  V30 36 H 1.072328 1.825734 1.897065 0
M  V30 37 H -0.397560 3.715604 2.090742 0
M  V30 38 H -4.804714 2.813046 0.796999 0
M  V30 39 H -5.052159 4.112483 2.066305 0
M  V30 40 H -4.314468 4.330912 -0.903699 0
M  V30 41 H -5.887307 4.809028 -0.050492 0
M  V30 42 H -4.342664 6.708755 -0.504188 0
M  V30 43 H -2.819315 7.148361 1.257755 0
M  V30 44 H -2.229303 5.888232 0.046664 0
M  V30 45 H -3.386217 5.411376 2.796885 0
M  V30 46 H -1.692906 5.243138 2.284098 0
M  V30 47 H -3.560790 1.247719 0.642348 0
M  V30 48 H -2.029530 -0.588570 0.478513 0
M  V30 49 H -1.061335 -2.097580 1.504520 0
M  V30 50 H 2.686409 -4.029787 -1.568416 0
M  V30 51 H 2.059959 -5.111031 -3.626786 0
M  V30 52 H 1.582675 -7.512445 -3.630318 0
M  V30 53 H 2.183992 -8.916865 0.778755 0
M  V30 END ATOM
M  V30 BEGIN BOND
M  V30 1 2 1 2
M  V30 2 1 2 3
M  V30 3 1 3 4
M  V30 4 1 4 5
M  V30 5 2 5 6
M  V30 6 1 6 7
M  V30 7 1 7 8
M  V30 8 2 8 9
M  V30 9 1 9 10
M  V30 10 2 10 11
M  V30 11 1 11 12
M  V30 12 2 12 13
M  V30 13 1 13 14
M  V30 14 1 14 15
M  V30 15 1 15 16
M  V30 16 1 16 17
M  V30 17 1 17 18
M  V30 18 1 18 19
M  V30 19 1 13 20
M  V30 20 2 20 21
M  V30 21 1 9 22
M  V30 22 2 22 23
M  V30 23 1 23 24
M  V30 24 2 3 25
M  V30 25 1 25 26
M  V30 26 2 26 27
M  V30 27 1 27 28
M  V30 28 2 28 29
M  V30 29 1 29 30
M  V30 30 2 30 31
M  V30 31 1 31 1
M  V30 32 2 24 4
M  V30 33 1 30 25
M  V30 34 1 24 7
M  V30 35 1 21 10
M  V30 36 1 19 14
M  V30 37 1 1 32
M  V30 38 1 2 33
M  V30 39 1 5 34
M  V30 40 1 8 35
M  V30 41 1 11 36
M  V30 42 1 12 37
M  V30 43 1 15 38
M  V30 44 1 15 39
M  V30 45 1 16 40
M  V30 46 1 16 41
M  V30 47 1 17 42
M  V30 48 1 18 43
M  V30 49 1 18 44
M  V30 50 1 19 45
M  V30 51 1 19 46
M  V30 52 1 20 47
M  V30 53 1 21 48
M  V30 54 1 22 49
M  V30 55 1 26 50
M  V30 56 1 27 51
M  V30 57 1 28 52
M  V30 58 1 31 53
M  V30 END BOND
M  V30 END CTAB
M  END
>  <Dataset>  (12) 
ChEMBL_Kinases

>  <Ligand_Instance>  (12) 
nan

>  <PDB_ID>  (12) 
nan

>  <Standardized_SMILES>  (12) 
c1cc(-c2cnn3cc(-c4ccc(N5CCNCC5)cc4)cnc23)c2cccnc2c1

>  <Name>  (12) 
nan

>  <Pocket>  (12) 
nan

>  <ATP_Site>  (12) 
nan

>  <Peripheral>  (12) 
nan

>  <Num_H_Atoms_ProtBoundConf>  (12) 
nan

>  <Num_Resolved_Atoms>  (12) 
nan

>  <Num_Not_Resolved_Atoms>  (12) 
nan

$$$$
CHEMBL2030388
     RDKit          3D

  0  0  0  0  0  0  0  0  0  0999 V3000
M  V30 BEGIN CTAB
M  V30 COUNTS 37 40 0 0 0
M  V30 BEGIN ATOM
M  V30 1 N -1.016890 -3.600316 3.490373 0
M  V30 2 C -0.518433 -3.100961 2.202930 0 CFG=2
M  V30 3 C -0.314389 -4.301076 1.281917 0
M  V30 4 C 0.855517 -3.796586 0.427171 0
M  V30 5 N 1.675312 -3.028881 1.309716 0
M  V30 6 C 2.533809 -2.083502 0.669575 0
M  V30 7 C 1.765061 -1.097506 -0.131655 0
M  V30 8 N 1.306124 0.047945 0.428174 0
M  V30 9 C 0.611059 0.983240 -0.230736 0
M  V30 10 C 0.327940 0.794055 -1.573687 0
M  V30 11 O -0.360909 1.836248 -2.009205 0
M  V30 12 C -0.554593 2.707109 -1.042562 0
M  V30 13 C -1.219760 3.933310 -1.048769 0
M  V30 14 C -1.257800 4.641066 0.152677 0
M  V30 15 C -0.655698 4.120111 1.268412 0
M  V30 16 Br -0.778519 5.184342 2.846387 0
M  V30 17 C 0.001647 2.910770 1.279154 0
M  V30 18 C 0.045905 2.199753 0.093232 0
M  V30 19 C 0.782522 -0.361834 -2.168651 0
M  V30 20 O 0.523251 -0.529234 -3.387480 0
M  V30 21 N 1.474772 -1.252737 -1.436110 0
M  V30 22 C 0.848334 -2.503870 2.347737 0
M  V30 23 H -1.976313 -3.200168 3.712441 0
M  V30 24 H -1.150973 -4.634914 3.459091 0
M  V30 25 H -1.261104 -2.406236 1.741865 0
M  V30 26 H -1.203010 -4.472055 0.640205 0
M  V30 27 H 0.033962 -5.194363 1.824381 0
M  V30 28 H 1.417159 -4.621233 -0.018757 0
M  V30 29 H 0.365358 -3.217678 -0.384456 0
M  V30 30 H 3.359747 -2.537688 0.105701 0
M  V30 31 H 3.045070 -1.468876 1.468288 0
M  V30 32 H -1.689137 4.324854 -1.946041 0
M  V30 33 H -1.778786 5.583356 0.113621 0
M  V30 34 H 0.468765 2.518740 2.167622 0
M  V30 35 H 1.799192 -2.110231 -1.934092 0
M  V30 36 H 1.243793 -2.822496 3.356463 0
M  V30 37 H 0.849665 -1.398884 2.368038 0
M  V30 END ATOM
M  V30 BEGIN BOND
M  V30 1 1 1 2
M  V30 2 1 2 3
M  V30 3 1 3 4
M  V30 4 1 4 5
M  V30 5 1 5 6
M  V30 6 1 6 7
M  V30 7 2 7 8
M  V30 8 1 8 9
M  V30 9 2 9 10
M  V30 10 1 10 11
M  V30 11 1 11 12
M  V30 12 2 12 13
M  V30 13 1 13 14
M  V30 14 2 14 15
M  V30 15 1 15 16
M  V30 16 1 15 17
M  V30 17 2 17 18
M  V30 18 1 10 19
M  V30 19 2 19 20
M  V30 20 1 19 21
M  V30 21 1 5 22
M  V30 22 1 22 2
M  V30 23 1 21 7
M  V30 24 1 18 9
M  V30 25 1 18 12
M  V30 26 1 1 23
M  V30 27 1 1 24
M  V30 28 1 2 25 CFG=3
M  V30 29 1 3 26
M  V30 30 1 3 27
M  V30 31 1 4 28
M  V30 32 1 4 29
M  V30 33 1 6 30
M  V30 34 1 6 31
M  V30 35 1 13 32
M  V30 36 1 14 33
M  V30 37 1 17 34
M  V30 38 1 21 35
M  V30 39 1 22 36
M  V30 40 1 22 37
M  V30 END BOND
M  V30 END CTAB
M  END
>  <Dataset>  (13) 
ChEMBL_Kinases

>  <Ligand_Instance>  (13) 
nan

>  <PDB_ID>  (13) 
nan

>  <Standardized_SMILES>  (13) 
N[C@@H]1CCN(Cc2nc3c(oc4ccc(Br)cc43)c(=O)[nH]2)C1

>  <Name>  (13) 
nan

>  <Pocket>  (13) 
nan

>  <ATP_Site>  (13) 
nan

>  <Peripheral>  (13) 
nan

>  <Num_H_Atoms_ProtBoundConf>  (13) 
nan

>  <Num_Resolved_Atoms>  (13) 
nan

>  <Num_Not_Resolved_Atoms>  (13) 
nan

$$$$
CHEMBL1803068
     RDKit          3D

  0  0  0  0  0  0  0  0  0  0999 V3000
M  V30 BEGIN CTAB
M  V30 COUNTS 45 49 0 0 0
M  V30 BEGIN ATOM
M  V30 1 C 1.853487 -1.930283 4.981452 0
M  V30 2 N 1.871200 -1.154912 3.750246 0
M  V30 3 C 2.989055 -0.996961 2.850736 0
M  V30 4 O 4.080384 -1.541523 3.068557 0
M  V30 5 C 2.418780 -0.120005 1.808427 0
M  V30 6 C 3.195216 0.244971 0.785857 0
M  V30 7 C 2.633926 1.114087 -0.249636 0
M  V30 8 C 1.734176 2.140193 0.067030 0
M  V30 9 C 1.196970 2.972744 -0.917726 0
M  V30 10 C 1.641763 2.674752 -2.187044 0
M  V30 11 C 2.517395 1.697034 -2.604866 0
M  V30 12 C 3.014795 0.904479 -1.580456 0
M  V30 13 O 2.636507 1.813288 -3.987473 0
M  V30 14 C 1.471997 2.499980 -4.471231 0
M  V30 15 O 1.249790 3.366965 -3.352196 0
M  V30 16 N 1.069483 0.191898 2.105562 0
M  V30 17 C 0.775626 -0.415114 3.228778 0
M  V30 18 N -0.511258 -0.295247 3.807750 0
M  V30 19 C -1.740901 -0.080175 3.092783 0
M  V30 20 C -2.057466 -1.196816 2.172001 0
M  V30 21 C -2.809783 -2.235574 2.729677 0
M  V30 22 C -3.144913 -3.302823 1.934286 0
M  V30 23 C -2.811007 -3.467192 0.608045 0
M  V30 24 C -2.056890 -2.407628 0.081294 0
M  V30 25 C -1.702515 -1.321855 0.847420 0
M  V30 26 O -1.818641 -2.744718 -1.244066 0
M  V30 27 C -2.738434 -3.752137 -1.661434 0
M  V30 28 O -2.995756 -4.386852 -0.399023 0
M  V30 29 H 0.855164 -2.447787 5.000318 0
M  V30 30 H 1.880345 -1.288446 5.880831 0
M  V30 31 H 2.610858 -2.729965 4.974789 0
M  V30 32 H 4.224304 -0.061732 0.669606 0
M  V30 33 H 1.435485 2.306602 1.096843 0
M  V30 34 H 0.516316 3.750928 -0.694161 0
M  V30 35 H 3.706122 0.126304 -1.865879 0
M  V30 36 H 0.687753 1.728385 -4.499390 0
M  V30 37 H 1.639281 3.036538 -5.404009 0
M  V30 38 H -0.562871 -0.374812 4.867426 0
M  V30 39 H -2.594882 0.053252 3.778972 0
M  V30 40 H -1.660605 0.865072 2.509212 0
M  V30 41 H -3.143481 -2.243989 3.754952 0
M  V30 42 H -3.735957 -4.123324 2.366546 0
M  V30 43 H -1.125216 -0.496427 0.465519 0
M  V30 44 H -3.651670 -3.303493 -2.094861 0
M  V30 45 H -2.215097 -4.440684 -2.351321 0
M  V30 END ATOM
M  V30 BEGIN BOND
M  V30 1 1 1 2
M  V30 2 1 2 3
M  V30 3 2 3 4
M  V30 4 1 3 5
M  V30 5 2 5 6
M  V30 6 1 6 7
M  V30 7 2 7 8
M  V30 8 1 8 9
M  V30 9 2 9 10
M  V30 10 1 10 11
M  V30 11 2 11 12
M  V30 12 1 11 13
M  V30 13 1 13 14
M  V30 14 1 14 15
M  V30 15 1 5 16
M  V30 16 2 16 17
M  V30 17 1 17 18
M  V30 18 1 18 19
M  V30 19 1 19 20
M  V30 20 2 20 21
M  V30 21 1 21 22
M  V30 22 2 22 23
M  V30 23 1 23 24
M  V30 24 2 24 25
M  V30 25 1 24 26
M  V30 26 1 26 27
M  V30 27 1 27 28
M  V30 28 1 17 2
M  V30 29 1 25 20
M  V30 30 1 12 7
M  V30 31 1 28 23
M  V30 32 1 15 10
M  V30 33 1 1 29
M  V30 34 1 1 30
M  V30 35 1 1 31
M  V30 36 1 6 32
M  V30 37 1 8 33
M  V30 38 1 9 34
M  V30 39 1 12 35
M  V30 40 1 14 36
M  V30 41 1 14 37
M  V30 42 1 18 38
M  V30 43 1 19 39
M  V30 44 1 19 40
M  V30 45 1 21 41
M  V30 46 1 22 42
M  V30 47 1 25 43
M  V30 48 1 27 44
M  V30 49 1 27 45
M  V30 END BOND
M  V30 END CTAB
M  END
>  <Dataset>  (14) 
ChEMBL_Kinases

>  <Ligand_Instance>  (14) 
nan

>  <PDB_ID>  (14) 
nan

>  <Standardized_SMILES>  (14) 
CN1C(=O)/C(=C/c2ccc3c(c2)OCO3)N=C1NCc1ccc2c(c1)OCO2

>  <Name>  (14) 
nan

>  <Pocket>  (14) 
nan

>  <ATP_Site>  (14) 
nan

>  <Peripheral>  (14) 
nan

>  <Num_H_Atoms_ProtBoundConf>  (14) 
nan

>  <Num_Resolved_Atoms>  (14) 
nan

>  <Num_Not_Resolved_Atoms>  (14) 
nan

$$$$
CHEMBL4452360
     RDKit          3D

  0  0  0  0  0  0  0  0  0  0999 V3000
M  V30 BEGIN CTAB
M  V30 COUNTS 49 52 0 0 0
M  V30 BEGIN ATOM
M  V30 1 C -2.201659 1.823090 -4.047109 0
M  V30 2 N -1.864101 2.448825 -2.769144 0
M  V30 3 C -0.889875 3.483380 -3.069210 0
M  V30 4 S -3.280180 3.212858 -2.162297 0
M  V30 5 O -4.162781 3.668986 -3.322349 0
M  V30 6 O -2.997527 4.425156 -1.341524 0
M  V30 7 N -4.198743 2.114968 -1.170266 0
M  V30 8 C -3.800263 1.464605 0.037989 0
M  V30 9 C -4.516119 1.476463 1.217204 0
M  V30 10 C -4.090833 0.863787 2.372619 0
M  V30 11 C -2.855377 0.201138 2.296981 0
M  V30 12 C -2.082241 0.152265 1.129131 0
M  V30 13 C -0.801624 -0.525633 1.084998 0
M  V30 14 C -0.069920 -0.374231 -0.090713 0
M  V30 15 C 1.168107 -0.985904 -0.197256 0
M  V30 16 C 1.757175 -1.765789 0.811636 0
M  V30 17 C 2.937145 -2.497400 0.995790 0
M  V30 18 N 3.797283 -2.428438 -0.137452 0
M  V30 19 C 3.390112 -3.219813 -1.231281 0
M  V30 20 O 2.293958 -3.799471 -0.795919 0
M  V30 21 C 3.722295 -3.616988 -2.615703 0
M  V30 22 C 2.580463 -3.623389 -3.601413 0
M  V30 23 C 3.148490 -4.902009 -3.134814 0
M  V30 24 N 2.848743 -3.022385 2.224562 0
M  V30 25 N 1.729139 -2.678555 2.798881 0
M  V30 26 C 0.997266 -1.899967 1.981527 0
M  V30 27 C -0.247728 -1.279235 2.076548 0
M  V30 28 C -2.579181 0.795051 0.008272 0
M  V30 29 H -2.074223 2.590319 -4.828112 0
M  V30 30 H -3.262889 1.489525 -4.077393 0
M  V30 31 H -1.503285 0.985696 -4.274359 0
M  V30 32 H 0.141272 3.062223 -3.053353 0
M  V30 33 H -1.004566 4.308599 -2.336446 0
M  V30 34 H -1.138981 3.912041 -4.070440 0
M  V30 35 H -5.169803 1.858266 -1.444355 0
M  V30 36 H -5.473805 1.998605 1.232940 0
M  V30 37 H -4.617903 0.843322 3.313170 0
M  V30 38 H -2.472574 -0.293419 3.157831 0
M  V30 39 H -0.298289 0.153949 -0.971008 0
M  V30 40 H 1.752583 -0.868148 -1.131993 0
M  V30 41 H 4.684998 -1.955157 -0.445043 0
M  V30 42 H 4.687302 -3.219586 -3.047697 0
M  V30 43 H 1.559114 -3.367070 -3.200182 0
M  V30 44 H 2.776132 -3.228956 -4.599018 0
M  V30 45 H 3.748825 -5.446834 -3.924320 0
M  V30 46 H 2.579948 -5.565326 -2.466725 0
M  V30 47 H 1.374895 -2.923400 3.751630 0
M  V30 48 H -0.794011 -1.393873 2.979725 0
M  V30 49 H -2.079257 0.831590 -0.934509 0
M  V30 END ATOM
M  V30 BEGIN BOND
M  V30 1 1 1 2
M  V30 2 1 2 3
M  V30 3 1 2 4
M  V30 4 2 4 5
M  V30 5 2 4 6
M  V30 6 1 4 7
M  V30 7 1 7 8
M  V30 8 2 8 9
M  V30 9 1 9 10
M  V30 10 2 10 11
M  V30 11 1 11 12
M  V30 12 1 12 13
M  V30 13 2 13 14
M  V30 14 1 14 15
M  V30 15 2 15 16
M  V30 16 1 16 17
M  V30 17 1 17 18
M  V30 18 1 18 19
M  V30 19 2 19 20
M  V30 20 1 19 21
M  V30 21 1 21 22
M  V30 22 1 22 23
M  V30 23 2 17 24
M  V30 24 1 24 25
M  V30 25 1 25 26
M  V30 26 2 26 27
M  V30 27 2 12 28
M  V30 28 1 28 8
M  V30 29 1 27 13
M  V30 30 1 26 16
M  V30 31 1 23 21
M  V30 32 1 1 29
M  V30 33 1 1 30
M  V30 34 1 1 31
M  V30 35 1 3 32
M  V30 36 1 3 33
M  V30 37 1 3 34
M  V30 38 1 7 35
M  V30 39 1 9 36
M  V30 40 1 10 37
M  V30 41 1 11 38
M  V30 42 1 14 39
M  V30 43 1 15 40
M  V30 44 1 18 41
M  V30 45 1 21 42
M  V30 46 1 22 43
M  V30 47 1 22 44
M  V30 48 1 23 45
M  V30 49 1 23 46
M  V30 50 1 25 47
M  V30 51 1 27 48
M  V30 52 1 28 49
M  V30 END BOND
M  V30 END CTAB
M  END
>  <Dataset>  (15) 
ChEMBL_Kinases

>  <Ligand_Instance>  (15) 
nan

>  <PDB_ID>  (15) 
nan

>  <Standardized_SMILES>  (15) 
CN(C)S(=O)(=O)Nc1cccc(-c2ccc3c(NC(=O)C4CC4)n[nH]c3c2)c1

>  <Name>  (15) 
nan

>  <Pocket>  (15) 
nan

>  <ATP_Site>  (15) 
nan

>  <Peripheral>  (15) 
nan

>  <Num_H_Atoms_ProtBoundConf>  (15) 
nan

>  <Num_Resolved_Atoms>  (15) 
nan

>  <Num_Not_Resolved_Atoms>  (15) 
nan

$$$$
CHEMBL3808660
     RDKit          3D

  0  0  0  0  0  0  0  0  0  0999 V3000
M  V30 BEGIN CTAB
M  V30 COUNTS 59 63 0 0 0
M  V30 BEGIN ATOM
M  V30 1 C 1.095595 -0.195533 6.253806 0
M  V30 2 C 1.087174 -1.142894 5.132092 0
M  V30 3 C 1.170231 -0.840270 3.867610 0
M  V30 4 C 1.289620 0.581332 3.567964 0
M  V30 5 O 1.311040 1.489821 4.435943 0
M  V30 6 N 1.393660 1.031765 2.225125 0
M  V30 7 C 1.520196 2.259066 1.532578 0
M  V30 8 C 2.733012 2.839325 1.216967 0
M  V30 9 C 2.790767 4.050380 0.530463 0
M  V30 10 C 1.598139 4.650347 0.176717 0
M  V30 11 N 1.335369 5.804303 -0.481187 0
M  V30 12 N 0.036180 5.991268 -0.601878 0
M  V30 13 C -0.626506 4.962417 -0.025318 0
M  V30 14 C 0.346047 4.119571 0.463915 0
M  V30 15 C 0.367469 2.912505 1.149010 0
M  V30 16 C 1.104790 -1.795518 2.752838 0
M  V30 17 C -0.174038 -1.637464 1.954484 0
M  V30 18 C -1.150491 -0.700538 2.228517 0
M  V30 19 C -2.276958 -0.627646 1.439193 0
M  V30 20 C -2.383389 -1.510279 0.389433 0
M  V30 21 F -3.476504 -1.424353 -0.361104 0
M  V30 22 C -1.451436 -2.465849 0.060920 0
M  V30 23 C -1.499828 -3.426484 -1.024710 0
M  V30 24 O -0.541443 -4.240134 -1.218641 0
M  V30 25 N -2.517006 -3.616009 -1.970217 0
M  V30 26 C -2.576627 -4.568538 -3.059278 0
M  V30 27 C -1.723076 -4.099457 -4.181985 0
M  V30 28 C -0.402264 -4.386988 -4.445689 0
M  V30 29 C 0.246539 -3.854426 -5.539842 0
M  V30 30 C -0.429342 -3.013162 -6.398837 0
M  V30 31 C -1.755143 -2.728440 -6.128709 0
M  V30 32 N -2.358665 -3.263883 -5.053385 0
M  V30 33 C -0.334014 -2.496019 0.889878 0
M  V30 34 N 1.211536 -3.173859 3.122651 0
M  V30 35 C 1.109303 -3.607824 4.472558 0
M  V30 36 O 1.069210 -4.802648 4.832730 0
M  V30 37 N 1.053176 -2.555838 5.426946 0
M  V30 38 H 0.232906 0.500718 6.243239 0
M  V30 39 H 2.077558 0.352914 6.330200 0
M  V30 40 H 1.013242 -0.742725 7.214855 0
M  V30 41 H 1.392727 0.390854 1.403525 0
M  V30 42 H 3.640656 2.335794 1.512902 0
M  V30 43 H 3.740117 4.521808 0.273654 0
M  V30 44 H 1.992796 6.510553 -0.874784 0
M  V30 45 H -1.679162 4.719456 0.100974 0
M  V30 46 H -0.608700 2.482786 1.382080 0
M  V30 47 H 1.937986 -1.542795 2.054469 0
M  V30 48 H -1.021641 -0.035457 3.068287 0
M  V30 49 H -3.049003 0.094837 1.635547 0
M  V30 50 H -3.358318 -3.005794 -1.910458 0
M  V30 51 H -2.161500 -5.555073 -2.705469 0
M  V30 52 H -3.591118 -4.735673 -3.428347 0
M  V30 53 H 0.065340 -5.054424 -3.737821 0
M  V30 54 H 1.286577 -4.137554 -5.666171 0
M  V30 55 H 0.080303 -2.600227 -7.250260 0
M  V30 56 H -2.317051 -2.076840 -6.774695 0
M  V30 57 H 0.453231 -3.237253 0.682369 0
M  V30 58 H 1.369681 -3.875264 2.378331 0
M  V30 59 H 0.979919 -2.843625 6.445561 0
M  V30 END ATOM
M  V30 BEGIN BOND
M  V30 1 1 1 2
M  V30 2 2 2 3
M  V30 3 1 3 4
M  V30 4 2 4 5
M  V30 5 1 4 6
M  V30 6 1 6 7
M  V30 7 2 7 8
M  V30 8 1 8 9
M  V30 9 2 9 10
M  V30 10 1 10 11
M  V30 11 1 11 12
M  V30 12 2 12 13
M  V30 13 1 13 14
M  V30 14 2 14 15
M  V30 15 1 3 16
M  V30 16 1 16 17
M  V30 17 2 17 18
M  V30 18 1 18 19
M  V30 19 2 19 20
M  V30 20 1 20 21
M  V30 21 1 20 22
M  V30 22 1 22 23
M  V30 23 2 23 24
M  V30 24 1 23 25
M  V30 25 1 25 26
M  V30 26 1 26 27
M  V30 27 2 27 28
M  V30 28 1 28 29
M  V30 29 2 29 30
M  V30 30 1 30 31
M  V30 31 2 31 32
M  V30 32 2 22 33
M  V30 33 1 16 34
M  V30 34 1 34 35
M  V30 35 2 35 36
M  V30 36 1 35 37
M  V30 37 1 37 2
M  V30 38 1 15 7
M  V30 39 1 33 17
M  V30 40 1 14 10
M  V30 41 1 32 27
M  V30 42 1 1 38
M  V30 43 1 1 39
M  V30 44 1 1 40
M  V30 45 1 6 41
M  V30 46 1 8 42
M  V30 47 1 9 43
M  V30 48 1 11 44
M  V30 49 1 13 45
M  V30 50 1 15 46
M  V30 51 1 16 47
M  V30 52 1 18 48
M  V30 53 1 19 49
M  V30 54 1 25 50
M  V30 55 1 26 51
M  V30 56 1 26 52
M  V30 57 1 28 53
M  V30 58 1 29 54
M  V30 59 1 30 55
M  V30 60 1 31 56
M  V30 61 1 33 57
M  V30 62 1 34 58
M  V30 63 1 37 59
M  V30 END BOND
M  V30 END CTAB
M  END
>  <Dataset>  (16) 
ChEMBL_Kinases

>  <Ligand_Instance>  (16) 
nan

>  <PDB_ID>  (16) 
nan

>  <Standardized_SMILES>  (16) 
CC1=C(C(=O)Nc2ccc3[nH]ncc3c2)C(c2ccc(F)c(C(=O)NCc3ccccn3)c2)NC(=O)N1

>  <Name>  (16) 
nan

>  <Pocket>  (16) 
nan

>  <ATP_Site>  (16) 
nan

>  <Peripheral>  (16) 
nan

>  <Num_H_Atoms_ProtBoundConf>  (16) 
nan

>  <Num_Resolved_Atoms>  (16) 
nan

>  <Num_Not_Resolved_Atoms>  (16) 
nan

$$$$
CHEMBL4090364
     RDKit          3D

  0  0  0  0  0  0  0  0  0  0999 V3000
M  V30 BEGIN CTAB
M  V30 COUNTS 63 65 0 0 0
M  V30 BEGIN ATOM
M  V30 1 C 4.226467 -1.635769 3.112415 0
M  V30 2 C 3.142117 -1.621745 2.081963 0
M  V30 3 N 3.402790 -0.844544 0.945378 0
M  V30 4 C 3.463553 0.554238 1.030796 0
M  V30 5 C 4.658595 1.046887 1.813666 0
M  V30 6 C 3.754407 -1.494689 -0.241711 0
M  V30 7 C 2.731992 -2.301679 -0.948440 0
M  V30 8 C 1.515741 -1.515060 -1.407627 0
M  V30 9 C 0.609926 -2.545489 -2.102002 0
M  V30 10 C 1.390243 -3.159217 -3.276142 0
M  V30 11 N -0.612160 -1.933160 -2.579238 0
M  V30 12 C -1.552014 -1.276962 -1.749380 0
M  V30 13 N -1.331638 -1.185919 -0.404221 0
M  V30 14 C -2.247686 -0.547518 0.375748 0
M  V30 15 C -2.057211 -0.422034 1.799241 0
M  V30 16 C -2.852447 0.158350 2.656349 0
M  V30 17 C -2.798664 0.359798 4.079727 0
M  V30 18 C -3.896292 1.049261 4.621841 0
M  V30 19 Cl -5.234076 1.627610 3.614511 0
M  V30 20 C -4.004128 1.321324 5.955310 0
M  V30 21 C -3.024444 0.924016 6.833215 0
M  V30 22 Cl -3.201177 1.292610 8.529125 0
M  V30 23 C -1.935819 0.249199 6.346545 0
M  V30 24 C -1.878910 0.001786 4.997341 0
M  V30 25 Cl -0.468991 -0.851474 4.481472 0
M  V30 26 N -3.346246 -0.019330 -0.168124 0
M  V30 27 C -3.626224 -0.072943 -1.482584 0
M  V30 28 C -4.781120 0.501813 -1.921293 0
M  V30 29 C -5.079855 0.451884 -3.266657 0
M  V30 30 C -4.167862 -0.190618 -4.094482 0
M  V30 31 N -4.456902 -0.252438 -5.480174 0
M  V30 32 C -3.009765 -0.760433 -3.615319 0
M  V30 33 C -2.689572 -0.726604 -2.290717 0
M  V30 34 H 4.267580 -0.778811 3.784602 0
M  V30 35 H 4.010478 -2.520961 3.785572 0
M  V30 36 H 5.221813 -1.919063 2.661773 0
M  V30 37 H 3.044544 -2.692996 1.730692 0
M  V30 38 H 2.203468 -1.426408 2.614210 0
M  V30 39 H 3.611960 0.946048 -0.016492 0
M  V30 40 H 2.532121 1.053233 1.371485 0
M  V30 41 H 5.489633 0.319464 1.847056 0
M  V30 42 H 4.353451 1.408270 2.837854 0
M  V30 43 H 5.097759 1.969646 1.350132 0
M  V30 44 H 4.133886 -0.733052 -0.968740 0
M  V30 45 H 4.628610 -2.173840 -0.032088 0
M  V30 46 H 3.195523 -2.730305 -1.861967 0
M  V30 47 H 2.341285 -3.168255 -0.376951 0
M  V30 48 H 1.762921 -0.773987 -2.193448 0
M  V30 49 H 1.018825 -0.989473 -0.595262 0
M  V30 50 H 0.384240 -3.402002 -1.421467 0
M  V30 51 H 1.884573 -4.095543 -3.009851 0
M  V30 52 H 2.181484 -2.445243 -3.608806 0
M  V30 53 H 0.679078 -3.394028 -4.115965 0
M  V30 54 H -0.753892 -2.012259 -3.588390 0
M  V30 55 H -1.169693 -0.842827 2.233758 0
M  V30 56 H -3.698572 0.533459 2.081852 0
M  V30 57 H -4.857319 1.851621 6.349245 0
M  V30 58 H -1.194124 -0.044860 7.045750 0
M  V30 59 H -5.464060 0.991825 -1.240102 0
M  V30 60 H -5.966510 0.877070 -3.710384 0
M  V30 61 H -4.436623 0.149023 -6.430791 0
M  V30 62 H -4.431591 0.160806 -6.435225 0
M  V30 63 H -2.368936 -1.230268 -4.314295 0
M  V30 END ATOM
M  V30 BEGIN BOND
M  V30 1 1 1 2
M  V30 2 1 2 3
M  V30 3 1 3 4
M  V30 4 1 4 5
M  V30 5 1 3 6
M  V30 6 1 6 7
M  V30 7 1 7 8
M  V30 8 1 8 9
M  V30 9 1 9 10
M  V30 10 1 9 11
M  V30 11 1 11 12
M  V30 12 2 12 13
M  V30 13 1 13 14
M  V30 14 1 14 15
M  V30 15 2 15 16
M  V30 16 1 16 17
M  V30 17 2 17 18
M  V30 18 1 18 19
M  V30 19 1 18 20
M  V30 20 2 20 21
M  V30 21 1 21 22
M  V30 22 1 21 23
M  V30 23 2 23 24
M  V30 24 1 24 25
M  V30 25 2 14 26
M  V30 26 1 26 27
M  V30 27 2 27 28
M  V30 28 1 28 29
M  V30 29 2 29 30
M  V30 30 1 30 31
M  V30 31 1 30 32
M  V30 32 2 32 33
M  V30 33 1 33 12
M  V30 34 1 24 17
M  V30 35 1 33 27
M  V30 36 1 1 34
M  V30 37 1 1 35
M  V30 38 1 1 36
M  V30 39 1 2 37
M  V30 40 1 2 38
M  V30 41 1 4 39
M  V30 42 1 4 40
M  V30 43 1 5 41
M  V30 44 1 5 42
M  V30 45 1 5 43
M  V30 46 1 6 44
M  V30 47 1 6 45
M  V30 48 1 7 46
M  V30 49 1 7 47
M  V30 50 1 8 48
M  V30 51 1 8 49
M  V30 52 1 9 50
M  V30 53 1 10 51
M  V30 54 1 10 52
M  V30 55 1 10 53
M  V30 56 1 11 54
M  V30 57 1 15 55
M  V30 58 1 16 56
M  V30 59 1 20 57
M  V30 60 1 23 58
M  V30 61 1 28 59
M  V30 62 1 29 60
M  V30 63 1 31 61
M  V30 64 1 31 62
M  V30 65 1 32 63
M  V30 END BOND
M  V30 END CTAB
M  END
>  <Dataset>  (17) 
ChEMBL_Kinases

>  <Ligand_Instance>  (17) 
nan

>  <PDB_ID>  (17) 
nan

>  <Standardized_SMILES>  (17) 
CCN(CC)CCCC(C)Nc1nc(/C=C/c2c(Cl)cc(Cl)cc2Cl)nc2ccc(N)cc12

>  <Name>  (17) 
nan

>  <Pocket>  (17) 
nan

>  <ATP_Site>  (17) 
nan

>  <Peripheral>  (17) 
nan

>  <Num_H_Atoms_ProtBoundConf>  (17) 
nan

>  <Num_Resolved_Atoms>  (17) 
nan

>  <Num_Not_Resolved_Atoms>  (17) 
nan

$$$$
CHEMBL2430323
     RDKit          3D

  0  0  0  0  0  0  0  0  0  0999 V3000
M  V30 BEGIN CTAB
M  V30 COUNTS 34 36 0 0 0
M  V30 BEGIN ATOM
M  V30 1 C 1.761600 -3.532202 5.080286 0
M  V30 2 C 1.243090 -3.242797 3.701563 0
M  V30 3 O 0.069398 -2.805269 3.595416 0
M  V30 4 N 1.956383 -3.414436 2.461691 0
M  V30 5 C 1.041507 -3.003840 1.419514 0
M  V30 6 C 0.174636 -3.890287 0.812796 0
M  V30 7 C -0.665814 -3.388054 -0.182842 0
M  V30 8 C -0.566750 -2.044739 -0.485141 0
M  V30 9 C 0.302990 -1.161337 0.125334 0
M  V30 10 C 0.316543 0.248373 -0.283659 0
M  V30 11 C 1.462336 1.028376 -0.239831 0
M  V30 12 N 1.422903 2.336225 -0.632010 0
M  V30 13 C 0.287536 2.908758 -1.069240 0
M  V30 14 N -0.001842 4.165421 -1.505975 0
M  V30 15 N -1.278853 4.192069 -1.817175 0
M  V30 16 C -1.860850 3.001296 -1.606747 0
M  V30 17 C -3.283278 2.622118 -1.833613 0
M  V30 18 C -0.884077 2.152375 -1.126105 0
M  V30 19 C -0.874611 0.829631 -0.736698 0
M  V30 20 C 1.142830 -1.659752 1.119249 0
M  V30 21 H 2.859424 -3.638518 5.078628 0
M  V30 22 H 1.281719 -4.416554 5.502824 0
M  V30 23 H 1.516767 -2.666792 5.758493 0
M  V30 24 H 2.942345 -3.784311 2.583321 0
M  V30 25 H 0.166626 -4.929091 1.115479 0
M  V30 26 H -1.360702 -4.048542 -0.684032 0
M  V30 27 H -1.254997 -1.715650 -1.276038 0
M  V30 28 H 2.364286 0.548253 0.114941 0
M  V30 29 H 0.737196 4.895865 -1.544229 0
M  V30 30 H -3.963347 2.937103 -1.030950 0
M  V30 31 H -3.686276 3.120393 -2.762707 0
M  V30 32 H -3.399879 1.535250 -1.998529 0
M  V30 33 H -1.782548 0.256884 -0.784702 0
M  V30 34 H 1.812103 -0.979704 1.588934 0
M  V30 END ATOM
M  V30 BEGIN BOND
M  V30 1 1 1 2
M  V30 2 2 2 3
M  V30 3 1 2 4
M  V30 4 1 4 5
M  V30 5 2 5 6
M  V30 6 1 6 7
M  V30 7 2 7 8
M  V30 8 1 8 9
M  V30 9 1 9 10
M  V30 10 2 10 11
M  V30 11 1 11 12
M  V30 12 2 12 13
M  V30 13 1 13 14
M  V30 14 1 14 15
M  V30 15 2 15 16
M  V30 16 1 16 17
M  V30 17 1 16 18
M  V30 18 2 18 19
M  V30 19 2 9 20
M  V30 20 1 20 5
M  V30 21 1 19 10
M  V30 22 1 18 13
M  V30 23 1 1 21
M  V30 24 1 1 22
M  V30 25 1 1 23
M  V30 26 1 4 24
M  V30 27 1 6 25
M  V30 28 1 7 26
M  V30 29 1 8 27
M  V30 30 1 11 28
M  V30 31 1 14 29
M  V30 32 1 17 30
M  V30 33 1 17 31
M  V30 34 1 17 32
M  V30 35 1 19 33
M  V30 36 1 20 34
M  V30 END BOND
M  V30 END CTAB
M  END
>  <Dataset>  (18) 
ChEMBL_Kinases

>  <Ligand_Instance>  (18) 
nan

>  <PDB_ID>  (18) 
nan

>  <Standardized_SMILES>  (18) 
CC(=O)Nc1cccc(-c2cnc3[nH]nc(C)c3c2)c1

>  <Name>  (18) 
nan

>  <Pocket>  (18) 
nan

>  <ATP_Site>  (18) 
nan

>  <Peripheral>  (18) 
nan

>  <Num_H_Atoms_ProtBoundConf>  (18) 
nan

>  <Num_Resolved_Atoms>  (18) 
nan

>  <Num_Not_Resolved_Atoms>  (18) 
nan

$$$$
CHEMBL2030389
     RDKit          3D

  0  0  0  0  0  0  0  0  0  0999 V3000
M  V30 BEGIN CTAB
M  V30 COUNTS 35 38 0 0 0
M  V30 BEGIN ATOM
M  V30 1 O 0.468911 -0.486278 4.349089 0
M  V30 2 C 0.591914 -0.277975 3.114325 0
M  V30 3 N 1.399970 -1.099047 2.420180 0
M  V30 4 C 1.596317 -0.951086 1.074349 0
M  V30 5 C 2.434054 -1.755738 0.196352 0
M  V30 6 N 1.895802 -2.869349 -0.450740 0
M  V30 7 C 1.359134 -3.914810 0.376084 0
M  V30 8 C -0.108966 -3.596039 0.434123 0
M  V30 9 C -0.365832 -2.824979 -0.843930 0
M  V30 10 C 0.969270 -2.745973 -1.492311 0
M  V30 11 N 0.916053 0.083408 0.495785 0
M  V30 12 C 0.102586 0.917632 1.168654 0
M  V30 13 C -0.094112 0.766533 2.526612 0
M  V30 14 O -0.910799 1.688682 2.915441 0
M  V30 15 C -1.286551 2.463444 1.906963 0
M  V30 16 C -2.133954 3.554098 1.857058 0
M  V30 17 C -2.368564 4.209465 0.645983 0
M  V30 18 C -1.714242 3.704747 -0.458602 0
M  V30 19 Br -2.034790 4.600810 -2.115470 0
M  V30 20 C -0.859924 2.624251 -0.472865 0
M  V30 21 C -0.653710 2.001554 0.749668 0
M  V30 22 H 1.931407 -1.896469 2.835765 0
M  V30 23 H 2.936706 -1.053603 -0.516601 0
M  V30 24 H 3.292996 -2.123245 0.834571 0
M  V30 25 H 1.505708 -4.865675 -0.200548 0
M  V30 26 H 1.828742 -3.967507 1.375389 0
M  V30 27 H -0.336755 -2.983685 1.322746 0
M  V30 28 H -0.733346 -4.515471 0.382909 0
M  V30 29 H -1.101991 -3.328561 -1.496828 0
M  V30 30 H -0.803773 -1.851977 -0.569860 0
M  V30 31 H 1.055409 -3.672432 -2.127871 0
M  V30 32 H 1.121847 -1.920569 -2.202392 0
M  V30 33 H -2.606382 3.886099 2.764394 0
M  V30 34 H -3.026262 5.063440 0.581849 0
M  V30 35 H -0.372710 2.264851 -1.350979 0
M  V30 END ATOM
M  V30 BEGIN BOND
M  V30 1 2 1 2
M  V30 2 1 2 3
M  V30 3 1 3 4
M  V30 4 1 4 5
M  V30 5 1 5 6
M  V30 6 1 6 7
M  V30 7 1 7 8
M  V30 8 1 8 9
M  V30 9 1 9 10
M  V30 10 2 4 11
M  V30 11 1 11 12
M  V30 12 2 12 13
M  V30 13 1 13 14
M  V30 14 1 14 15
M  V30 15 2 15 16
M  V30 16 1 16 17
M  V30 17 2 17 18
M  V30 18 1 18 19
M  V30 19 1 18 20
M  V30 20 2 20 21
M  V30 21 1 13 2
M  V30 22 1 21 15
M  V30 23 1 10 6
M  V30 24 1 21 12
M  V30 25 1 3 22
M  V30 26 1 5 23
M  V30 27 1 5 24
M  V30 28 1 7 25
M  V30 29 1 7 26
M  V30 30 1 8 27
M  V30 31 1 8 28
M  V30 32 1 9 29
M  V30 33 1 9 30
M  V30 34 1 10 31
M  V30 35 1 10 32
M  V30 36 1 16 33
M  V30 37 1 17 34
M  V30 38 1 20 35
M  V30 END BOND
M  V30 END CTAB
M  END
>  <Dataset>  (19) 
ChEMBL_Kinases

>  <Ligand_Instance>  (19) 
nan

>  <PDB_ID>  (19) 
nan

>  <Standardized_SMILES>  (19) 
O=c1[nH]c(CN2CCCC2)nc2c1oc1ccc(Br)cc12

>  <Name>  (19) 
nan

>  <Pocket>  (19) 
nan

>  <ATP_Site>  (19) 
nan

>  <Peripheral>  (19) 
nan

>  <Num_H_Atoms_ProtBoundConf>  (19) 
nan

>  <Num_Resolved_Atoms>  (19) 
nan

>  <Num_Not_Resolved_Atoms>  (19) 
nan

$$$$
CHEMBL178737
     RDKit          3D

  0  0  0  0  0  0  0  0  0  0999 V3000
M  V30 BEGIN CTAB
M  V30 COUNTS 61 67 0 0 0
M  V30 BEGIN ATOM
M  V30 1 O -0.446893 -1.302661 5.715193 0
M  V30 2 C 0.121612 -0.316840 5.133786 0
M  V30 3 N 0.556583 0.839492 5.833971 0
M  V30 4 C 1.126939 1.673966 4.833042 0
M  V30 5 O 1.604575 2.790539 5.153888 0
M  V30 6 C 1.035042 1.019683 3.535809 0
M  V30 7 C 1.474234 1.522184 2.246960 0
M  V30 8 C 0.649137 1.326542 1.131915 0
M  V30 9 N 1.220413 1.858785 0.025052 0
M  V30 10 C 2.406059 2.391237 0.433186 0
M  V30 11 C 3.371143 3.049540 -0.293569 0
M  V30 12 C 4.472770 3.477678 0.404353 0
M  V30 13 C 4.592461 3.251981 1.760593 0
M  V30 14 C 3.610654 2.587187 2.473086 0
M  V30 15 N 2.539298 2.179483 1.761995 0
M  V30 16 C 0.433963 -0.176121 3.692856 0
M  V30 17 C 0.139533 -1.208576 2.684436 0
M  V30 18 C 0.936770 -1.785510 1.708758 0
M  V30 19 N 0.187584 -2.662338 1.008363 0
M  V30 20 C -1.041072 -2.628486 1.534918 0
M  V30 21 C -2.166842 -3.359050 1.134970 0
M  V30 22 C -3.426575 -3.258508 1.735978 0
M  V30 23 C -3.455492 -2.348353 2.784853 0
M  V30 24 C -2.357478 -1.636732 3.173291 0
M  V30 25 C -1.122937 -1.738087 2.583291 0
M  V30 26 C -2.246513 -4.348276 -0.002247 0
M  V30 27 N -1.254283 -3.844461 -0.962504 0
M  V30 28 C -1.851332 -2.954180 -1.880735 0
M  V30 29 O -3.069372 -2.829770 -1.595117 0
M  V30 30 N -1.619153 -2.135268 -3.010499 0
M  V30 31 C -2.756202 -1.376500 -3.487949 0
M  V30 32 C -2.431226 0.082089 -3.136596 0
M  V30 33 O -1.034359 0.253898 -3.133566 0
M  V30 34 C -0.457211 -0.420337 -4.203737 0
M  V30 35 C -0.433892 -1.887626 -3.831443 0
M  V30 36 C 0.146019 -4.210226 -0.926635 0
M  V30 37 C 0.953818 -3.325076 -0.035545 0
M  V30 38 H 0.445978 0.971830 6.863020 0
M  V30 39 H -0.312999 0.848430 1.011971 0
M  V30 40 H 3.276734 3.225418 -1.355213 0
M  V30 41 H 5.255723 4.006538 -0.159962 0
M  V30 42 H 5.462232 3.599954 2.263189 0
M  V30 43 H 3.708259 2.405231 3.532595 0
M  V30 44 H 1.977414 -1.450850 1.675853 0
M  V30 45 H -4.252044 -3.849630 1.378750 0
M  V30 46 H -4.427178 -2.252751 3.268412 0
M  V30 47 H -2.490346 -0.955309 3.989379 0
M  V30 48 H -1.979707 -5.362786 0.301655 0
M  V30 49 H -3.240825 -4.380849 -0.446186 0
M  V30 50 H -3.688539 -1.703013 -3.029760 0
M  V30 51 H -2.802568 -1.413495 -4.598214 0
M  V30 52 H -2.911472 0.775548 -3.850202 0
M  V30 53 H -2.806732 0.288245 -2.126804 0
M  V30 54 H 0.567917 -0.021943 -4.387430 0
M  V30 55 H -1.129136 -0.266057 -5.061129 0
M  V30 56 H -0.616638 -2.464552 -4.768951 0
M  V30 57 H 0.500083 -2.186908 -3.361382 0
M  V30 58 H 0.534373 -4.124568 -1.960580 0
M  V30 59 H 0.243743 -5.267886 -0.617926 0
M  V30 60 H 1.679360 -3.988492 0.526616 0
M  V30 61 H 1.570780 -2.644022 -0.636670 0
M  V30 END ATOM
M  V30 BEGIN BOND
M  V30 1 2 1 2
M  V30 2 1 2 3
M  V30 3 1 3 4
M  V30 4 2 4 5
M  V30 5 1 4 6
M  V30 6 1 6 7
M  V30 7 2 7 8
M  V30 8 1 8 9
M  V30 9 2 9 10
M  V30 10 1 10 11
M  V30 11 2 11 12
M  V30 12 1 12 13
M  V30 13 2 13 14
M  V30 14 1 14 15
M  V30 15 2 6 16
M  V30 16 1 16 17
M  V30 17 2 17 18
M  V30 18 1 18 19
M  V30 19 1 19 20
M  V30 20 2 20 21
M  V30 21 1 21 22
M  V30 22 2 22 23
M  V30 23 1 23 24
M  V30 24 2 24 25
M  V30 25 1 21 26
M  V30 26 1 26 27
M  V30 27 1 27 28
M  V30 28 2 28 29
M  V30 29 1 28 30
M  V30 30 1 30 31
M  V30 31 1 31 32
M  V30 32 1 32 33
M  V30 33 1 33 34
M  V30 34 1 34 35
M  V30 35 1 27 36
M  V30 36 1 36 37
M  V30 37 1 16 2
M  V30 38 1 25 17
M  V30 39 1 35 30
M  V30 40 1 15 7
M  V30 41 1 37 19
M  V30 42 1 15 10
M  V30 43 1 25 20
M  V30 44 1 3 38
M  V30 45 1 8 39
M  V30 46 1 11 40
M  V30 47 1 12 41
M  V30 48 1 13 42
M  V30 49 1 14 43
M  V30 50 1 18 44
M  V30 51 1 22 45
M  V30 52 1 23 46
M  V30 53 1 24 47
M  V30 54 1 26 48
M  V30 55 1 26 49
M  V30 56 1 31 50
M  V30 57 1 31 51
M  V30 58 1 32 52
M  V30 59 1 32 53
M  V30 60 1 34 54
M  V30 61 1 34 55
M  V30 62 1 35 56
M  V30 63 1 35 57
M  V30 64 1 36 58
M  V30 65 1 36 59
M  V30 66 1 37 60
M  V30 67 1 37 61
M  V30 END BOND
M  V30 END CTAB
M  END
>  <Dataset>  (20) 
ChEMBL_Kinases

>  <Ligand_Instance>  (20) 
nan

>  <PDB_ID>  (20) 
nan

>  <Standardized_SMILES>  (20) 
O=C1NC(=O)C(c2cnc3ccccn23)=C1c1cn2c3c(cccc13)CN(C(=O)N1CCOCC1)CC2

>  <Name>  (20) 
nan

>  <Pocket>  (20) 
nan

>  <ATP_Site>  (20) 
nan

>  <Peripheral>  (20) 
nan

>  <Num_H_Atoms_ProtBoundConf>  (20) 
nan

>  <Num_Resolved_Atoms>  (20) 
nan

>  <Num_Not_Resolved_Atoms>  (20) 
nan

$$$$
CHEMBL3604793
     RDKit          3D

  0  0  0  0  0  0  0  0  0  0999 V3000
M  V30 BEGIN CTAB
M  V30 COUNTS 49 52 0 0 0
M  V30 BEGIN ATOM
M  V30 1 C -1.538976 -5.006885 2.567498 0
M  V30 2 N -1.667421 -4.279643 1.336947 0
M  V30 3 C -0.842587 -4.771117 0.262013 0
M  V30 4 C -1.011610 -3.751269 -0.873433 0
M  V30 5 N -1.713548 -2.564294 -0.437591 0
M  V30 6 C -1.191402 -1.253239 -0.383923 0
M  V30 7 C 0.104196 -0.948339 -0.705515 0
M  V30 8 C 0.628001 0.323456 -0.659487 0
M  V30 9 C -0.160101 1.372175 -0.274834 0
M  V30 10 C 0.355709 2.719052 -0.215654 0
M  V30 11 C -0.138595 3.758479 -0.984766 0
M  V30 12 C 0.332727 5.052742 -0.947689 0
M  V30 13 N 1.359856 5.345663 -0.096923 0
M  V30 14 C 1.841301 4.335788 0.651371 0
M  V30 15 C 1.391617 3.032710 0.636768 0
M  V30 16 C 1.934335 1.973611 1.452866 0
M  V30 17 C 3.281513 1.738283 1.190407 0
M  V30 18 C 3.984575 0.753906 1.875491 0
M  V30 19 F 5.297741 0.473288 1.668267 0
M  V30 20 C 3.376486 -0.017724 2.831489 0
M  V30 21 O 3.979960 -1.028311 3.577284 0
M  V30 22 C 2.033431 0.222291 3.087973 0
M  V30 23 F 1.356151 -0.496784 4.018470 0
M  V30 24 C 1.327003 1.195883 2.414502 0
M  V30 25 C -1.476356 1.098239 0.057288 0
M  V30 26 C -1.969769 -0.188166 0.000458 0
M  V30 27 C -3.057820 -2.941957 -0.056050 0
M  V30 28 C -3.005268 -4.181165 0.847216 0
M  V30 29 H -1.469796 -6.094012 2.456478 0
M  V30 30 H -2.464392 -4.764218 3.155655 0
M  V30 31 H -0.711549 -4.549514 3.148250 0
M  V30 32 H -1.244773 -5.736210 -0.103727 0
M  V30 33 H 0.205180 -4.938599 0.524766 0
M  V30 34 H -0.021234 -3.514521 -1.314218 0
M  V30 35 H -1.613360 -4.199036 -1.711761 0
M  V30 36 H 0.806824 -1.700580 -1.019753 0
M  V30 37 H 1.657338 0.541541 -0.918378 0
M  V30 38 H -0.966187 3.564033 -1.683090 0
M  V30 39 H -0.085008 5.838041 -1.569509 0
M  V30 40 H 2.654055 4.583241 1.319920 0
M  V30 41 H 3.912903 2.247685 0.476239 0
M  V30 42 H 4.067355 -1.917309 3.087849 0
M  V30 43 H 0.282841 1.438156 2.561495 0
M  V30 44 H -2.069705 1.948110 0.355983 0
M  V30 45 H -2.994287 -0.265060 0.278396 0
M  V30 46 H -3.574900 -2.176952 0.536702 0
M  V30 47 H -3.620976 -3.188315 -0.997608 0
M  V30 48 H -3.776825 -4.141911 1.638820 0
M  V30 49 H -3.191750 -5.048697 0.182649 0
M  V30 END ATOM
M  V30 BEGIN BOND
M  V30 1 1 1 2
M  V30 2 1 2 3
M  V30 3 1 3 4
M  V30 4 1 4 5
M  V30 5 1 5 6
M  V30 6 2 6 7
M  V30 7 1 7 8
M  V30 8 2 8 9
M  V30 9 1 9 10
M  V30 10 2 10 11
M  V30 11 1 11 12
M  V30 12 2 12 13
M  V30 13 1 13 14
M  V30 14 2 14 15
M  V30 15 1 15 16
M  V30 16 2 16 17
M  V30 17 1 17 18
M  V30 18 1 18 19
M  V30 19 2 18 20
M  V30 20 1 20 21
M  V30 21 1 20 22
M  V30 22 1 22 23
M  V30 23 2 22 24
M  V30 24 1 9 25
M  V30 25 2 25 26
M  V30 26 1 5 27
M  V30 27 1 27 28
M  V30 28 1 28 2
M  V30 29 1 26 6
M  V30 30 1 15 10
M  V30 31 1 24 16
M  V30 32 1 1 29
M  V30 33 1 1 30
M  V30 34 1 1 31
M  V30 35 1 3 32
M  V30 36 1 3 33
M  V30 37 1 4 34
M  V30 38 1 4 35
M  V30 39 1 7 36
M  V30 40 1 8 37
M  V30 41 1 11 38
M  V30 42 1 12 39
M  V30 43 1 14 40
M  V30 44 1 17 41
M  V30 45 1 21 42
M  V30 46 1 24 43
M  V30 47 1 25 44
M  V30 48 1 26 45
M  V30 49 1 27 46
M  V30 50 1 27 47
M  V30 51 1 28 48
M  V30 52 1 28 49
M  V30 END BOND
M  V30 END CTAB
M  END
>  <Dataset>  (21) 
ChEMBL_Kinases

>  <Ligand_Instance>  (21) 
nan

>  <PDB_ID>  (21) 
nan

>  <Standardized_SMILES>  (21) 
CN1CCN(c2ccc(-c3ccncc3-c3cc(F)c(O)c(F)c3)cc2)CC1

>  <Name>  (21) 
nan

>  <Pocket>  (21) 
nan

>  <ATP_Site>  (21) 
nan

>  <Peripheral>  (21) 
nan

>  <Num_H_Atoms_ProtBoundConf>  (21) 
nan

>  <Num_Resolved_Atoms>  (21) 
nan

>  <Num_Not_Resolved_Atoms>  (21) 
nan

$$$$
CHEMBL2385586
     RDKit          3D

  0  0  0  0  0  0  0  0  0  0999 V3000
M  V30 BEGIN CTAB
M  V30 COUNTS 45 49 0 0 0
M  V30 BEGIN ATOM
M  V30 1 C 0.783152 -1.048906 2.091936 0
M  V30 2 C 2.105389 -0.874519 2.443400 0
M  V30 3 C 2.950613 0.040173 1.864629 0
M  V30 4 N 4.304574 0.196531 2.249318 0
M  V30 5 C 4.966765 -0.535997 3.305129 0
M  V30 6 C 6.017710 -1.439722 2.703253 0
M  V30 7 N 6.356737 -1.076262 1.358894 0
M  V30 8 C 6.405366 0.324760 1.118376 0
M  V30 9 C 5.236022 1.109723 1.646327 0
M  V30 10 C 2.376665 0.800728 0.875511 0
M  V30 11 C 1.059771 0.663586 0.488904 0
M  V30 12 C 0.239704 -0.266939 1.093555 0
M  V30 13 C -1.155725 -0.430692 0.702436 0
M  V30 14 C -1.538689 -0.183976 -0.616392 0
M  V30 15 N -2.844236 -0.344166 -0.953598 0
M  V30 16 C -3.773502 -0.731474 -0.058585 0
M  V30 17 C -5.130367 -0.953772 -0.177520 0
M  V30 18 C -5.981667 -0.827533 -1.355551 0
M  V30 19 C -7.216450 -0.283622 -1.636922 0
M  V30 20 N -7.436165 -0.507426 -2.954666 0
M  V30 21 N -6.424621 -1.146169 -3.488068 0
M  V30 22 C -5.492830 -1.372407 -2.547374 0
M  V30 23 C -5.582111 -1.341029 1.084021 0
M  V30 24 N -4.512660 -1.335963 1.884372 0
M  V30 25 N -3.425485 -0.974581 1.218382 0
M  V30 26 C -2.134334 -0.825869 1.592252 0
M  V30 27 H 0.136818 -1.773463 2.559679 0
M  V30 28 H 2.425550 -1.536707 3.231976 0
M  V30 29 H 5.407484 0.202873 4.007564 0
M  V30 30 H 4.283712 -1.163060 3.871562 0
M  V30 31 H 5.652111 -2.485651 2.668263 0
M  V30 32 H 6.926406 -1.471536 3.342681 0
M  V30 33 H 5.996822 -1.675887 0.614734 0
M  V30 34 H 6.473766 0.473729 0.007837 0
M  V30 35 H 7.376750 0.734611 1.509402 0
M  V30 36 H 5.632774 1.765631 2.480908 0
M  V30 37 H 4.822446 1.737797 0.842964 0
M  V30 38 H 2.896688 1.547986 0.335261 0
M  V30 39 H 0.600362 1.253975 -0.284236 0
M  V30 40 H -0.769698 0.128628 -1.323517 0
M  V30 41 H -7.717789 0.177637 -0.800482 0
M  V30 42 H -6.439985 -1.395523 -4.504048 0
M  V30 43 H -4.572342 -1.897187 -2.809331 0
M  V30 44 H -6.576119 -1.604803 1.416344 0
M  V30 45 H -1.880550 -1.026526 2.620567 0
M  V30 END ATOM
M  V30 BEGIN BOND
M  V30 1 2 1 2
M  V30 2 1 2 3
M  V30 3 1 3 4
M  V30 4 1 4 5
M  V30 5 1 5 6
M  V30 6 1 6 7
M  V30 7 1 7 8
M  V30 8 1 8 9
M  V30 9 2 3 10
M  V30 10 1 10 11
M  V30 11 2 11 12
M  V30 12 1 12 13
M  V30 13 1 13 14
M  V30 14 2 14 15
M  V30 15 1 15 16
M  V30 16 2 16 17
M  V30 17 1 17 18
M  V30 18 1 18 19
M  V30 19 2 19 20
M  V30 20 1 20 21
M  V30 21 1 21 22
M  V30 22 1 17 23
M  V30 23 2 23 24
M  V30 24 1 24 25
M  V30 25 1 25 26
M  V30 26 1 12 1
M  V30 27 2 26 13
M  V30 28 1 9 4
M  V30 29 1 25 16
M  V30 30 2 22 18
M  V30 31 1 1 27
M  V30 32 1 2 28
M  V30 33 1 5 29
M  V30 34 1 5 30
M  V30 35 1 6 31
M  V30 36 1 6 32
M  V30 37 1 7 33
M  V30 38 1 8 34
M  V30 39 1 8 35
M  V30 40 1 9 36
M  V30 41 1 9 37
M  V30 42 1 10 38
M  V30 43 1 11 39
M  V30 44 1 14 40
M  V30 45 1 19 41
M  V30 46 1 21 42
M  V30 47 1 22 43
M  V30 48 1 23 44
M  V30 49 1 26 45
M  V30 END BOND
M  V30 END CTAB
M  END
>  <Dataset>  (22) 
ChEMBL_Kinases

>  <Ligand_Instance>  (22) 
nan

>  <PDB_ID>  (22) 
nan

>  <Standardized_SMILES>  (22) 
c1cc(N2CCNCC2)ccc1-c1cnc2c(-c3cn[nH]c3)cnn2c1

>  <Name>  (22) 
nan

>  <Pocket>  (22) 
nan

>  <ATP_Site>  (22) 
nan

>  <Peripheral>  (22) 
nan

>  <Num_H_Atoms_ProtBoundConf>  (22) 
nan

>  <Num_Resolved_Atoms>  (22) 
nan

>  <Num_Not_Resolved_Atoms>  (22) 
nan

$$$$
CHEMBL1803071
     RDKit          3D

  0  0  0  0  0  0  0  0  0  0999 V3000
M  V30 BEGIN CTAB
M  V30 COUNTS 43 46 0 0 0
M  V30 BEGIN ATOM
M  V30 1 C -1.074503 -4.593370 4.286051 0
M  V30 2 O -0.448419 -5.087060 3.116819 0
M  V30 3 C 0.193282 -4.258583 2.206695 0
M  V30 4 C 0.295773 -2.881936 2.328721 0
M  V30 5 C 0.962262 -2.170728 1.351836 0
M  V30 6 C 1.543353 -2.721240 0.248214 0
M  V30 7 N 2.229587 -2.001861 -0.764026 0
M  V30 8 C 2.371012 -0.599385 -0.802937 0
M  V30 9 N 1.433096 0.211566 -0.378347 0
M  V30 10 C 1.856985 1.559990 -0.541911 0
M  V30 11 C 1.218336 2.678222 -0.244830 0
M  V30 12 C -0.122181 2.611270 0.339760 0
M  V30 13 C -0.456329 3.544298 1.300376 0
M  V30 14 C -1.687033 3.562728 1.905056 0
M  V30 15 C -2.660135 2.629066 1.569410 0
M  V30 16 C -2.305681 1.695858 0.599035 0
M  V30 17 C -1.062152 1.689072 -0.001957 0
M  V30 18 O -3.463194 0.911011 0.479049 0
M  V30 19 C -4.186618 0.997342 1.710324 0
M  V30 20 O -3.980102 2.388586 1.994679 0
M  V30 21 C 3.192632 1.531502 -1.128054 0
M  V30 22 O 3.989726 2.439730 -1.462179 0
M  V30 23 N 3.492182 0.135705 -1.282569 0
M  V30 24 C 4.724450 -0.444560 -1.833887 0
M  V30 25 C 1.428533 -4.098242 0.146903 0
M  V30 26 C 0.768928 -4.853536 1.102616 0
M  V30 27 H -0.561967 -3.703912 4.718635 0
M  V30 28 H -1.078804 -5.351516 5.099012 0
M  V30 29 H -2.098803 -4.261135 4.052210 0
M  V30 30 H -0.154736 -2.416635 3.190971 0
M  V30 31 H 1.004736 -1.124078 1.509516 0
M  V30 32 H 2.679633 -2.533600 -1.557094 0
M  V30 33 H 1.663185 3.646987 -0.423278 0
M  V30 34 H 0.237255 4.321284 1.635689 0
M  V30 35 H -1.957549 4.292315 2.660702 0
M  V30 36 H -0.829829 0.948196 -0.748658 0
M  V30 37 H -3.662555 0.410658 2.512001 0
M  V30 38 H -5.243571 0.758236 1.599147 0
M  V30 39 H 5.365836 -0.770557 -0.989928 0
M  V30 40 H 4.501309 -1.270132 -2.507134 0
M  V30 41 H 5.286776 0.346264 -2.380757 0
M  V30 42 H 1.858934 -4.624994 -0.696639 0
M  V30 43 H 0.711324 -5.922206 0.969550 0
M  V30 END ATOM
M  V30 BEGIN BOND
M  V30 1 1 1 2
M  V30 2 1 2 3
M  V30 3 2 3 4
M  V30 4 1 4 5
M  V30 5 2 5 6
M  V30 6 1 6 7
M  V30 7 1 7 8
M  V30 8 2 8 9
M  V30 9 1 9 10
M  V30 10 2 10 11
M  V30 11 1 11 12
M  V30 12 2 12 13
M  V30 13 1 13 14
M  V30 14 2 14 15
M  V30 15 1 15 16
M  V30 16 2 16 17
M  V30 17 1 16 18
M  V30 18 1 18 19
M  V30 19 1 19 20
M  V30 20 1 10 21
M  V30 21 2 21 22
M  V30 22 1 21 23
M  V30 23 1 23 24
M  V30 24 1 6 25
M  V30 25 2 25 26
M  V30 26 1 26 3
M  V30 27 1 23 8
M  V30 28 1 17 12
M  V30 29 1 20 15
M  V30 30 1 1 27
M  V30 31 1 1 28
M  V30 32 1 1 29
M  V30 33 1 4 30
M  V30 34 1 5 31
M  V30 35 1 7 32
M  V30 36 1 11 33
M  V30 37 1 13 34
M  V30 38 1 14 35
M  V30 39 1 17 36
M  V30 40 1 19 37
M  V30 41 1 19 38
M  V30 42 1 24 39
M  V30 43 1 24 40
M  V30 44 1 24 41
M  V30 45 1 25 42
M  V30 46 1 26 43
M  V30 END BOND
M  V30 END CTAB
M  END
>  <Dataset>  (23) 
ChEMBL_Kinases

>  <Ligand_Instance>  (23) 
nan

>  <PDB_ID>  (23) 
nan

>  <Standardized_SMILES>  (23) 
COc1ccc(NC2=N/C(=C\c3ccc4c(c3)OCO4)C(=O)N2C)cc1

>  <Name>  (23) 
nan

>  <Pocket>  (23) 
nan

>  <ATP_Site>  (23) 
nan

>  <Peripheral>  (23) 
nan

>  <Num_H_Atoms_ProtBoundConf>  (23) 
nan

>  <Num_Resolved_Atoms>  (23) 
nan

>  <Num_Not_Resolved_Atoms>  (23) 
nan

$$$$
CHEMBL5092157
     RDKit          3D

  0  0  0  0  0  0  0  0  0  0999 V3000
M  V30 BEGIN CTAB
M  V30 COUNTS 43 46 0 0 0
M  V30 BEGIN ATOM
M  V30 1 C 0.954431 -5.813318 1.683760 0
M  V30 2 C 0.498150 -4.430403 1.978255 0
M  V30 3 N 0.786541 -3.441667 1.146329 0
M  V30 4 C 0.395761 -2.160422 1.364866 0
M  V30 5 N 0.770095 -1.136713 0.459202 0
M  V30 6 C 1.521653 -1.539269 -0.708167 0
M  V30 7 C 1.869755 -0.423373 -1.607034 0
M  V30 8 C 1.126498 0.055584 -2.668171 0
M  V30 9 C 1.635800 1.118359 -3.389760 0
M  V30 10 C 2.824427 1.722819 -3.120079 0
M  V30 11 C 3.587677 1.262199 -2.062917 0
M  V30 12 C 3.084898 0.203411 -1.340544 0
M  V30 13 C -0.323772 -1.979050 2.519249 0
M  V30 14 C -0.819984 -0.767407 2.937882 0
M  V30 15 C -0.914492 0.615058 2.501334 0
M  V30 16 C -0.324333 1.524200 3.395906 0
M  V30 17 C -0.323052 2.905524 3.215092 0
M  V30 18 N -0.932252 3.360657 2.107123 0
M  V30 19 C -1.520467 2.564157 1.201122 0
M  V30 20 N -2.172605 3.014077 0.020075 0
M  V30 21 C -1.514122 1.225427 1.389372 0
M  V30 22 C -1.465487 -1.075577 4.146833 0
M  V30 23 N -1.350310 -2.399033 4.412390 0
M  V30 24 C -0.652090 -2.967328 3.420448 0
M  V30 25 N -0.210944 -4.199151 3.100760 0
M  V30 26 H 1.527914 -6.194997 2.544761 0
M  V30 27 H 1.543572 -5.826364 0.752548 0
M  V30 28 H 0.066690 -6.483477 1.509343 0
M  V30 29 H 0.637852 -0.129892 0.442107 0
M  V30 30 H 0.915523 -2.266379 -1.324049 0
M  V30 31 H 2.461637 -2.088711 -0.409337 0
M  V30 32 H 0.189065 -0.453171 -2.847491 0
M  V30 33 H 1.033046 1.481269 -4.223738 0
M  V30 34 H 3.210074 2.548353 -3.688136 0
M  V30 35 H 4.540473 1.717374 -1.816149 0
M  V30 36 H 3.726470 -0.126671 -0.511393 0
M  V30 37 H 0.178379 1.205829 4.302646 0
M  V30 38 H 0.142985 3.569342 3.928600 0
M  V30 39 H -1.863396 3.226743 -0.968867 0
M  V30 40 H -3.194478 3.148071 0.245703 0
M  V30 41 H -1.942416 0.459514 0.754449 0
M  V30 42 H -2.017328 -0.457468 4.872578 0
M  V30 43 H -1.712872 -2.947506 5.221887 0
M  V30 END ATOM
M  V30 BEGIN BOND
M  V30 1 1 1 2
M  V30 2 2 2 3
M  V30 3 1 3 4
M  V30 4 1 4 5
M  V30 5 1 5 6
M  V30 6 1 6 7
M  V30 7 2 7 8
M  V30 8 1 8 9
M  V30 9 2 9 10
M  V30 10 1 10 11
M  V30 11 2 11 12
M  V30 12 2 4 13
M  V30 13 1 13 14
M  V30 14 1 14 15
M  V30 15 2 15 16
M  V30 16 1 16 17
M  V30 17 2 17 18
M  V30 18 1 18 19
M  V30 19 1 19 20
M  V30 20 2 19 21
M  V30 21 2 14 22
M  V30 22 1 22 23
M  V30 23 1 23 24
M  V30 24 2 24 25
M  V30 25 1 25 2
M  V30 26 1 12 7
M  V30 27 1 24 13
M  V30 28 1 21 15
M  V30 29 1 1 26
M  V30 30 1 1 27
M  V30 31 1 1 28
M  V30 32 1 5 29
M  V30 33 1 6 30
M  V30 34 1 6 31
M  V30 35 1 8 32
M  V30 36 1 9 33
M  V30 37 1 10 34
M  V30 38 1 11 35
M  V30 39 1 12 36
M  V30 40 1 16 37
M  V30 41 1 17 38
M  V30 42 1 20 39
M  V30 43 1 20 40
M  V30 44 1 21 41
M  V30 45 1 22 42
M  V30 46 1 23 43
M  V30 END BOND
M  V30 END CTAB
M  END
>  <Dataset>  (24) 
ChEMBL_Kinases

>  <Ligand_Instance>  (24) 
nan

>  <PDB_ID>  (24) 
nan

>  <Standardized_SMILES>  (24) 
Cc1nc(NCc2ccccc2)c2c(-c3ccnc(N)c3)c[nH]c2n1

>  <Name>  (24) 
nan

>  <Pocket>  (24) 
nan

>  <ATP_Site>  (24) 
nan

>  <Peripheral>  (24) 
nan

>  <Num_H_Atoms_ProtBoundConf>  (24) 
nan

>  <Num_Resolved_Atoms>  (24) 
nan

>  <Num_Not_Resolved_Atoms>  (24) 
nan

$$$$
CHEMBL5092245
     RDKit          3D

  0  0  0  0  0  0  0  0  0  0999 V3000
M  V30 BEGIN CTAB
M  V30 COUNTS 33 35 0 0 0
M  V30 BEGIN ATOM
M  V30 1 C -1.109089 -1.364215 3.185746 0
M  V30 2 O -0.551467 -0.954993 1.974483 0
M  V30 3 C 0.307010 -1.808354 1.297372 0
M  V30 4 N 0.608316 -3.029082 1.799313 0
M  V30 5 C 1.441483 -3.861624 1.148097 0
M  V30 6 C 1.718137 -5.184455 1.770714 0
M  V30 7 N 1.998699 -3.509557 -0.016079 0
M  V30 8 C 1.762358 -2.312204 -0.602243 0
M  V30 9 N 2.132630 -1.657598 -1.706343 0
M  V30 10 C 1.531863 -0.453469 -1.717937 0
M  V30 11 C 0.733235 -0.299213 -0.583056 0
M  V30 12 C -0.024163 0.932912 -0.406815 0
M  V30 13 C 0.706515 2.122136 -0.538466 0
M  V30 14 C 0.170430 3.386638 -0.417295 0
M  V30 15 N -1.152159 3.456063 -0.153439 0
M  V30 16 C -1.910992 2.353800 -0.015373 0
M  V30 17 C -3.364525 2.468991 0.275033 0
M  V30 18 C -1.366342 1.101568 -0.138295 0
M  V30 19 C 0.903892 -1.488436 0.095404 0
M  V30 20 H -0.444936 -1.027133 4.010960 0
M  V30 21 H -1.152083 -2.480264 3.220518 0
M  V30 22 H -2.151058 -1.016574 3.331513 0
M  V30 23 H 2.178430 -5.887669 1.043916 0
M  V30 24 H 0.733376 -5.603577 2.117835 0
M  V30 25 H 2.322593 -5.019097 2.671267 0
M  V30 26 H 2.789622 -2.063798 -2.418135 0
M  V30 27 H 1.717616 0.229529 -2.553607 0
M  V30 28 H 1.772279 2.086573 -0.750847 0
M  V30 29 H 0.790670 4.264791 -0.530560 0
M  V30 30 H -3.492084 2.692890 1.356947 0
M  V30 31 H -3.857276 3.236628 -0.355279 0
M  V30 32 H -3.875053 1.502399 0.084738 0
M  V30 33 H -1.926945 0.204322 -0.044980 0
M  V30 END ATOM
M  V30 BEGIN BOND
M  V30 1 1 1 2
M  V30 2 1 2 3
M  V30 3 2 3 4
M  V30 4 1 4 5
M  V30 5 1 5 6
M  V30 6 2 5 7
M  V30 7 1 7 8
M  V30 8 1 8 9
M  V30 9 1 9 10
M  V30 10 2 10 11
M  V30 11 1 11 12
M  V30 12 2 12 13
M  V30 13 1 13 14
M  V30 14 2 14 15
M  V30 15 1 15 16
M  V30 16 1 16 17
M  V30 17 2 16 18
M  V30 18 1 11 19
M  V30 19 1 19 3
M  V30 20 2 19 8
M  V30 21 1 18 12
M  V30 22 1 1 20
M  V30 23 1 1 21
M  V30 24 1 1 22
M  V30 25 1 6 23
M  V30 26 1 6 24
M  V30 27 1 6 25
M  V30 28 1 9 26
M  V30 29 1 10 27
M  V30 30 1 13 28
M  V30 31 1 14 29
M  V30 32 1 17 30
M  V30 33 1 17 31
M  V30 34 1 17 32
M  V30 35 1 18 33
M  V30 END BOND
M  V30 END CTAB
M  END
>  <Dataset>  (25) 
ChEMBL_Kinases

>  <Ligand_Instance>  (25) 
nan

>  <PDB_ID>  (25) 
nan

>  <Standardized_SMILES>  (25) 
COc1nc(C)nc2[nH]cc(-c3ccnc(C)c3)c12

>  <Name>  (25) 
nan

>  <Pocket>  (25) 
nan

>  <ATP_Site>  (25) 
nan

>  <Peripheral>  (25) 
nan

>  <Num_H_Atoms_ProtBoundConf>  (25) 
nan

>  <Num_Resolved_Atoms>  (25) 
nan

>  <Num_Not_Resolved_Atoms>  (25) 
nan

$$$$
CHEMBL360304
     RDKit          3D

  0  0  0  0  0  0  0  0  0  0999 V3000
M  V30 BEGIN CTAB
M  V30 COUNTS 70 76 0 0 0
M  V30 BEGIN ATOM
M  V30 1 C 2.824185 -6.594574 2.235357 0
M  V30 2 N 2.559454 -5.165961 2.092273 0
M  V30 3 C 1.811117 -4.698641 3.261472 0
M  V30 4 C 1.855895 -4.891597 0.877667 0
M  V30 5 C 1.569568 -3.447097 0.610315 0
M  V30 6 C 2.845348 -2.641459 0.545274 0
M  V30 7 N 2.562184 -1.238516 0.252752 0
M  V30 8 N 2.545425 -0.703665 -0.973689 0
M  V30 9 C 2.268084 0.602500 -0.920241 0
M  V30 10 C 2.152898 1.753756 -1.805740 0
M  V30 11 C 0.990466 2.429968 -1.872816 0
M  V30 12 C -0.209436 2.086862 -1.109466 0
M  V30 13 C -0.597365 0.736909 -1.122062 0
M  V30 14 N -1.722673 0.619576 -0.356753 0
M  V30 15 C -2.408206 -0.637577 -0.169662 0
M  V30 16 C -1.850124 -1.693281 0.564898 0
M  V30 17 C -2.447261 -2.913243 0.776012 0
M  V30 18 C -3.702549 -3.096153 0.207997 0
M  V30 19 C -4.285347 -2.089574 -0.517403 0
M  V30 20 C -5.525366 -2.261955 -1.085284 0
M  V30 21 C -6.135933 -1.269798 -1.823847 0
M  V30 22 C -5.464001 -0.058444 -1.992779 0
M  V30 23 C -4.194534 0.159630 -1.428695 0
M  V30 24 C -3.650459 -0.892284 -0.698778 0
M  V30 25 C -2.038551 1.846557 0.126839 0
M  V30 26 C -3.061145 2.279336 0.948587 0
M  V30 27 C -3.081972 3.631833 1.259620 0
M  V30 28 C -2.146260 4.543516 0.793848 0
M  V30 29 C -1.114433 4.092979 -0.038419 0
M  V30 30 C -1.113371 2.761095 -0.329748 0
M  V30 31 C 1.142484 3.543586 -2.829960 0
M  V30 32 O 0.254464 4.392364 -3.147265 0
M  V30 33 N 2.485295 3.487254 -3.334540 0
M  V30 34 C 3.107386 2.386815 -2.705632 0
M  V30 35 O 4.285608 1.988470 -2.868392 0
M  V30 36 C 2.112451 0.842877 0.450544 0
M  V30 37 C 1.831404 1.957491 1.250132 0
M  V30 38 C 1.738795 1.940107 2.620881 0
M  V30 39 C 1.935893 0.744477 3.269852 0
M  V30 40 C 2.218003 -0.391719 2.550717 0
M  V30 41 C 2.296475 -0.306736 1.179718 0
M  V30 42 H 3.225493 -7.058886 1.332235 0
M  V30 43 H 3.591588 -6.725470 3.039712 0
M  V30 44 H 1.917447 -7.120928 2.613148 0
M  V30 45 H 0.785012 -5.163920 3.195994 0
M  V30 46 H 2.329266 -5.048178 4.178488 0
M  V30 47 H 1.756771 -3.602391 3.233805 0
M  V30 48 H 0.856751 -5.420509 0.986627 0
M  V30 49 H 2.306579 -5.365909 -0.010118 0
M  V30 50 H 1.071314 -3.356429 -0.363112 0
M  V30 51 H 0.949397 -3.060622 1.449624 0
M  V30 52 H 3.318636 -2.736973 1.555128 0
M  V30 53 H 3.552728 -3.095587 -0.178312 0
M  V30 54 H -0.137738 -0.122539 -1.625963 0
M  V30 55 H -0.860976 -1.545159 1.007774 0
M  V30 56 H -1.978356 -3.684150 1.343114 0
M  V30 57 H -4.253435 -4.033409 0.323499 0
M  V30 58 H -6.090960 -3.180433 -0.985731 0
M  V30 59 H -7.105216 -1.307878 -2.308515 0
M  V30 60 H -5.920199 0.752596 -2.573401 0
M  V30 61 H -3.745055 1.128593 -1.608274 0
M  V30 62 H -3.789077 1.567333 1.309386 0
M  V30 63 H -3.879571 4.002879 1.906623 0
M  V30 64 H -2.204608 5.593624 1.068388 0
M  V30 65 H -0.357657 4.760692 -0.428283 0
M  V30 66 H 2.870939 4.161286 -4.034851 0
M  V30 67 H 1.683643 2.921232 0.798558 0
M  V30 68 H 1.520060 2.827420 3.182409 0
M  V30 69 H 1.862486 0.736849 4.351316 0
M  V30 70 H 2.362614 -1.293138 3.115649 0
M  V30 END ATOM
M  V30 BEGIN BOND
M  V30 1 1 1 2
M  V30 2 1 2 3
M  V30 3 1 2 4
M  V30 4 1 4 5
M  V30 5 1 5 6
M  V30 6 1 6 7
M  V30 7 1 7 8
M  V30 8 2 8 9
M  V30 9 1 9 10
M  V30 10 2 10 11
M  V30 11 1 11 12
M  V30 12 2 12 13
M  V30 13 1 13 14
M  V30 14 1 14 15
M  V30 15 2 15 16
M  V30 16 1 16 17
M  V30 17 2 17 18
M  V30 18 1 18 19
M  V30 19 2 19 20
M  V30 20 1 20 21
M  V30 21 2 21 22
M  V30 22 1 22 23
M  V30 23 2 23 24
M  V30 24 1 14 25
M  V30 25 2 25 26
M  V30 26 1 26 27
M  V30 27 2 27 28
M  V30 28 1 28 29
M  V30 29 2 29 30
M  V30 30 1 11 31
M  V30 31 2 31 32
M  V30 32 1 31 33
M  V30 33 1 33 34
M  V30 34 2 34 35
M  V30 35 1 9 36
M  V30 36 2 36 37
M  V30 37 1 37 38
M  V30 38 2 38 39
M  V30 39 1 39 40
M  V30 40 2 40 41
M  V30 41 1 41 7
M  V30 42 1 34 10
M  V30 43 1 41 36
M  V30 44 1 30 12
M  V30 45 1 24 15
M  V30 46 1 30 25
M  V30 47 1 24 19
M  V30 48 1 1 42
M  V30 49 1 1 43
M  V30 50 1 1 44
M  V30 51 1 3 45
M  V30 52 1 3 46
M  V30 53 1 3 47
M  V30 54 1 4 48
M  V30 55 1 4 49
M  V30 56 1 5 50
M  V30 57 1 5 51
M  V30 58 1 6 52
M  V30 59 1 6 53
M  V30 60 1 13 54
M  V30 61 1 16 55
M  V30 62 1 17 56
M  V30 63 1 18 57
M  V30 64 1 20 58
M  V30 65 1 21 59
M  V30 66 1 22 60
M  V30 67 1 23 61
M  V30 68 1 26 62
M  V30 69 1 27 63
M  V30 70 1 28 64
M  V30 71 1 29 65
M  V30 72 1 33 66
M  V30 73 1 37 67
M  V30 74 1 38 68
M  V30 75 1 39 69
M  V30 76 1 40 70
M  V30 END BOND
M  V30 END CTAB
M  END
>  <Dataset>  (26) 
ChEMBL_Kinases

>  <Ligand_Instance>  (26) 
nan

>  <PDB_ID>  (26) 
nan

>  <Standardized_SMILES>  (26) 
CN(C)CCCn1nc(C2=C(c3cn(-c4cccc5ccccc45)c4ccccc34)C(=O)NC2=O)c2ccccc21

>  <Name>  (26) 
nan

>  <Pocket>  (26) 
nan

>  <ATP_Site>  (26) 
nan

>  <Peripheral>  (26) 
nan

>  <Num_H_Atoms_ProtBoundConf>  (26) 
nan

>  <Num_Resolved_Atoms>  (26) 
nan

>  <Num_Not_Resolved_Atoms>  (26) 
nan

$$$$
CHEMBL141247
     RDKit          3D

  0  0  0  0  0  0  0  0  0  0999 V3000
M  V30 BEGIN CTAB
M  V30 COUNTS 39 42 0 0 0
M  V30 BEGIN ATOM
M  V30 1 O 2.062283 -0.402214 1.912686 0
M  V30 2 C 1.059914 -1.163846 2.014068 0
M  V30 3 N 1.187045 -2.571686 2.057058 0
M  V30 4 C 2.462276 -3.198526 1.987335 0
M  V30 5 C 3.079104 -3.584588 0.813117 0
M  V30 6 C 4.317066 -4.190933 0.775467 0
M  V30 7 C 4.987820 -4.431124 1.971007 0
M  V30 8 C 4.349094 -4.034842 3.138932 0
M  V30 9 N 3.141806 -3.446819 3.130269 0
M  V30 10 N -0.271041 -0.701988 2.093998 0
M  V30 11 C -0.760222 0.632171 2.080141 0
M  V30 12 C -0.922366 1.351183 3.245058 0
M  V30 13 C -1.405022 2.661604 3.206620 0
M  V30 14 C -1.737744 3.286945 2.007556 0
M  V30 15 C -1.557745 2.525851 0.872977 0
M  V30 16 C -1.082655 1.229682 0.880284 0
M  V30 17 C -1.006547 0.723101 -0.484783 0 CFG=1
M  V30 18 C -1.971268 -0.377095 -0.836260 0
M  V30 19 C -2.100799 -0.174870 -2.345184 0
M  V30 20 C -1.397072 1.147940 -2.616786 0
M  V30 21 N -1.509206 1.826890 -1.317801 0
M  V30 22 C -1.840729 2.945040 -0.504687 0
M  V30 23 O -2.277476 4.010586 -1.010743 0
M  V30 24 H 0.411389 -3.254601 2.138977 0
M  V30 25 H 2.535198 -3.386450 -0.109826 0
M  V30 26 H 4.730434 -4.462728 -0.191336 0
M  V30 27 H 5.954014 -4.902431 1.968058 0
M  V30 28 H 4.894786 -4.233707 4.063843 0
M  V30 29 H -1.107285 -1.322281 2.178026 0
M  V30 30 H -0.667148 0.877110 4.189954 0
M  V30 31 H -1.501097 3.152225 4.168083 0
M  V30 32 H -2.107299 4.297646 2.009149 0
M  V30 33 H -0.006053 0.485793 -0.848230 0
M  V30 34 H -2.918866 -0.323083 -0.305177 0
M  V30 35 H -1.462427 -1.357103 -0.709503 0
M  V30 36 H -1.581265 -0.951640 -2.925516 0
M  V30 37 H -3.138746 -0.070787 -2.660136 0
M  V30 38 H -1.908419 1.739684 -3.401328 0
M  V30 39 H -0.346768 1.009090 -2.889252 0
M  V30 END ATOM
M  V30 BEGIN BOND
M  V30 1 2 1 2
M  V30 2 1 2 3
M  V30 3 1 3 4
M  V30 4 2 4 5
M  V30 5 1 5 6
M  V30 6 2 6 7
M  V30 7 1 7 8
M  V30 8 2 8 9
M  V30 9 1 2 10
M  V30 10 1 10 11
M  V30 11 2 11 12
M  V30 12 1 12 13
M  V30 13 2 13 14
M  V30 14 1 14 15
M  V30 15 2 15 16
M  V30 16 1 16 17
M  V30 17 1 17 18
M  V30 18 1 18 19
M  V30 19 1 19 20
M  V30 20 1 20 21
M  V30 21 1 21 22
M  V30 22 2 22 23
M  V30 23 1 9 4
M  V30 24 1 16 11
M  V30 25 1 21 17
M  V30 26 1 22 15
M  V30 27 1 3 24
M  V30 28 1 5 25
M  V30 29 1 6 26
M  V30 30 1 7 27
M  V30 31 1 8 28
M  V30 32 1 10 29
M  V30 33 1 12 30
M  V30 34 1 13 31
M  V30 35 1 14 32
M  V30 36 1 17 33 CFG=3
M  V30 37 1 18 34
M  V30 38 1 18 35
M  V30 39 1 19 36
M  V30 40 1 19 37
M  V30 41 1 20 38
M  V30 42 1 20 39
M  V30 END BOND
M  V30 END CTAB
M  END
>  <Dataset>  (27) 
ChEMBL_Kinases

>  <Ligand_Instance>  (27) 
nan

>  <PDB_ID>  (27) 
nan

>  <Standardized_SMILES>  (27) 
O=C(Nc1ccccn1)Nc1cccc2c1[C@H]1CCCN1C2=O

>  <Name>  (27) 
nan

>  <Pocket>  (27) 
nan

>  <ATP_Site>  (27) 
nan

>  <Peripheral>  (27) 
nan

>  <Num_H_Atoms_ProtBoundConf>  (27) 
nan

>  <Num_Resolved_Atoms>  (27) 
nan

>  <Num_Not_Resolved_Atoms>  (27) 
nan

$$$$
CHEMBL4079206
     RDKit          3D

  0  0  0  0  0  0  0  0  0  0999 V3000
M  V30 BEGIN CTAB
M  V30 COUNTS 52 55 0 0 0
M  V30 BEGIN ATOM
M  V30 1 C -0.797866 -3.863950 2.919555 0
M  V30 2 N 0.535664 -3.608427 2.446220 0
M  V30 3 C 1.249447 -2.767683 3.326815 0
M  V30 4 C 1.255237 -1.367992 2.745004 0
M  V30 5 C 2.178897 -1.512710 1.548954 0 CFG=2
M  V30 6 C 2.649889 -0.266971 0.966619 0
M  V30 7 C 3.998768 0.116425 1.086152 0
M  V30 8 O 4.891235 -0.726185 1.761273 0
M  V30 9 C 4.573361 1.270463 0.598401 0
M  V30 10 C 3.760723 2.138574 -0.071187 0
M  V30 11 O 4.279021 3.307131 -0.581147 0
M  V30 12 C 2.415458 1.789769 -0.208006 0
M  V30 13 C 1.664719 2.738153 -0.903278 0
M  V30 14 O 2.149104 3.798064 -1.362563 0
M  V30 15 C 0.335297 2.424312 -1.052099 0
M  V30 16 C -0.192987 1.233598 -0.532284 0
M  V30 17 C -1.632970 1.066177 -0.786462 0
M  V30 18 C -2.453765 0.101180 -0.444197 0
M  V30 19 C -3.843760 -0.209340 -0.606549 0
M  V30 20 C -4.794304 0.506442 -1.257486 0
M  V30 21 Cl -4.392493 2.004722 -2.041181 0
M  V30 22 C -6.121212 0.169296 -1.382419 0
M  V30 23 C -6.495939 -1.011881 -0.780881 0
M  V30 24 C -5.591268 -1.792213 -0.103269 0
M  V30 25 C -4.288809 -1.378533 -0.029081 0
M  V30 26 Cl -3.228512 -2.450889 0.862060 0
M  V30 27 O 0.559722 0.379774 0.111761 0
M  V30 28 C 1.834042 0.633327 0.279892 0
M  V30 29 C 1.715784 -2.512094 0.573159 0 CFG=2
M  V30 30 O 1.413420 -1.914598 -0.643286 0
M  V30 31 C 0.634073 -3.429045 1.060057 0
M  V30 32 H -1.341565 -4.414100 2.117345 0
M  V30 33 H -0.733919 -4.573066 3.775727 0
M  V30 34 H -1.379563 -2.959620 3.168429 0
M  V30 35 H 0.764926 -2.799290 4.322674 0
M  V30 36 H 2.307664 -3.145678 3.417786 0
M  V30 37 H 1.647536 -0.622069 3.435141 0
M  V30 38 H 0.189555 -1.188820 2.426075 0
M  V30 39 H 3.110119 -1.972669 2.041409 0
M  V30 40 H 5.033043 -0.576425 2.745145 0
M  V30 41 H 5.614633 1.497123 0.728366 0
M  V30 42 H 5.254417 3.327083 -0.852400 0
M  V30 43 H -0.252074 3.158700 -1.592032 0
M  V30 44 H -2.170145 1.813840 -1.333982 0
M  V30 45 H -1.806947 -0.605024 0.107137 0
M  V30 46 H -6.868978 0.747721 -1.903437 0
M  V30 47 H -7.523213 -1.339808 -0.838397 0
M  V30 48 H -5.947518 -2.701542 0.343368 0
M  V30 49 H 2.582003 -3.200718 0.319184 0
M  V30 50 H 2.211036 -1.734511 -1.200481 0
M  V30 51 H 0.728789 -4.454229 0.593809 0
M  V30 52 H -0.315432 -3.018340 0.662277 0
M  V30 END ATOM
M  V30 BEGIN BOND
M  V30 1 1 1 2
M  V30 2 1 2 3
M  V30 3 1 3 4
M  V30 4 1 4 5
M  V30 5 1 5 6
M  V30 6 2 6 7
M  V30 7 1 7 8
M  V30 8 1 7 9
M  V30 9 2 9 10
M  V30 10 1 10 11
M  V30 11 1 10 12
M  V30 12 1 12 13
M  V30 13 2 13 14
M  V30 14 1 13 15
M  V30 15 2 15 16
M  V30 16 1 16 17
M  V30 17 2 17 18
M  V30 18 1 18 19
M  V30 19 2 19 20
M  V30 20 1 20 21
M  V30 21 1 20 22
M  V30 22 2 22 23
M  V30 23 1 23 24
M  V30 24 2 24 25
M  V30 25 1 25 26
M  V30 26 1 16 27
M  V30 27 1 27 28
M  V30 28 1 5 29
M  V30 29 1 29 30
M  V30 30 1 29 31
M  V30 31 1 31 2
M  V30 32 1 28 6
M  V30 33 2 28 12
M  V30 34 1 25 19
M  V30 35 1 1 32
M  V30 36 1 1 33
M  V30 37 1 1 34
M  V30 38 1 3 35
M  V30 39 1 3 36
M  V30 40 1 4 37
M  V30 41 1 4 38
M  V30 42 1 5 39 CFG=1
M  V30 43 1 8 40
M  V30 44 1 9 41
M  V30 45 1 11 42
M  V30 46 1 15 43
M  V30 47 1 17 44
M  V30 48 1 18 45
M  V30 49 1 22 46
M  V30 50 1 23 47
M  V30 51 1 24 48
M  V30 52 1 29 49 CFG=3
M  V30 53 1 30 50
M  V30 54 1 31 51
M  V30 55 1 31 52
M  V30 END BOND
M  V30 END CTAB
M  END
>  <Dataset>  (28) 
ChEMBL_Kinases

>  <Ligand_Instance>  (28) 
nan

>  <PDB_ID>  (28) 
nan

>  <Standardized_SMILES>  (28) 
CN1CC[C@H](c2c(O)cc(O)c3c(=O)cc(/C=C/c4c(Cl)cccc4Cl)oc23)[C@H](O)C1

>  <Name>  (28) 
nan

>  <Pocket>  (28) 
nan

>  <ATP_Site>  (28) 
nan

>  <Peripheral>  (28) 
nan

>  <Num_H_Atoms_ProtBoundConf>  (28) 
nan

>  <Num_Resolved_Atoms>  (28) 
nan

>  <Num_Not_Resolved_Atoms>  (28) 
nan

$$$$
CHEMBL585951
     RDKit          3D

  0  0  0  0  0  0  0  0  0  0999 V3000
M  V30 BEGIN CTAB
M  V30 COUNTS 64 69 0 0 0
M  V30 BEGIN ATOM
M  V30 1 F 3.919804 0.387628 6.559523 0
M  V30 2 C 3.402495 0.239267 5.317237 0
M  V30 3 C 4.175960 0.472816 4.200132 0
M  V30 4 C 3.696945 0.335872 2.915177 0
M  V30 5 C 4.503524 0.578610 1.724929 0
M  V30 6 C 5.823880 0.967111 1.781236 0
M  V30 7 C 6.617682 1.204821 0.678256 0
M  V30 8 N 6.058140 1.044672 -0.554822 0
M  V30 9 C 4.761749 0.663319 -0.620461 0
M  V30 10 N 4.261761 0.520735 -1.800982 0
M  V30 11 C 2.913309 0.124899 -2.017261 0
M  V30 12 C 2.029787 0.960322 -1.354837 0
M  V30 13 C 0.655292 0.738002 -1.443907 0
M  V30 14 C 0.153730 -0.322592 -2.196912 0
M  V30 15 N -1.232564 -0.541630 -2.284187 0
M  V30 16 C -1.970665 0.521699 -2.672678 0
M  V30 17 N -3.277263 0.170854 -2.713244 0
M  V30 18 C -3.341247 -1.121425 -2.345649 0
M  V30 19 N -4.547917 -1.867422 -2.261253 0
M  V30 20 C -5.791873 -1.182681 -2.603959 0
M  V30 21 C -6.635091 -2.147239 -3.409884 0
M  V30 22 O -6.899529 -3.239832 -2.561956 0
M  V30 23 C -5.739662 -4.019238 -2.464473 0
M  V30 24 C -4.606320 -3.239440 -1.861927 0
M  V30 25 N -2.085674 -1.531270 -2.090326 0
M  V30 26 C 1.061958 -1.132851 -2.842126 0
M  V30 27 C 2.422285 -0.925711 -2.763489 0
M  V30 28 N 4.006386 0.436889 0.473581 0
M  V30 29 C 2.382415 -0.053120 2.765230 0
M  V30 30 C 1.562147 -0.300325 3.825748 0
M  V30 31 N 0.202387 -0.703936 3.721329 0
M  V30 32 C -0.502384 -0.917155 2.475517 0
M  V30 33 C -1.724525 -0.017685 2.422755 0
M  V30 34 O -2.428894 -0.021034 3.608465 0
M  V30 35 C -2.042457 -1.035118 4.467290 0
M  V30 36 C -0.600373 -0.937907 4.904534 0
M  V30 37 C 2.099546 -0.145982 5.085001 0
M  V30 38 H 5.196780 0.774885 4.368055 0
M  V30 39 H 6.319665 1.109615 2.713229 0
M  V30 40 H 7.653501 1.509384 0.745373 0
M  V30 41 H 6.655977 1.223648 -1.392425 0
M  V30 42 H 2.288626 1.828389 -0.730247 0
M  V30 43 H -0.061252 1.381105 -0.931650 0
M  V30 44 H -1.737602 1.558487 -2.947427 0
M  V30 45 H -5.572860 -0.259842 -3.198584 0
M  V30 46 H -6.396370 -0.922023 -1.708842 0
M  V30 47 H -7.604898 -1.669532 -3.674362 0
M  V30 48 H -6.125660 -2.542915 -4.306453 0
M  V30 49 H -5.469613 -4.465223 -3.441638 0
M  V30 50 H -5.994952 -4.842798 -1.765436 0
M  V30 51 H -4.772335 -3.235283 -0.747337 0
M  V30 52 H -3.667181 -3.809601 -2.023371 0
M  V30 53 H 0.731391 -1.979764 -3.447013 0
M  V30 54 H 3.197074 -1.512976 -3.237515 0
M  V30 55 H 2.011941 -0.159124 1.778166 0
M  V30 56 H -0.784936 -1.988942 2.442978 0
M  V30 57 H 0.069890 -0.709547 1.573229 0
M  V30 58 H -2.405298 -0.466006 1.646290 0
M  V30 59 H -1.364865 0.992710 2.142038 0
M  V30 60 H -2.742823 -1.029802 5.322061 0
M  V30 61 H -2.188789 -2.005069 3.917668 0
M  V30 62 H -0.329041 -1.910400 5.365716 0
M  V30 63 H -0.485270 -0.092844 5.616546 0
M  V30 64 H 1.504621 -0.325834 5.993055 0
M  V30 END ATOM
M  V30 BEGIN BOND
M  V30 1 1 1 2
M  V30 2 2 2 3
M  V30 3 1 3 4
M  V30 4 1 4 5
M  V30 5 1 5 6
M  V30 6 2 6 7
M  V30 7 1 7 8
M  V30 8 1 8 9
M  V30 9 2 9 10
M  V30 10 1 10 11
M  V30 11 2 11 12
M  V30 12 1 12 13
M  V30 13 2 13 14
M  V30 14 1 14 15
M  V30 15 1 15 16
M  V30 16 2 16 17
M  V30 17 1 17 18
M  V30 18 1 18 19
M  V30 19 1 19 20
M  V30 20 1 20 21
M  V30 21 1 21 22
M  V30 22 1 22 23
M  V30 23 1 23 24
M  V30 24 2 18 25
M  V30 25 1 14 26
M  V30 26 2 26 27
M  V30 27 1 9 28
M  V30 28 2 4 29
M  V30 29 1 29 30
M  V30 30 1 30 31
M  V30 31 1 31 32
M  V30 32 1 32 33
M  V30 33 1 33 34
M  V30 34 1 34 35
M  V30 35 1 35 36
M  V30 36 2 30 37
M  V30 37 1 37 2
M  V30 38 2 28 5
M  V30 39 1 36 31
M  V30 40 1 27 11
M  V30 41 1 25 15
M  V30 42 1 24 19
M  V30 43 1 3 38
M  V30 44 1 6 39
M  V30 45 1 7 40
M  V30 46 1 8 41
M  V30 47 1 12 42
M  V30 48 1 13 43
M  V30 49 1 16 44
M  V30 50 1 20 45
M  V30 51 1 20 46
M  V30 52 1 21 47
M  V30 53 1 21 48
M  V30 54 1 23 49
M  V30 55 1 23 50
M  V30 56 1 24 51
M  V30 57 1 24 52
M  V30 58 1 26 53
M  V30 59 1 27 54
M  V30 60 1 29 55
M  V30 61 1 32 56
M  V30 62 1 32 57
M  V30 63 1 33 58
M  V30 64 1 33 59
M  V30 65 1 35 60
M  V30 66 1 35 61
M  V30 67 1 36 62
M  V30 68 1 36 63
M  V30 69 1 37 64
M  V30 END BOND
M  V30 END CTAB
M  END
>  <Dataset>  (29) 
ChEMBL_Kinases

>  <Ligand_Instance>  (29) 
nan

>  <PDB_ID>  (29) 
nan

>  <Standardized_SMILES>  (29) 
Fc1cc(-c2cc[nH]/c(=N/c3ccc(-n4cnc(N5CCOCC5)n4)cc3)n2)cc(N2CCOCC2)c1

>  <Name>  (29) 
nan

>  <Pocket>  (29) 
nan

>  <ATP_Site>  (29) 
nan

>  <Peripheral>  (29) 
nan

>  <Num_H_Atoms_ProtBoundConf>  (29) 
nan

>  <Num_Resolved_Atoms>  (29) 
nan

>  <Num_Not_Resolved_Atoms>  (29) 
nan

$$$$
CHEMBL4874573
     RDKit          3D

  0  0  0  0  0  0  0  0  0  0999 V3000
M  V30 BEGIN CTAB
M  V30 COUNTS 41 44 0 0 0
M  V30 BEGIN ATOM
M  V30 1 C 1.862522 -6.919989 2.386627 0
M  V30 2 N 2.052478 -5.719365 1.564455 0
M  V30 3 C 2.327665 -5.883459 0.201208 0
M  V30 4 O 2.447866 -6.904759 -0.480186 0
M  V30 5 C 2.496986 -4.603389 -0.512612 0
M  V30 6 C 2.445086 -3.274767 -0.138008 0
M  V30 7 C 2.651193 -2.294203 -1.059181 0
M  V30 8 N 2.612525 -0.911564 -0.745215 0
M  V30 9 N 3.525128 -0.028441 -1.089998 0
M  V30 10 C 3.173967 1.202145 -0.626291 0
M  V30 11 C 1.960599 1.010533 0.039247 0
M  V30 12 C 1.077168 1.846411 0.729451 0
M  V30 13 C -0.077322 1.329143 1.292106 0
M  V30 14 N -0.828823 2.345756 1.943298 0
M  V30 15 C -2.080453 2.979205 1.927199 0
M  V30 16 C -3.209418 2.620918 2.634818 0
M  V30 17 F -3.093693 1.536521 3.434497 0
M  V30 18 C -4.405087 3.285977 2.572151 0
M  V30 19 C -4.420618 4.374616 1.731678 0
M  V30 20 C -3.335479 4.794729 0.992672 0
M  V30 21 C -2.155763 4.086240 1.095155 0
M  V30 22 Cl -0.855551 4.741248 0.091802 0
M  V30 23 C -0.378910 -0.012214 1.184814 0
M  V30 24 F -1.517965 -0.393534 1.767089 0
M  V30 25 C 0.464960 -0.871472 0.512701 0
M  V30 26 C 1.605681 -0.323392 -0.035455 0
M  V30 27 C 2.926019 -2.729677 -2.445252 0
M  V30 28 S 2.870306 -4.596101 -2.341244 0
M  V30 29 H 2.319985 -6.708105 3.374305 0
M  V30 30 H 0.748377 -6.937602 2.565569 0
M  V30 31 H 2.214892 -7.833937 1.900375 0
M  V30 32 H 1.970378 -4.800542 2.049849 0
M  V30 33 H 2.236424 -3.098843 0.900368 0
M  V30 34 H 3.661043 2.169545 -0.705739 0
M  V30 35 H 1.405626 2.886130 0.757579 0
M  V30 36 H -0.340768 2.850147 2.730000 0
M  V30 37 H -5.267501 2.978965 3.138589 0
M  V30 38 H -5.361529 4.934997 1.653570 0
M  V30 39 H -3.480466 5.679123 0.360195 0
M  V30 40 H 0.202642 -1.905055 0.447441 0
M  V30 41 H 3.102666 -1.997990 -3.244544 0
M  V30 END ATOM
M  V30 BEGIN BOND
M  V30 1 1 1 2
M  V30 2 1 2 3
M  V30 3 2 3 4
M  V30 4 1 3 5
M  V30 5 2 5 6
M  V30 6 1 6 7
M  V30 7 1 7 8
M  V30 8 1 8 9
M  V30 9 2 9 10
M  V30 10 1 10 11
M  V30 11 2 11 12
M  V30 12 1 12 13
M  V30 13 1 13 14
M  V30 14 1 14 15
M  V30 15 2 15 16
M  V30 16 1 16 17
M  V30 17 1 16 18
M  V30 18 2 18 19
M  V30 19 1 19 20
M  V30 20 2 20 21
M  V30 21 1 21 22
M  V30 22 2 13 23
M  V30 23 1 23 24
M  V30 24 1 23 25
M  V30 25 2 25 26
M  V30 26 2 7 27
M  V30 27 1 27 28
M  V30 28 1 28 5
M  V30 29 1 26 8
M  V30 30 1 26 11
M  V30 31 1 21 15
M  V30 32 1 1 29
M  V30 33 1 1 30
M  V30 34 1 1 31
M  V30 35 1 2 32
M  V30 36 1 6 33
M  V30 37 1 10 34
M  V30 38 1 12 35
M  V30 39 1 14 36
M  V30 40 1 18 37
M  V30 41 1 19 38
M  V30 42 1 20 39
M  V30 43 1 25 40
M  V30 44 1 27 41
M  V30 END BOND
M  V30 END CTAB
M  END
>  <Dataset>  (30) 
ChEMBL_Kinases

>  <Ligand_Instance>  (30) 
nan

>  <PDB_ID>  (30) 
nan

>  <Standardized_SMILES>  (30) 
CNC(=O)c1cc(-n2ncc3cc(Nc4c(F)cccc4Cl)c(F)cc32)cs1

>  <Name>  (30) 
nan

>  <Pocket>  (30) 
nan

>  <ATP_Site>  (30) 
nan

>  <Peripheral>  (30) 
nan

>  <Num_H_Atoms_ProtBoundConf>  (30) 
nan

>  <Num_Resolved_Atoms>  (30) 
nan

>  <Num_Not_Resolved_Atoms>  (30) 
nan

$$$$
CHEMBL4089284
     RDKit          3D

  0  0  0  0  0  0  0  0  0  0999 V3000
M  V30 BEGIN CTAB
M  V30 COUNTS 70 74 0 0 0
M  V30 BEGIN ATOM
M  V30 1 C 4.569328 -1.562588 5.897532 0
M  V30 2 N 3.565101 -0.889291 6.665192 0
M  V30 3 C 2.229889 -1.321466 6.268413 0
M  V30 4 C 1.738539 -0.506572 5.075357 0
M  V30 5 N 2.939201 -0.240236 4.269774 0
M  V30 6 C 2.581352 0.092752 2.920138 0
M  V30 7 C 3.755865 0.367409 2.052127 0
M  V30 8 O 4.984233 0.331947 2.392897 0
M  V30 9 N 3.388766 0.701783 0.696964 0
M  V30 10 C 4.464667 0.990167 -0.256030 0
M  V30 11 C 2.045193 0.780612 0.183366 0
M  V30 12 C 1.456007 -0.344575 -0.352761 0
M  V30 13 C 0.160827 -0.226714 -0.837205 0
M  V30 14 C -0.559225 0.946236 -0.809932 0
M  V30 15 N -1.882596 1.079246 -1.299697 0
M  V30 16 C -2.614398 -0.021519 -1.876297 0
M  V30 17 C -3.061300 -0.920503 -1.060047 0
M  V30 18 C -2.960090 -1.011946 0.381502 0
M  V30 19 O -2.418194 -0.161987 1.125551 0
M  V30 20 N -3.583253 -2.228162 0.768376 0
M  V30 21 C -4.044980 -2.848029 -0.424244 0
M  V30 22 C -4.697510 -4.054524 -0.549126 0
M  V30 23 C -5.052869 -4.508728 -1.797243 0
M  V30 24 C -4.759644 -3.761380 -2.943222 0
M  V30 25 C -5.181109 -4.336516 -4.232063 0
M  V30 26 O -5.761856 -5.429261 -4.223716 0
M  V30 27 O -4.929905 -3.664905 -5.418177 0
M  V30 28 C -4.108010 -2.565201 -2.760170 0
M  V30 29 C -3.746652 -2.091061 -1.533104 0
M  V30 30 C -2.778057 0.206236 -3.291553 0
M  V30 31 C -1.594095 0.267482 -4.039500 0
M  V30 32 C -1.528209 0.543614 -5.392426 0
M  V30 33 C -2.714994 0.775794 -6.053462 0
M  V30 34 C -3.927123 0.736788 -5.400794 0
M  V30 35 C -3.928563 0.457404 -4.057477 0
M  V30 36 C 0.059947 2.050424 -0.267585 0
M  V30 37 C 1.358707 1.981887 0.231556 0
M  V30 38 C 3.625041 0.832278 4.949016 0
M  V30 39 C 3.598269 0.544778 6.444328 0
M  V30 40 H 5.273395 -2.054035 6.614011 0
M  V30 41 H 5.194326 -0.904374 5.269509 0
M  V30 42 H 4.070216 -2.356347 5.284554 0
M  V30 43 H 1.573479 -1.174536 7.145752 0
M  V30 44 H 2.205539 -2.386970 5.942650 0
M  V30 45 H 0.990378 -1.094719 4.497528 0
M  V30 46 H 1.338193 0.478621 5.389270 0
M  V30 47 H 2.034536 -0.782700 2.493728 0
M  V30 48 H 1.902251 0.979138 2.961315 0
M  V30 49 H 5.339128 0.325606 -0.081472 0
M  V30 50 H 4.100451 0.948336 -1.289081 0
M  V30 51 H 4.858587 2.031935 -0.086966 0
M  V30 52 H 1.993405 -1.295167 -0.393598 0
M  V30 53 H -0.339875 -1.098225 -1.269971 0
M  V30 54 H -2.382960 1.971934 -1.264735 0
M  V30 55 H -3.634431 -2.512290 1.769595 0
M  V30 56 H -4.931483 -4.645505 0.323786 0
M  V30 57 H -5.560196 -5.454372 -1.844240 0
M  V30 58 H -5.168375 -4.037134 -6.329022 0
M  V30 59 H -3.932082 -2.130026 -3.715772 0
M  V30 60 H -0.610683 0.098043 -3.601945 0
M  V30 61 H -0.613069 0.585613 -5.946305 0
M  V30 62 H -2.736775 0.997607 -7.111536 0
M  V30 63 H -4.905648 0.903839 -5.828314 0
M  V30 64 H -4.828950 0.397537 -3.425182 0
M  V30 65 H -0.418516 3.027899 -0.197010 0
M  V30 66 H 1.826386 2.838849 0.647390 0
M  V30 67 H 3.056257 1.798030 4.818650 0
M  V30 68 H 4.657563 0.951933 4.619302 0
M  V30 69 H 4.543734 0.966007 6.874571 0
M  V30 70 H 2.698696 0.999478 6.905786 0
M  V30 END ATOM
M  V30 BEGIN BOND
M  V30 1 1 1 2
M  V30 2 1 2 3
M  V30 3 1 3 4
M  V30 4 1 4 5
M  V30 5 1 5 6
M  V30 6 1 6 7
M  V30 7 2 7 8
M  V30 8 1 7 9
M  V30 9 1 9 10
M  V30 10 1 9 11
M  V30 11 2 11 12
M  V30 12 1 12 13
M  V30 13 2 13 14
M  V30 14 1 14 15
M  V30 15 1 15 16
M  V30 16 2 16 17
M  V30 17 1 17 18
M  V30 18 2 18 19
M  V30 19 1 18 20
M  V30 20 1 20 21
M  V30 21 2 21 22
M  V30 22 1 22 23
M  V30 23 2 23 24
M  V30 24 1 24 25
M  V30 25 2 25 26
M  V30 26 1 25 27
M  V30 27 1 24 28
M  V30 28 2 28 29
M  V30 29 1 16 30
M  V30 30 2 30 31
M  V30 31 1 31 32
M  V30 32 2 32 33
M  V30 33 1 33 34
M  V30 34 2 34 35
M  V30 35 1 14 36
M  V30 36 2 36 37
M  V30 37 1 5 38
M  V30 38 1 38 39
M  V30 39 1 39 2
M  V30 40 1 37 11
M  V30 41 1 29 17
M  V30 42 1 35 30
M  V30 43 1 29 21
M  V30 44 1 1 40
M  V30 45 1 1 41
M  V30 46 1 1 42
M  V30 47 1 3 43
M  V30 48 1 3 44
M  V30 49 1 4 45
M  V30 50 1 4 46
M  V30 51 1 6 47
M  V30 52 1 6 48
M  V30 53 1 10 49
M  V30 54 1 10 50
M  V30 55 1 10 51
M  V30 56 1 12 52
M  V30 57 1 13 53
M  V30 58 1 15 54
M  V30 59 1 20 55
M  V30 60 1 22 56
M  V30 61 1 23 57
M  V30 62 1 27 58
M  V30 63 1 28 59
M  V30 64 1 31 60
M  V30 65 1 32 61
M  V30 66 1 33 62
M  V30 67 1 34 63
M  V30 68 1 35 64
M  V30 69 1 36 65
M  V30 70 1 37 66
M  V30 71 1 38 67
M  V30 72 1 38 68
M  V30 73 1 39 69
M  V30 74 1 39 70
M  V30 END BOND
M  V30 END CTAB
M  END
>  <Dataset>  (31) 
ChEMBL_Kinases

>  <Ligand_Instance>  (31) 
nan

>  <PDB_ID>  (31) 
nan

>  <Standardized_SMILES>  (31) 
CN1CCN(CC(=O)N(C)c2ccc(N/C(=C3\C(=O)Nc4ccc(C(=O)O)cc43)c3ccccc3)cc2)CC1

>  <Name>  (31) 
nan

>  <Pocket>  (31) 
nan

>  <ATP_Site>  (31) 
nan

>  <Peripheral>  (31) 
nan

>  <Num_H_Atoms_ProtBoundConf>  (31) 
nan

>  <Num_Resolved_Atoms>  (31) 
nan

>  <Num_Not_Resolved_Atoms>  (31) 
nan

$$$$
CHEMBL178945
     RDKit          3D

  0  0  0  0  0  0  0  0  0  0999 V3000
M  V30 BEGIN CTAB
M  V30 COUNTS 61 66 0 0 0
M  V30 BEGIN ATOM
M  V30 1 C 3.810038 -2.525367 4.443260 0
M  V30 2 N 2.632205 -3.339103 4.302005 0
M  V30 3 C 2.922801 -4.700092 3.978788 0
M  V30 4 C 1.663524 -2.716178 3.385044 0
M  V30 5 C 1.143068 -1.489446 4.052678 0
M  V30 6 C 0.139004 -0.697812 3.300956 0
M  V30 7 N 0.618682 -0.204435 2.016314 0
M  V30 8 N 0.561968 -0.757420 0.813168 0
M  V30 9 C 1.148780 0.071074 -0.102561 0
M  V30 10 C 1.257777 -0.209656 -1.535132 0
M  V30 11 C 0.340229 -0.593099 -2.405983 0
M  V30 12 C -1.084610 -0.872446 -2.288505 0
M  V30 13 C -1.913702 0.012894 -1.584455 0
M  V30 14 N -3.164878 -0.468189 -1.622069 0
M  V30 15 C -4.280592 0.173006 -1.020426 0
M  V30 16 C -4.395628 1.447718 -0.658405 0
M  V30 17 C -5.549240 1.913413 -0.088554 0
M  V30 18 C -6.568882 0.955714 0.075495 0
M  V30 19 S -5.823650 -0.635245 -0.612673 0
M  V30 20 C -3.216247 -1.614131 -2.303723 0
M  V30 21 C -4.170063 -2.541566 -2.665931 0
M  V30 22 C -3.875000 -3.674480 -3.405320 0
M  V30 23 C -2.567761 -3.882537 -3.795567 0
M  V30 24 C -1.573535 -2.995462 -3.465657 0
M  V30 25 C -1.910487 -1.882212 -2.730226 0
M  V30 26 C 0.973302 -0.735944 -3.709703 0
M  V30 27 O 0.649292 -1.057295 -4.899152 0
M  V30 28 N 2.375564 -0.410464 -3.584174 0
M  V30 29 C 2.561261 -0.074574 -2.196049 0
M  V30 30 O 3.669810 0.264756 -1.697753 0
M  V30 31 C 1.575036 1.189944 0.629246 0
M  V30 32 C 2.213324 2.331826 0.231067 0
M  V30 33 C 2.530876 3.313968 1.142211 0
M  V30 34 C 2.202590 3.157403 2.495995 0
M  V30 35 C 1.556009 1.991501 2.871601 0
M  V30 36 C 1.231306 0.991536 1.950030 0
M  V30 37 H 4.596061 -3.188142 4.867215 0
M  V30 38 H 3.635600 -1.744287 5.195267 0
M  V30 39 H 4.106185 -2.090723 3.474049 0
M  V30 40 H 2.045309 -5.210335 3.565884 0
M  V30 41 H 3.811220 -4.810202 3.304608 0
M  V30 42 H 3.233492 -5.213095 4.918585 0
M  V30 43 H 2.284451 -2.486302 2.478538 0
M  V30 44 H 0.841966 -3.395106 3.166940 0
M  V30 45 H 1.968594 -0.824227 4.432649 0
M  V30 46 H 0.653858 -1.835382 4.993214 0
M  V30 47 H -0.214864 0.144486 3.946908 0
M  V30 48 H -0.770357 -1.311903 3.126918 0
M  V30 49 H -1.627692 0.932488 -1.085490 0
M  V30 50 H -3.565762 2.158574 -0.808256 0
M  V30 51 H -5.768927 2.915550 0.245464 0
M  V30 52 H -7.579145 1.123106 0.513599 0
M  V30 53 H -5.181328 -2.362580 -2.353787 0
M  V30 54 H -4.706444 -4.354969 -3.643640 0
M  V30 55 H -2.341981 -4.778143 -4.377217 0
M  V30 56 H -0.560003 -3.188909 -3.780598 0
M  V30 57 H 3.175185 -0.386462 -4.263896 0
M  V30 58 H 2.481873 2.509607 -0.797861 0
M  V30 59 H 3.043279 4.241551 0.844402 0
M  V30 60 H 2.428228 3.900456 3.263082 0
M  V30 61 H 1.301214 1.856732 3.893011 0
M  V30 END ATOM
M  V30 BEGIN BOND
M  V30 1 1 1 2
M  V30 2 1 2 3
M  V30 3 1 2 4
M  V30 4 1 4 5
M  V30 5 1 5 6
M  V30 6 1 6 7
M  V30 7 1 7 8
M  V30 8 2 8 9
M  V30 9 1 9 10
M  V30 10 2 10 11
M  V30 11 1 11 12
M  V30 12 2 12 13
M  V30 13 1 13 14
M  V30 14 1 14 15
M  V30 15 2 15 16
M  V30 16 1 16 17
M  V30 17 2 17 18
M  V30 18 1 18 19
M  V30 19 1 14 20
M  V30 20 2 20 21
M  V30 21 1 21 22
M  V30 22 2 22 23
M  V30 23 1 23 24
M  V30 24 2 24 25
M  V30 25 1 11 26
M  V30 26 2 26 27
M  V30 27 1 26 28
M  V30 28 1 28 29
M  V30 29 2 29 30
M  V30 30 1 9 31
M  V30 31 2 31 32
M  V30 32 1 32 33
M  V30 33 2 33 34
M  V30 34 1 34 35
M  V30 35 2 35 36
M  V30 36 1 36 7
M  V30 37 1 29 10
M  V30 38 1 36 31
M  V30 39 1 25 12
M  V30 40 1 19 15
M  V30 41 1 25 20
M  V30 42 1 1 37
M  V30 43 1 1 38
M  V30 44 1 1 39
M  V30 45 1 3 40
M  V30 46 1 3 41
M  V30 47 1 3 42
M  V30 48 1 4 43
M  V30 49 1 4 44
M  V30 50 1 5 45
M  V30 51 1 5 46
M  V30 52 1 6 47
M  V30 53 1 6 48
M  V30 54 1 13 49
M  V30 55 1 16 50
M  V30 56 1 17 51
M  V30 57 1 18 52
M  V30 58 1 21 53
M  V30 59 1 22 54
M  V30 60 1 23 55
M  V30 61 1 24 56
M  V30 62 1 28 57
M  V30 63 1 32 58
M  V30 64 1 33 59
M  V30 65 1 34 60
M  V30 66 1 35 61
M  V30 END BOND
M  V30 END CTAB
M  END
>  <Dataset>  (32) 
ChEMBL_Kinases

>  <Ligand_Instance>  (32) 
nan

>  <PDB_ID>  (32) 
nan

>  <Standardized_SMILES>  (32) 
CN(C)CCCn1nc(C2=C(c3cn(-c4cccs4)c4ccccc34)C(=O)NC2=O)c2ccccc21

>  <Name>  (32) 
nan

>  <Pocket>  (32) 
nan

>  <ATP_Site>  (32) 
nan

>  <Peripheral>  (32) 
nan

>  <Num_H_Atoms_ProtBoundConf>  (32) 
nan

>  <Num_Resolved_Atoms>  (32) 
nan

>  <Num_Not_Resolved_Atoms>  (32) 
nan

$$$$
CHEMBL3604794
     RDKit          3D

  0  0  0  0  0  0  0  0  0  0999 V3000
M  V30 BEGIN CTAB
M  V30 COUNTS 45 48 0 0 0
M  V30 BEGIN ATOM
M  V30 1 O -1.047070 -5.693093 1.105121 0
M  V30 2 C -0.841588 -4.613888 0.258205 0
M  V30 3 C 0.118413 -4.715998 -0.748100 0
M  V30 4 F 0.808641 -5.884268 -0.843846 0
M  V30 5 C 0.316475 -3.623789 -1.594513 0
M  V30 6 C -0.422939 -2.462730 -1.440549 0
M  V30 7 C -0.029239 -1.475927 -2.444336 0
M  V30 8 C -0.198079 -1.839126 -3.767696 0
M  V30 9 N 0.132080 -1.011107 -4.772019 0
M  V30 10 C 0.646598 0.218801 -4.495694 0
M  V30 11 C 0.809384 0.568173 -3.187465 0
M  V30 12 C 0.482773 -0.253323 -2.118184 0
M  V30 13 C 0.661241 0.135460 -0.735161 0
M  V30 14 C -0.077178 1.258708 -0.339003 0
M  V30 15 C -0.029002 1.769111 0.941125 0
M  V30 16 C 0.764886 1.181641 1.902922 0
M  V30 17 N 0.868075 1.644478 3.243956 0
M  V30 18 C 1.703596 1.106192 4.299638 0
M  V30 19 C 0.770560 0.441581 5.295971 0
M  V30 20 O -0.412085 1.161535 5.439474 0
M  V30 21 C -0.202294 2.522652 5.190926 0
M  V30 22 C 0.088431 2.779309 3.713719 0
M  V30 23 C 1.492538 0.075997 1.515231 0
M  V30 24 C 1.458341 -0.452760 0.233930 0
M  V30 25 C -1.373551 -2.369876 -0.439137 0
M  V30 26 C -1.559914 -3.451194 0.388028 0
M  V30 27 F -2.498916 -3.302427 1.344719 0
M  V30 28 H -0.915571 -6.638588 0.754906 0
M  V30 29 H 1.084466 -3.831474 -2.327328 0
M  V30 30 H -0.598147 -2.792847 -4.050435 0
M  V30 31 H 0.912765 0.885931 -5.310298 0
M  V30 32 H 1.219334 1.549699 -2.996925 0
M  V30 33 H -0.735230 1.782961 -1.051174 0
M  V30 34 H -0.612061 2.627058 1.185095 0
M  V30 35 H 2.428522 0.368785 3.952697 0
M  V30 36 H 2.245530 1.976577 4.769875 0
M  V30 37 H 0.486803 -0.548616 4.887719 0
M  V30 38 H 1.231125 0.289736 6.279297 0
M  V30 39 H 0.640979 2.817880 5.816310 0
M  V30 40 H -1.152050 3.028209 5.429395 0
M  V30 41 H -0.844435 2.919539 3.171859 0
M  V30 42 H 0.728758 3.686708 3.658113 0
M  V30 43 H 2.148892 -0.485600 2.141857 0
M  V30 44 H 2.002642 -1.303150 -0.109023 0
M  V30 45 H -1.873668 -1.419943 -0.429056 0
M  V30 END ATOM
M  V30 BEGIN BOND
M  V30 1 1 1 2
M  V30 2 2 2 3
M  V30 3 1 3 4
M  V30 4 1 3 5
M  V30 5 2 5 6
M  V30 6 1 6 7
M  V30 7 2 7 8
M  V30 8 1 8 9
M  V30 9 2 9 10
M  V30 10 1 10 11
M  V30 11 2 11 12
M  V30 12 1 12 13
M  V30 13 2 13 14
M  V30 14 1 14 15
M  V30 15 2 15 16
M  V30 16 1 16 17
M  V30 17 1 17 18
M  V30 18 1 18 19
M  V30 19 1 19 20
M  V30 20 1 20 21
M  V30 21 1 21 22
M  V30 22 1 16 23
M  V30 23 2 23 24
M  V30 24 1 6 25
M  V30 25 2 25 26
M  V30 26 1 26 27
M  V30 27 1 26 2
M  V30 28 1 12 7
M  V30 29 1 24 13
M  V30 30 1 22 17
M  V30 31 1 1 28
M  V30 32 1 5 29
M  V30 33 1 8 30
M  V30 34 1 10 31
M  V30 35 1 11 32
M  V30 36 1 14 33
M  V30 37 1 15 34
M  V30 38 1 18 35
M  V30 39 1 18 36
M  V30 40 1 19 37
M  V30 41 1 19 38
M  V30 42 1 21 39
M  V30 43 1 21 40
M  V30 44 1 22 41
M  V30 45 1 22 42
M  V30 46 1 23 43
M  V30 47 1 24 44
M  V30 48 1 25 45
M  V30 END BOND
M  V30 END CTAB
M  END
>  <Dataset>  (33) 
ChEMBL_Kinases

>  <Ligand_Instance>  (33) 
nan

>  <PDB_ID>  (33) 
nan

>  <Standardized_SMILES>  (33) 
Oc1c(F)cc(-c2cnccc2-c2ccc(N3CCOCC3)cc2)cc1F

>  <Name>  (33) 
nan

>  <Pocket>  (33) 
nan

>  <ATP_Site>  (33) 
nan

>  <Peripheral>  (33) 
nan

>  <Num_H_Atoms_ProtBoundConf>  (33) 
nan

>  <Num_Resolved_Atoms>  (33) 
nan

>  <Num_Not_Resolved_Atoms>  (33) 
nan

$$$$
CHEMBL3545307
     RDKit          3D

  0  0  0  0  0  0  0  0  0  0999 V3000
M  V30 BEGIN CTAB
M  V30 COUNTS 63 68 0 0 0
M  V30 BEGIN ATOM
M  V30 1 C 4.332330 -2.151602 6.285963 0
M  V30 2 C 3.631219 -1.687362 5.062074 0
M  V30 3 C 3.168846 -2.578551 4.122306 0
M  V30 4 C 2.514958 -2.184744 2.976498 0
M  V30 5 C 2.288016 -0.826959 2.713644 0
M  V30 6 C 1.596097 -0.566839 1.485273 0
M  V30 7 O 1.204126 -1.475248 0.672037 0
M  V30 8 N 1.217624 0.689627 0.936474 0
M  V30 9 C 0.541602 0.473116 -0.315264 0
M  V30 10 C -0.845550 0.310455 -0.270447 0
M  V30 11 C -1.567928 0.098646 -1.424249 0
M  V30 12 C -0.941555 0.041548 -2.652051 0
M  V30 13 O -1.427874 -0.157955 -3.931160 0
M  V30 14 C -2.761764 -0.388308 -4.212651 0
M  V30 15 C -3.566115 0.428017 -4.984150 0
M  V30 16 C -4.872884 0.129498 -5.216429 0
M  V30 17 C -5.862361 0.767334 -5.935201 0
M  V30 18 N -6.995509 0.033717 -5.838292 0
M  V30 19 N -6.780003 -1.032410 -5.098812 0
M  V30 20 C -7.744256 -2.064225 -4.760339 0
M  V30 21 C -5.485488 -1.009027 -4.697442 0
M  V30 22 C -4.680489 -1.836692 -3.918563 0
M  V30 23 C -3.348784 -1.539158 -3.678134 0
M  V30 24 C -2.654485 -2.540210 -2.845902 0
M  V30 25 C -1.394053 -3.083148 -3.092836 0
M  V30 26 N -1.188885 -3.949963 -2.058135 0
M  V30 27 N -2.229351 -3.944126 -1.243140 0
M  V30 28 C -3.180550 -3.081370 -1.682448 0
M  V30 29 C 0.451420 0.205614 -2.695701 0
M  V30 30 F 1.236291 0.182088 -3.798432 0
M  V30 31 C 1.182023 0.419070 -1.535903 0
M  V30 32 C 2.772017 0.014079 3.687037 0
M  V30 33 O 2.566946 1.229512 3.447698 0
M  V30 34 N 3.401261 -0.401842 4.786140 0
M  V30 35 C 3.838889 0.600384 5.692853 0
M  V30 36 C 5.223264 0.690185 5.739027 0
M  V30 37 C 5.840016 1.609367 6.565240 0
M  V30 38 C 5.052666 2.426996 7.335481 0
M  V30 39 F 5.625163 3.353353 8.169097 0
M  V30 40 C 3.659855 2.362231 7.312235 0
M  V30 41 C 3.074929 1.435462 6.477972 0
M  V30 42 H 3.732290 -2.999622 6.716179 0
M  V30 43 H 4.466112 -1.308641 6.972959 0
M  V30 44 H 5.340405 -2.495784 5.933707 0
M  V30 45 H 3.327906 -3.638185 4.294771 0
M  V30 46 H 2.186635 -2.975047 2.289845 0
M  V30 47 H 1.461821 1.549163 1.473539 0
M  V30 48 H -1.427490 0.336831 0.625397 0
M  V30 49 H -2.619906 -0.028282 -1.492692 0
M  V30 50 H -3.087896 1.326206 -5.394075 0
M  V30 51 H -5.742534 1.709930 -6.488291 0
M  V30 52 H -7.185802 -3.017703 -4.529574 0
M  V30 53 H -8.372165 -1.779671 -3.899854 0
M  V30 54 H -8.365179 -2.306584 -5.630505 0
M  V30 55 H -5.179460 -2.715033 -3.526547 0
M  V30 56 H -0.780997 -2.828020 -3.929467 0
M  V30 57 H -2.318666 -4.523171 -0.370596 0
M  V30 58 H -4.132079 -2.887807 -1.196584 0
M  V30 59 H 2.255798 0.553327 -1.498641 0
M  V30 60 H 5.932498 0.086792 5.167019 0
M  V30 61 H 6.912496 1.726282 6.644400 0
M  V30 62 H 3.033479 2.997364 7.911159 0
M  V30 63 H 2.015592 1.284526 6.366775 0
M  V30 END ATOM
M  V30 BEGIN BOND
M  V30 1 1 1 2
M  V30 2 2 2 3
M  V30 3 1 3 4
M  V30 4 2 4 5
M  V30 5 1 5 6
M  V30 6 2 6 7
M  V30 7 1 6 8
M  V30 8 1 8 9
M  V30 9 2 9 10
M  V30 10 1 10 11
M  V30 11 2 11 12
M  V30 12 1 12 13
M  V30 13 1 13 14
M  V30 14 2 14 15
M  V30 15 1 15 16
M  V30 16 1 16 17
M  V30 17 2 17 18
M  V30 18 1 18 19
M  V30 19 1 19 20
M  V30 20 1 19 21
M  V30 21 1 21 22
M  V30 22 2 22 23
M  V30 23 1 23 24
M  V30 24 1 24 25
M  V30 25 2 25 26
M  V30 26 1 26 27
M  V30 27 1 27 28
M  V30 28 1 12 29
M  V30 29 1 29 30
M  V30 30 2 29 31
M  V30 31 1 5 32
M  V30 32 2 32 33
M  V30 33 1 32 34
M  V30 34 1 34 35
M  V30 35 2 35 36
M  V30 36 1 36 37
M  V30 37 2 37 38
M  V30 38 1 38 39
M  V30 39 1 38 40
M  V30 40 2 40 41
M  V30 41 1 34 2
M  V30 42 1 41 35
M  V30 43 1 31 9
M  V30 44 1 23 14
M  V30 45 2 28 24
M  V30 46 2 21 16
M  V30 47 1 1 42
M  V30 48 1 1 43
M  V30 49 1 1 44
M  V30 50 1 3 45
M  V30 51 1 4 46
M  V30 52 1 8 47
M  V30 53 1 10 48
M  V30 54 1 11 49
M  V30 55 1 15 50
M  V30 56 1 17 51
M  V30 57 1 20 52
M  V30 58 1 20 53
M  V30 59 1 20 54
M  V30 60 1 22 55
M  V30 61 1 25 56
M  V30 62 1 27 57
M  V30 63 1 28 58
M  V30 64 1 31 59
M  V30 65 1 36 60
M  V30 66 1 37 61
M  V30 67 1 40 62
M  V30 68 1 41 63
M  V30 END BOND
M  V30 END CTAB
M  END
>  <Dataset>  (34) 
ChEMBL_Kinases

>  <Ligand_Instance>  (34) 
nan

>  <PDB_ID>  (34) 
nan

>  <Standardized_SMILES>  (34) 
Cc1ccc(C(=O)Nc2ccc(Oc3cc4cnn(C)c4cc3-c3cn[nH]c3)c(F)c2)c(=O)n1-c1ccc(F)cc1

>  <Name>  (34) 
MERESTINIB

>  <Pocket>  (34) 
nan

>  <ATP_Site>  (34) 
nan

>  <Peripheral>  (34) 
nan

>  <Num_H_Atoms_ProtBoundConf>  (34) 
nan

>  <Num_Resolved_Atoms>  (34) 
nan

>  <Num_Not_Resolved_Atoms>  (34) 
nan

$$$$
CHEMBL2030376
     RDKit          3D

  0  0  0  0  0  0  0  0  0  0999 V3000
M  V30 BEGIN CTAB
M  V30 COUNTS 36 39 0 0 0
M  V30 BEGIN ATOM
M  V30 1 O -0.620327 -1.193786 4.218362 0
M  V30 2 C -0.087221 -0.790456 3.156325 0
M  V30 3 N 0.860393 -1.525961 2.548580 0
M  V30 4 C 1.474789 -1.156095 1.408283 0
M  V30 5 C 2.506961 -1.872797 0.671819 0
M  V30 6 N 2.074061 -2.787886 -0.332824 0
M  V30 7 C 1.248321 -3.849089 0.142264 0
M  V30 8 C -0.157825 -3.406899 -0.270629 0
M  V30 9 C 0.140537 -2.957057 -1.691710 0 CFG=2
M  V30 10 O 0.356577 -4.048808 -2.531061 0
M  V30 11 C 1.438081 -2.187072 -1.468724 0
M  V30 12 N 1.084275 0.036290 0.874985 0
M  V30 13 C 0.133534 0.793990 1.467318 0
M  V30 14 C -0.500703 0.420264 2.637313 0
M  V30 15 O -1.360580 1.323445 2.980987 0
M  V30 16 C -1.374789 2.325696 2.116504 0
M  V30 17 C -2.096591 3.504609 2.034172 0
M  V30 18 C -1.884568 4.378612 0.982875 0
M  V30 19 C -0.936935 4.061384 0.006465 0
M  V30 20 Br -0.674955 5.308251 -1.439689 0
M  V30 21 C -0.197419 2.879310 0.068110 0
M  V30 22 C -0.435215 2.031496 1.130485 0
M  V30 23 H 1.159586 -2.423882 2.943461 0
M  V30 24 H 3.102921 -2.478604 1.409045 0
M  V30 25 H 3.226357 -1.158839 0.248676 0
M  V30 26 H 1.332563 -4.071652 1.207483 0
M  V30 27 H 1.487835 -4.746996 -0.499441 0
M  V30 28 H -0.450424 -2.509244 0.278263 0
M  V30 29 H -0.878879 -4.240577 -0.244349 0
M  V30 30 H -0.656255 -2.299524 -2.100886 0
M  V30 31 H 0.390361 -3.730113 -3.454657 0
M  V30 32 H 2.085044 -2.258646 -2.383188 0
M  V30 33 H 1.163151 -1.139047 -1.371722 0
M  V30 34 H -2.821290 3.693889 2.827868 0
M  V30 35 H -2.450176 5.298963 0.921390 0
M  V30 36 H 0.532472 2.649958 -0.697169 0
M  V30 END ATOM
M  V30 BEGIN BOND
M  V30 1 2 1 2
M  V30 2 1 2 3
M  V30 3 1 3 4
M  V30 4 1 4 5
M  V30 5 1 5 6
M  V30 6 1 6 7
M  V30 7 1 7 8
M  V30 8 1 8 9
M  V30 9 1 9 10
M  V30 10 1 9 11
M  V30 11 2 4 12
M  V30 12 1 12 13
M  V30 13 2 13 14
M  V30 14 1 14 15
M  V30 15 1 15 16
M  V30 16 2 16 17
M  V30 17 1 17 18
M  V30 18 2 18 19
M  V30 19 1 19 20
M  V30 20 1 19 21
M  V30 21 2 21 22
M  V30 22 1 14 2
M  V30 23 1 22 16
M  V30 24 1 11 6
M  V30 25 1 22 13
M  V30 26 1 3 23
M  V30 27 1 5 24
M  V30 28 1 5 25
M  V30 29 1 7 26
M  V30 30 1 7 27
M  V30 31 1 8 28
M  V30 32 1 8 29
M  V30 33 1 9 30 CFG=3
M  V30 34 1 10 31
M  V30 35 1 11 32
M  V30 36 1 11 33
M  V30 37 1 17 34
M  V30 38 1 18 35
M  V30 39 1 21 36
M  V30 END BOND
M  V30 END CTAB
M  END
>  <Dataset>  (35) 
ChEMBL_Kinases

>  <Ligand_Instance>  (35) 
nan

>  <PDB_ID>  (35) 
nan

>  <Standardized_SMILES>  (35) 
O=c1[nH]c(CN2CC[C@H](O)C2)nc2c1oc1ccc(Br)cc12

>  <Name>  (35) 
nan

>  <Pocket>  (35) 
nan

>  <ATP_Site>  (35) 
nan

>  <Peripheral>  (35) 
nan

>  <Num_H_Atoms_ProtBoundConf>  (35) 
nan

>  <Num_Resolved_Atoms>  (35) 
nan

>  <Num_Not_Resolved_Atoms>  (35) 
nan

$$$$
CHEMBL4126252
     RDKit          3D

  0  0  0  0  0  0  0  0  0  0999 V3000
M  V30 BEGIN CTAB
M  V30 COUNTS 53 56 0 0 0
M  V30 BEGIN ATOM
M  V30 1 C 3.024628 -0.063726 4.426685 0
M  V30 2 N 4.246309 -0.582984 3.894512 0
M  V30 3 C 4.665553 -1.843287 4.435542 0
M  V30 4 C 4.334956 -0.490485 2.462572 0
M  V30 5 C 4.435380 0.987998 2.125316 0
M  V30 6 N 4.527463 1.174979 0.711943 0
M  V30 7 C 3.368544 0.500136 0.258061 0
M  V30 8 C 3.578191 -0.644357 -0.526447 0
M  V30 9 N 2.556266 -1.381876 -1.008895 0
M  V30 10 C 1.284541 -1.000209 -0.723657 0
M  V30 11 C 1.023836 0.116585 0.043044 0
M  V30 12 C -0.309798 0.570411 0.402910 0
M  V30 13 C -0.426533 1.690930 1.198197 0
M  V30 14 C -1.708409 2.131576 1.549522 0
M  V30 15 C -2.856593 1.483853 1.127118 0
M  V30 16 N -4.177429 1.664079 1.299405 0
M  V30 17 C -4.884556 0.715830 0.651844 0
M  V30 18 C -4.017134 -0.144526 0.013015 0
M  V30 19 C -4.157921 -1.333751 -0.852948 0
M  V30 20 C -3.415335 -1.225499 -2.037105 0
M  V30 21 C -3.407837 -2.257864 -2.984338 0
M  V30 22 C -4.164676 -3.365157 -2.680855 0
M  V30 23 C -4.125655 -4.442775 -3.714997 0
M  V30 24 F -2.819490 -4.935062 -3.850635 0
M  V30 25 F -4.877298 -5.501769 -3.242261 0
M  V30 26 F -4.613670 -3.987159 -4.908824 0
M  V30 27 C -4.897954 -3.481257 -1.521284 0
M  V30 28 C -4.900171 -2.465243 -0.597368 0
M  V30 29 C -2.746788 0.346298 0.318950 0
M  V30 30 C -1.473930 -0.039437 0.007579 0
M  V30 31 N 2.086424 0.779583 0.473999 0
M  V30 32 H 2.733550 -0.502097 5.394230 0
M  V30 33 H 3.187926 1.039259 4.600580 0
M  V30 34 H 2.183719 -0.119574 3.707068 0
M  V30 35 H 4.389086 -1.920771 5.498704 0
M  V30 36 H 4.265479 -2.679238 3.824290 0
M  V30 37 H 5.783254 -1.876166 4.362632 0
M  V30 38 H 5.188457 -1.045104 2.051899 0
M  V30 39 H 3.405061 -0.871732 1.956636 0
M  V30 40 H 3.537554 1.477984 2.588199 0
M  V30 41 H 5.318598 1.377189 2.678598 0
M  V30 42 H 5.261385 1.678438 0.157904 0
M  V30 43 H 4.599975 -0.970654 -0.770208 0
M  V30 44 H 0.499608 -1.596363 -1.115186 0
M  V30 45 H 0.393557 2.279927 1.586939 0
M  V30 46 H -1.900567 3.005935 2.172266 0
M  V30 47 H -4.604247 2.428937 1.857469 0
M  V30 48 H -5.947456 0.538380 0.563299 0
M  V30 49 H -2.809138 -0.349171 -2.311907 0
M  V30 50 H -2.817116 -2.135956 -3.891564 0
M  V30 51 H -5.479105 -4.366352 -1.324236 0
M  V30 52 H -5.439827 -2.460898 0.336609 0
M  V30 53 H -1.314596 -0.921793 -0.607218 0
M  V30 END ATOM
M  V30 BEGIN BOND
M  V30 1 1 1 2
M  V30 2 1 2 3
M  V30 3 1 2 4
M  V30 4 1 4 5
M  V30 5 1 5 6
M  V30 6 1 6 7
M  V30 7 2 7 8
M  V30 8 1 8 9
M  V30 9 2 9 10
M  V30 10 1 10 11
M  V30 11 1 11 12
M  V30 12 2 12 13
M  V30 13 1 13 14
M  V30 14 2 14 15
M  V30 15 1 15 16
M  V30 16 1 16 17
M  V30 17 2 17 18
M  V30 18 1 18 19
M  V30 19 2 19 20
M  V30 20 1 20 21
M  V30 21 2 21 22
M  V30 22 1 22 23
M  V30 23 1 23 24
M  V30 24 1 23 25
M  V30 25 1 23 26
M  V30 26 1 22 27
M  V30 27 2 27 28
M  V30 28 1 18 29
M  V30 29 2 29 30
M  V30 30 2 11 31
M  V30 31 1 31 7
M  V30 32 1 30 12
M  V30 33 1 29 15
M  V30 34 1 28 19
M  V30 35 1 1 32
M  V30 36 1 1 33
M  V30 37 1 1 34
M  V30 38 1 3 35
M  V30 39 1 3 36
M  V30 40 1 3 37
M  V30 41 1 4 38
M  V30 42 1 4 39
M  V30 43 1 5 40
M  V30 44 1 5 41
M  V30 45 1 6 42
M  V30 46 1 8 43
M  V30 47 1 10 44
M  V30 48 1 13 45
M  V30 49 1 14 46
M  V30 50 1 16 47
M  V30 51 1 17 48
M  V30 52 1 20 49
M  V30 53 1 21 50
M  V30 54 1 27 51
M  V30 55 1 28 52
M  V30 56 1 30 53
M  V30 END BOND
M  V30 END CTAB
M  END
>  <Dataset>  (36) 
ChEMBL_Kinases

>  <Ligand_Instance>  (36) 
nan

>  <PDB_ID>  (36) 
nan

>  <Standardized_SMILES>  (36) 
CN(C)CCNc1cncc(-c2ccc3[nH]cc(-c4ccc(C(F)(F)F)cc4)c3c2)n1

>  <Name>  (36) 
nan

>  <Pocket>  (36) 
nan

>  <ATP_Site>  (36) 
nan

>  <Peripheral>  (36) 
nan

>  <Num_H_Atoms_ProtBoundConf>  (36) 
nan

>  <Num_Resolved_Atoms>  (36) 
nan

>  <Num_Not_Resolved_Atoms>  (36) 
nan

$$$$
CHEMBL4792259
     RDKit          3D

  0  0  0  0  0  0  0  0  0  0999 V3000
M  V30 BEGIN CTAB
M  V30 COUNTS 51 56 0 0 0
M  V30 BEGIN ATOM
M  V30 1 F 3.499834 -5.312985 1.152372 0
M  V30 2 C 2.905582 -4.921883 -0.027917 0
M  V30 3 F 2.252303 -5.971661 -0.640650 0
M  V30 4 C 3.855618 -4.241460 -0.983633 0
M  V30 5 C 3.807513 -2.748196 -0.658746 0
M  V30 6 N 2.784616 -2.677200 0.288868 0
M  V30 7 C 2.870401 -1.809040 1.361867 0
M  V30 8 C 2.985740 -0.353616 1.024063 0
M  V30 9 C 4.190762 0.305851 0.834079 0
M  V30 10 N 4.226919 1.617693 0.531736 0
M  V30 11 C 3.101596 2.348678 0.399932 0
M  V30 12 C 1.871008 1.756147 0.575364 0
M  V30 13 C 0.593601 2.453820 0.456075 0
M  V30 14 C 0.492827 3.795855 0.151197 0
M  V30 15 C -0.693152 4.484246 0.031117 0
M  V30 16 C -1.880531 3.802057 0.225742 0
M  V30 17 N -3.190956 4.107178 0.197647 0
M  V30 18 N -3.886165 3.007102 0.472464 0
M  V30 19 C -3.045146 1.963938 0.685031 0
M  V30 20 C -3.385325 0.584644 1.012601 0
M  V30 21 C -4.649261 0.066076 1.172171 0
M  V30 22 C -4.573036 -1.288638 1.480766 0
M  V30 23 C -5.441008 -2.327583 1.747126 0
M  V30 24 C -4.959243 -3.601381 2.024151 0
M  V30 25 C -3.586704 -3.775504 2.020140 0
M  V30 26 N -2.718226 -2.786268 1.765175 0
M  V30 27 C -3.203653 -1.545586 1.495872 0
M  V30 28 N -2.512756 -0.429693 1.217522 0
M  V30 29 C -1.765793 2.460561 0.530055 0
M  V30 30 N -0.586799 1.819392 0.639515 0
M  V30 31 C 1.847354 0.418453 0.883246 0
M  V30 32 C 1.928829 -3.772357 0.260155 0
M  V30 33 H 4.872647 -4.661756 -0.877148 0
M  V30 34 H 3.476152 -4.359549 -2.001870 0
M  V30 35 H 3.720576 -2.117440 -1.553606 0
M  V30 36 H 4.790166 -2.516786 -0.154382 0
M  V30 37 H 1.984667 -1.945275 2.019687 0
M  V30 38 H 3.752458 -2.074695 1.991594 0
M  V30 39 H 5.084139 -0.315828 0.948213 0
M  V30 40 H 3.143143 3.386990 0.160204 0
M  V30 41 H 1.369457 4.375934 -0.010039 0
M  V30 42 H -0.725123 5.539047 -0.210023 0
M  V30 43 H -3.511540 5.077604 -0.014873 0
M  V30 44 H -5.608653 0.567927 1.087699 0
M  V30 45 H -6.494020 -2.100762 1.728798 0
M  V30 46 H -5.642579 -4.414421 2.232732 0
M  V30 47 H -3.154367 -4.755409 2.231272 0
M  V30 48 H -1.484217 -0.322740 1.159997 0
M  V30 49 H 0.902436 -0.079689 1.027860 0
M  V30 50 H 1.203837 -3.822179 -0.573852 0
M  V30 51 H 1.431774 -4.016321 1.207293 0
M  V30 END ATOM
M  V30 BEGIN BOND
M  V30 1 1 1 2
M  V30 2 1 2 3
M  V30 3 1 2 4
M  V30 4 1 4 5
M  V30 5 1 5 6
M  V30 6 1 6 7
M  V30 7 1 7 8
M  V30 8 2 8 9
M  V30 9 1 9 10
M  V30 10 2 10 11
M  V30 11 1 11 12
M  V30 12 1 12 13
M  V30 13 2 13 14
M  V30 14 1 14 15
M  V30 15 2 15 16
M  V30 16 1 16 17
M  V30 17 1 17 18
M  V30 18 2 18 19
M  V30 19 1 19 20
M  V30 20 2 20 21
M  V30 21 1 21 22
M  V30 22 2 22 23
M  V30 23 1 23 24
M  V30 24 2 24 25
M  V30 25 1 25 26
M  V30 26 2 26 27
M  V30 27 1 27 28
M  V30 28 1 19 29
M  V30 29 2 29 30
M  V30 30 2 12 31
M  V30 31 1 6 32
M  V30 32 1 32 2
M  V30 33 1 31 8
M  V30 34 1 30 13
M  V30 35 1 29 16
M  V30 36 1 28 20
M  V30 37 1 27 22
M  V30 38 1 4 33
M  V30 39 1 4 34
M  V30 40 1 5 35
M  V30 41 1 5 36
M  V30 42 1 7 37
M  V30 43 1 7 38
M  V30 44 1 9 39
M  V30 45 1 11 40
M  V30 46 1 14 41
M  V30 47 1 15 42
M  V30 48 1 17 43
M  V30 49 1 21 44
M  V30 50 1 23 45
M  V30 51 1 24 46
M  V30 52 1 25 47
M  V30 53 1 28 48
M  V30 54 1 31 49
M  V30 55 1 32 50
M  V30 56 1 32 51
M  V30 END BOND
M  V30 END CTAB
M  END
>  <Dataset>  (37) 
ChEMBL_Kinases

>  <Ligand_Instance>  (37) 
nan

>  <PDB_ID>  (37) 
nan

>  <Standardized_SMILES>  (37) 
FC1(F)CCN(Cc2cncc(-c3ccc4[nH]nc(-c5cc6cccnc6[nH]5)c4n3)c2)C1

>  <Name>  (37) 
nan

>  <Pocket>  (37) 
nan

>  <ATP_Site>  (37) 
nan

>  <Peripheral>  (37) 
nan

>  <Num_H_Atoms_ProtBoundConf>  (37) 
nan

>  <Num_Resolved_Atoms>  (37) 
nan

>  <Num_Not_Resolved_Atoms>  (37) 
nan

$$$$
CHEMBL4792282
     RDKit          3D

  0  0  0  0  0  0  0  0  0  0999 V3000
M  V30 BEGIN CTAB
M  V30 COUNTS 46 49 0 0 0
M  V30 BEGIN ATOM
M  V30 1 N -0.786221 -4.344410 1.104962 0
M  V30 2 C 0.220616 -5.270065 0.720106 0
M  V30 3 O 0.219837 -6.420139 1.194351 0
M  V30 4 C 1.247762 -4.875861 -0.223986 0
M  V30 5 N 2.240627 -5.671252 -0.659941 0
M  V30 6 N 3.014936 -5.020543 -1.516304 0
M  V30 7 C 2.556818 -3.745493 -1.684152 0
M  V30 8 C 3.023210 -2.706599 -2.463239 0
M  V30 9 C 2.306691 -1.504833 -2.403946 0
M  V30 10 C 1.195784 -1.426956 -1.585940 0
M  V30 11 C 0.420857 -0.187186 -1.502046 0
M  V30 12 C 0.257347 0.707583 -2.548513 0
M  V30 13 N -0.466561 1.833878 -2.410010 0
M  V30 14 C -1.065817 2.142455 -1.245210 0
M  V30 15 C -0.962597 1.313253 -0.139036 0
M  V30 16 C -1.568960 1.535952 1.193419 0
M  V30 17 N -0.789542 2.257066 2.099292 0
M  V30 18 C 0.477117 1.801173 2.495047 0
M  V30 19 C 0.253994 0.605728 3.423486 0
M  V30 20 C -0.580431 1.130258 4.554914 0
M  V30 21 C -0.869147 2.595242 4.451909 0
M  V30 22 C -1.411122 3.025716 3.108912 0
M  V30 23 C -0.206234 0.159871 -0.323785 0
M  V30 24 C 0.740274 -2.478208 -0.810105 0
M  V30 25 C 1.447082 -3.670522 -0.866044 0
M  V30 26 H -1.489654 -3.654659 1.435139 0
M  V30 27 H -1.627636 -4.212025 0.513317 0
M  V30 28 H 3.860329 -5.447490 -1.988551 0
M  V30 29 H 3.901435 -2.816139 -3.090080 0
M  V30 30 H 2.645986 -0.672448 -3.001828 0
M  V30 31 H 0.744949 0.448419 -3.483527 0
M  V30 32 H -1.658072 3.038619 -1.090727 0
M  V30 33 H -2.537244 2.051401 1.042520 0
M  V30 34 H -1.823152 0.538713 1.609222 0
M  V30 35 H 0.988433 2.570432 3.108854 0
M  V30 36 H 1.185361 1.553919 1.687896 0
M  V30 37 H 1.217910 0.153673 3.732125 0
M  V30 38 H -0.371251 -0.134902 2.871523 0
M  V30 39 H -0.011331 0.980943 5.495123 0
M  V30 40 H -1.560597 0.615093 4.678407 0
M  V30 41 H 0.014151 3.186947 4.782500 0
M  V30 42 H -1.668594 2.809662 5.199534 0
M  V30 43 H -1.113457 4.105531 3.003619 0
M  V30 44 H -2.519460 3.024108 3.081677 0
M  V30 45 H -0.091491 -0.524020 0.505669 0
M  V30 46 H -0.114639 -2.448354 -0.168652 0
M  V30 END ATOM
M  V30 BEGIN BOND
M  V30 1 1 1 2
M  V30 2 2 2 3
M  V30 3 1 2 4
M  V30 4 2 4 5
M  V30 5 1 5 6
M  V30 6 1 6 7
M  V30 7 2 7 8
M  V30 8 1 8 9
M  V30 9 2 9 10
M  V30 10 1 10 11
M  V30 11 2 11 12
M  V30 12 1 12 13
M  V30 13 2 13 14
M  V30 14 1 14 15
M  V30 15 1 15 16
M  V30 16 1 16 17
M  V30 17 1 17 18
M  V30 18 1 18 19
M  V30 19 1 19 20
M  V30 20 1 20 21
M  V30 21 1 21 22
M  V30 22 2 15 23
M  V30 23 1 10 24
M  V30 24 2 24 25
M  V30 25 1 25 4
M  V30 26 1 25 7
M  V30 27 1 23 11
M  V30 28 1 22 17
M  V30 29 1 1 26
M  V30 30 1 1 27
M  V30 31 1 6 28
M  V30 32 1 8 29
M  V30 33 1 9 30
M  V30 34 1 12 31
M  V30 35 1 14 32
M  V30 36 1 16 33
M  V30 37 1 16 34
M  V30 38 1 18 35
M  V30 39 1 18 36
M  V30 40 1 19 37
M  V30 41 1 19 38
M  V30 42 1 20 39
M  V30 43 1 20 40
M  V30 44 1 21 41
M  V30 45 1 21 42
M  V30 46 1 22 43
M  V30 47 1 22 44
M  V30 48 1 23 45
M  V30 49 1 24 46
M  V30 END BOND
M  V30 END CTAB
M  END
>  <Dataset>  (38) 
ChEMBL_Kinases

>  <Ligand_Instance>  (38) 
nan

>  <PDB_ID>  (38) 
nan

>  <Standardized_SMILES>  (38) 
NC(=O)c1n[nH]c2ccc(-c3cncc(CN4CCCCC4)c3)cc12

>  <Name>  (38) 
nan

>  <Pocket>  (38) 
nan

>  <ATP_Site>  (38) 
nan

>  <Peripheral>  (38) 
nan

>  <Num_H_Atoms_ProtBoundConf>  (38) 
nan

>  <Num_Resolved_Atoms>  (38) 
nan

>  <Num_Not_Resolved_Atoms>  (38) 
nan

$$$$
CHEMBL1615025
     RDKit          3D

  0  0  0  0  0  0  0  0  0  0999 V3000
M  V30 BEGIN CTAB
M  V30 COUNTS 43 45 0 0 0
M  V30 BEGIN ATOM
M  V30 1 C 1.463877 -4.970272 1.477936 0
M  V30 2 N 1.626076 -3.576526 1.851106 0
M  V30 3 C 2.750283 -3.074835 2.412599 0
M  V30 4 O 3.718020 -3.862725 2.626281 0
M  V30 5 C 2.852429 -1.739765 2.748697 0
M  V30 6 F 3.966456 -1.218391 3.310445 0
M  V30 7 C 1.788461 -0.896879 2.508608 0
M  V30 8 N 1.781092 0.505694 2.815738 0
M  V30 9 C 2.254880 1.352584 1.753888 0
M  V30 10 C 2.669800 0.798432 0.557922 0
M  V30 11 C 3.141583 1.554702 -0.517282 0
M  V30 12 C 3.185876 2.926966 -0.351036 0
M  V30 13 I 3.900580 4.089829 -1.976217 0
M  V30 14 C 2.772638 3.499420 0.844295 0
M  V30 15 C 2.309964 2.734435 1.893953 0
M  V30 16 F 1.916911 3.321676 3.039706 0
M  V30 17 C 0.646211 -1.369605 1.946289 0
M  V30 18 C -0.457258 -0.556223 1.683863 0
M  V30 19 O -0.424402 0.660341 1.965988 0
M  V30 20 N -1.582360 -1.040289 1.125928 0
M  V30 21 C -2.730233 -0.213772 0.848625 0
M  V30 22 C -2.698988 0.405259 -0.524429 0 CFG=1
M  V30 23 O -1.579390 1.218415 -0.698294 0
M  V30 24 C -2.838866 -0.612934 -1.625617 0
M  V30 25 O -3.955261 -1.437271 -1.468788 0
M  V30 26 C -1.585867 -2.373968 0.829673 0
M  V30 27 N -0.547179 -3.194351 1.064588 0
M  V30 28 C 0.591287 -2.718727 1.626012 0
M  V30 29 H 0.758487 -5.455233 2.196193 0
M  V30 30 H 2.426975 -5.492668 1.574905 0
M  V30 31 H 1.031524 -5.079498 0.464464 0
M  V30 32 H 1.479253 0.982421 3.700842 0
M  V30 33 H 2.653222 -0.279610 0.379803 0
M  V30 34 H 3.457875 1.074566 -1.440804 0
M  V30 35 H 2.844719 4.572770 0.876693 0
M  V30 36 H -2.906747 0.582562 1.597815 0
M  V30 37 H -3.612638 -0.883672 0.910525 0
M  V30 38 H -3.580418 1.080746 -0.587982 0
M  V30 39 H -1.772818 2.111720 -0.317786 0
M  V30 40 H -3.007269 -0.035974 -2.568225 0
M  V30 41 H -1.954637 -1.282077 -1.697950 0
M  V30 42 H -4.315633 -1.661368 -2.348300 0
M  V30 43 H -2.463554 -2.825287 0.378118 0
M  V30 END ATOM
M  V30 BEGIN BOND
M  V30 1 1 1 2
M  V30 2 1 2 3
M  V30 3 2 3 4
M  V30 4 1 3 5
M  V30 5 1 5 6
M  V30 6 2 5 7
M  V30 7 1 7 8
M  V30 8 1 8 9
M  V30 9 2 9 10
M  V30 10 1 10 11
M  V30 11 2 11 12
M  V30 12 1 12 13
M  V30 13 1 12 14
M  V30 14 2 14 15
M  V30 15 1 15 16
M  V30 16 1 7 17
M  V30 17 1 17 18
M  V30 18 2 18 19
M  V30 19 1 18 20
M  V30 20 1 20 21
M  V30 21 1 21 22
M  V30 22 1 22 23
M  V30 23 1 22 24
M  V30 24 1 24 25
M  V30 25 1 20 26
M  V30 26 2 26 27
M  V30 27 1 27 28
M  V30 28 1 28 2
M  V30 29 1 15 9
M  V30 30 2 28 17
M  V30 31 1 1 29
M  V30 32 1 1 30
M  V30 33 1 1 31
M  V30 34 1 8 32
M  V30 35 1 10 33
M  V30 36 1 11 34
M  V30 37 1 14 35
M  V30 38 1 21 36
M  V30 39 1 21 37
M  V30 40 1 22 38 CFG=1
M  V30 41 1 23 39
M  V30 42 1 24 40
M  V30 43 1 24 41
M  V30 44 1 25 42
M  V30 45 1 26 43
M  V30 END BOND
M  V30 END CTAB
M  END
>  <Dataset>  (39) 
ChEMBL_Kinases

>  <Ligand_Instance>  (39) 
nan

>  <PDB_ID>  (39) 
nan

>  <Standardized_SMILES>  (39) 
Cn1c(=O)c(F)c(Nc2ccc(I)cc2F)c2c(=O)n(C[C@@H](O)CO)cnc21

>  <Name>  (39) 
TAK-733

>  <Pocket>  (39) 
nan

>  <ATP_Site>  (39) 
nan

>  <Peripheral>  (39) 
nan

>  <Num_H_Atoms_ProtBoundConf>  (39) 
nan

>  <Num_Resolved_Atoms>  (39) 
nan

>  <Num_Not_Resolved_Atoms>  (39) 
nan

$$$$
CHEMBL4127885
     RDKit          3D

  0  0  0  0  0  0  0  0  0  0999 V3000
M  V30 BEGIN CTAB
M  V30 COUNTS 27 29 0 0 0
M  V30 BEGIN ATOM
M  V30 1 N -0.590266 0.552162 3.742153 0
M  V30 2 C 0.777641 0.278781 3.461633 0
M  V30 3 O 1.573571 0.451365 4.420395 0
M  V30 4 C 1.294583 -0.173615 2.174687 0
M  V30 5 C 2.656810 -0.380643 2.115809 0
M  V30 6 O 3.514057 -0.182310 3.190545 0
M  V30 7 C 3.178857 -0.814914 0.892454 0
M  V30 8 C 2.364582 -1.031639 -0.224244 0
M  V30 9 O 2.880232 -1.456460 -1.418662 0
M  V30 10 C 1.031196 -0.799985 -0.068460 0
M  V30 11 C 0.441031 -0.369978 1.108390 0
M  V30 12 O -0.831864 -0.249060 0.917997 0
M  V30 13 C -1.169318 -0.566411 -0.314572 0
M  V30 14 C -2.436890 -0.550264 -0.856925 0
M  V30 15 N -3.571825 -0.165329 -0.089231 0
M  V30 16 N -2.508448 -0.924886 -2.158016 0
M  V30 17 C -1.390854 -1.283911 -2.846313 0
M  V30 18 N -0.154093 -1.285020 -2.267601 0
M  V30 19 C -0.007524 -0.921322 -0.968130 0
M  V30 20 H -0.910275 1.382099 4.274270 0
M  V30 21 H -1.217841 -0.200640 3.336002 0
M  V30 22 H 3.711963 -0.901646 3.871636 0
M  V30 23 H 4.254412 -0.996385 0.785052 0
M  V30 24 H 2.363320 -1.953373 -2.103754 0
M  V30 25 H -4.528005 -0.508085 -0.316653 0
M  V30 26 H -3.371529 0.485355 0.716996 0
M  V30 27 H -1.507863 -1.578250 -3.897223 0
M  V30 END ATOM
M  V30 BEGIN BOND
M  V30 1 1 1 2
M  V30 2 2 2 3
M  V30 3 1 2 4
M  V30 4 2 4 5
M  V30 5 1 5 6
M  V30 6 1 5 7
M  V30 7 2 7 8
M  V30 8 1 8 9
M  V30 9 1 8 10
M  V30 10 2 10 11
M  V30 11 1 11 12
M  V30 12 1 12 13
M  V30 13 2 13 14
M  V30 14 1 14 15
M  V30 15 1 14 16
M  V30 16 2 16 17
M  V30 17 1 17 18
M  V30 18 2 18 19
M  V30 19 1 11 4
M  V30 20 1 19 13
M  V30 21 1 19 10
M  V30 22 1 1 20
M  V30 23 1 1 21
M  V30 24 1 6 22
M  V30 25 1 7 23
M  V30 26 1 9 24
M  V30 27 1 15 25
M  V30 28 1 15 26
M  V30 29 1 17 27
M  V30 END BOND
M  V30 END CTAB
M  END
>  <Dataset>  (40) 
ChEMBL_Kinases

>  <Ligand_Instance>  (40) 
nan

>  <PDB_ID>  (40) 
nan

>  <Standardized_SMILES>  (40) 
NC(=O)c1c(O)cc(O)c2c1oc1c(N)ncnc12

>  <Name>  (40) 
nan

>  <Pocket>  (40) 
nan

>  <ATP_Site>  (40) 
nan

>  <Peripheral>  (40) 
nan

>  <Num_H_Atoms_ProtBoundConf>  (40) 
nan

>  <Num_Resolved_Atoms>  (40) 
nan

>  <Num_Not_Resolved_Atoms>  (40) 
nan

$$$$
CHEMBL4127797
     RDKit          3D

  0  0  0  0  0  0  0  0  0  0999 V3000
M  V30 BEGIN CTAB
M  V30 COUNTS 49 51 0 0 0
M  V30 BEGIN ATOM
M  V30 1 C 5.600712 -4.824765 -0.174399 0
M  V30 2 O 4.855480 -3.641383 -0.174588 0
M  V30 3 C 5.045840 -2.652228 0.759227 0
M  V30 4 C 5.965449 -2.695745 1.783843 0
M  V30 5 C 6.131007 -1.675814 2.711424 0
M  V30 6 C 5.337087 -0.545026 2.617295 0
M  V30 7 C 4.388250 -0.450495 1.595998 0
M  V30 8 C 4.281746 -1.506405 0.710221 0
M  V30 9 N 3.305220 -1.380427 -0.320077 0
M  V30 10 C 2.375778 -0.325092 -0.624529 0
M  V30 11 N 2.666944 0.706945 -1.454936 0
M  V30 12 C 1.745110 1.659374 -1.692808 0
M  V30 13 C 0.507745 1.593126 -1.098534 0
M  V30 14 F -0.484485 2.499573 -1.273923 0
M  V30 15 C 0.194091 0.549169 -0.250047 0
M  V30 16 C -1.056579 0.317951 0.462262 0
M  V30 17 C -1.066590 -0.050933 1.788619 0
M  V30 18 C -2.270468 -0.257645 2.419053 0
M  V30 19 C -3.414269 -0.080496 1.673859 0
M  V30 20 C -4.645613 -0.295943 2.411755 0
M  V30 21 N -4.711108 -0.689200 3.778157 0
M  V30 22 O -5.896960 -0.290215 2.380510 0
M  V30 23 C -3.499497 0.284618 0.348939 0
M  V30 24 C -4.731094 0.446112 -0.428268 0
M  V30 25 C -5.464823 1.746887 -0.174492 0
M  V30 26 C -5.627481 -0.762041 -0.463362 0
M  V30 27 C -2.231165 0.475714 -0.217526 0
M  V30 28 N 1.159995 -0.379637 -0.047787 0
M  V30 29 H 6.662663 -4.606127 0.094338 0
M  V30 30 H 5.596622 -5.297360 -1.193429 0
M  V30 31 H 5.185216 -5.543480 0.577209 0
M  V30 32 H 6.598940 -3.588145 1.866100 0
M  V30 33 H 6.874571 -1.755241 3.507907 0
M  V30 34 H 5.486988 0.230009 3.349829 0
M  V30 35 H 3.767334 0.430869 1.520211 0
M  V30 36 H 3.158457 -2.130525 -1.030816 0
M  V30 37 H 1.950955 2.494958 -2.351878 0
M  V30 38 H -0.126637 -0.169138 2.302423 0
M  V30 39 H -2.272619 -0.545001 3.452825 0
M  V30 40 H -4.725973 -0.080852 4.650330 0
M  V30 41 H -4.757093 -1.653244 4.226446 0
M  V30 42 H -4.380551 0.560078 -1.510424 0
M  V30 43 H -6.408547 1.566408 0.417731 0
M  V30 44 H -4.814879 2.492655 0.327088 0
M  V30 45 H -5.831875 2.226673 -1.105184 0
M  V30 46 H -5.244984 -1.632679 0.109505 0
M  V30 47 H -6.678519 -0.487925 -0.214511 0
M  V30 48 H -5.715088 -1.166892 -1.517822 0
M  V30 49 H -2.192403 0.771527 -1.278162 0
M  V30 END ATOM
M  V30 BEGIN BOND
M  V30 1 1 1 2
M  V30 2 1 2 3
M  V30 3 2 3 4
M  V30 4 1 4 5
M  V30 5 2 5 6
M  V30 6 1 6 7
M  V30 7 2 7 8
M  V30 8 1 8 9
M  V30 9 1 9 10
M  V30 10 2 10 11
M  V30 11 1 11 12
M  V30 12 2 12 13
M  V30 13 1 13 14
M  V30 14 1 13 15
M  V30 15 1 15 16
M  V30 16 2 16 17
M  V30 17 1 17 18
M  V30 18 2 18 19
M  V30 19 1 19 20
M  V30 20 1 20 21
M  V30 21 2 20 22
M  V30 22 1 19 23
M  V30 23 1 23 24
M  V30 24 1 24 25
M  V30 25 1 24 26
M  V30 26 2 23 27
M  V30 27 2 15 28
M  V30 28 1 8 3
M  V30 29 1 28 10
M  V30 30 1 27 16
M  V30 31 1 1 29
M  V30 32 1 1 30
M  V30 33 1 1 31
M  V30 34 1 4 32
M  V30 35 1 5 33
M  V30 36 1 6 34
M  V30 37 1 7 35
M  V30 38 1 9 36
M  V30 39 1 12 37
M  V30 40 1 17 38
M  V30 41 1 18 39
M  V30 42 1 21 40
M  V30 43 1 21 41
M  V30 44 1 24 42
M  V30 45 1 25 43
M  V30 46 1 25 44
M  V30 47 1 25 45
M  V30 48 1 26 46
M  V30 49 1 26 47
M  V30 50 1 26 48
M  V30 51 1 27 49
M  V30 END BOND
M  V30 END CTAB
M  END
>  <Dataset>  (41) 
ChEMBL_Kinases

>  <Ligand_Instance>  (41) 
nan

>  <PDB_ID>  (41) 
nan

>  <Standardized_SMILES>  (41) 
COc1ccccc1Nc1ncc(F)c(-c2ccc(C(N)=O)c(C(C)C)c2)n1

>  <Name>  (41) 
nan

>  <Pocket>  (41) 
nan

>  <ATP_Site>  (41) 
nan

>  <Peripheral>  (41) 
nan

>  <Num_H_Atoms_ProtBoundConf>  (41) 
nan

>  <Num_Resolved_Atoms>  (41) 
nan

>  <Num_Not_Resolved_Atoms>  (41) 
nan

$$$$
CHEMBL1604618
     RDKit          3D

  0  0  0  0  0  0  0  0  0  0999 V3000
M  V30 BEGIN CTAB
M  V30 COUNTS 42 45 0 0 0
M  V30 BEGIN ATOM
M  V30 1 C -1.917505 -6.198658 0.281024 0
M  V30 2 C -1.753444 -4.922230 -0.490276 0
M  V30 3 C -2.796872 -4.136840 -0.967643 0
M  V30 4 C -2.279241 -3.033482 -1.633452 0
M  V30 5 C -0.908829 -3.218160 -1.518470 0
M  V30 6 C 0.187952 -2.364465 -2.031938 0
M  V30 7 N 0.571891 -1.365265 -1.058462 0
M  V30 8 C 1.617717 -0.465974 -1.407488 0
M  V30 9 N 2.230423 -0.540838 -2.602702 0
M  V30 10 C 3.211564 0.241313 -3.031415 0
M  V30 11 N 3.660870 1.215850 -2.212904 0
M  V30 12 C 3.121086 1.391547 -0.979247 0
M  V30 13 C 3.580329 2.387618 -0.142632 0
M  V30 14 C 3.028686 2.561994 1.109638 0
M  V30 15 C 1.996065 1.698910 1.495167 0
M  V30 16 C 1.372451 1.846468 2.829290 0
M  V30 17 C 1.735223 2.797135 3.760243 0
M  V30 18 C 0.908662 2.590037 4.865382 0
M  V30 19 C 0.093279 1.525776 4.539265 0
M  V30 20 C -0.991877 0.862908 5.346233 0
M  V30 21 O -2.171508 1.531736 5.046249 0
M  V30 22 O 0.405819 1.124762 3.331978 0
M  V30 23 C 1.549605 0.707955 0.644606 0
M  V30 24 C 2.103800 0.541406 -0.599243 0
M  V30 25 O -0.641669 -4.333968 -0.843225 0
M  V30 26 H -2.802204 -6.707755 -0.161100 0
M  V30 27 H -0.999266 -6.821906 0.171308 0
M  V30 28 H -2.151023 -5.999629 1.342536 0
M  V30 29 H -3.868866 -4.309159 -0.866067 0
M  V30 30 H -2.756217 -2.202294 -2.137128 0
M  V30 31 H -0.202588 -1.809376 -2.925833 0
M  V30 32 H 1.048030 -2.956016 -2.382226 0
M  V30 33 H 0.059971 -1.368331 -0.167877 0
M  V30 34 H 3.620496 0.080559 -4.011541 0
M  V30 35 H 4.387812 3.013222 -0.525289 0
M  V30 36 H 3.389679 3.342759 1.763644 0
M  V30 37 H 2.492753 3.564308 3.698294 0
M  V30 38 H 0.871622 3.122630 5.807338 0
M  V30 39 H -0.727248 0.940282 6.419443 0
M  V30 40 H -1.078918 -0.198425 5.110997 0
M  V30 41 H -2.098779 1.980611 4.164957 0
M  V30 42 H 0.765161 0.090439 1.000278 0
M  V30 END ATOM
M  V30 BEGIN BOND
M  V30 1 1 1 2
M  V30 2 2 2 3
M  V30 3 1 3 4
M  V30 4 2 4 5
M  V30 5 1 5 6
M  V30 6 1 6 7
M  V30 7 1 7 8
M  V30 8 2 8 9
M  V30 9 1 9 10
M  V30 10 2 10 11
M  V30 11 1 11 12
M  V30 12 2 12 13
M  V30 13 1 13 14
M  V30 14 2 14 15
M  V30 15 1 15 16
M  V30 16 2 16 17
M  V30 17 1 17 18
M  V30 18 2 18 19
M  V30 19 1 19 20
M  V30 20 1 20 21
M  V30 21 1 19 22
M  V30 22 1 15 23
M  V30 23 2 23 24
M  V30 24 1 5 25
M  V30 25 1 25 2
M  V30 26 1 24 8
M  V30 27 1 24 12
M  V30 28 1 22 16
M  V30 29 1 1 26
M  V30 30 1 1 27
M  V30 31 1 1 28
M  V30 32 1 3 29
M  V30 33 1 4 30
M  V30 34 1 6 31
M  V30 35 1 6 32
M  V30 36 1 7 33
M  V30 37 1 10 34
M  V30 38 1 13 35
M  V30 39 1 14 36
M  V30 40 1 17 37
M  V30 41 1 18 38
M  V30 42 1 20 39
M  V30 43 1 20 40
M  V30 44 1 21 41
M  V30 45 1 23 42
M  V30 END BOND
M  V30 END CTAB
M  END
>  <Dataset>  (42) 
ChEMBL_Kinases

>  <Ligand_Instance>  (42) 
nan

>  <PDB_ID>  (42) 
nan

>  <Standardized_SMILES>  (42) 
Cc1ccc(CNc2ncnc3ccc(-c4ccc(CO)o4)cc23)o1

>  <Name>  (42) 
nan

>  <Pocket>  (42) 
nan

>  <ATP_Site>  (42) 
nan

>  <Peripheral>  (42) 
nan

>  <Num_H_Atoms_ProtBoundConf>  (42) 
nan

>  <Num_Resolved_Atoms>  (42) 
nan

>  <Num_Not_Resolved_Atoms>  (42) 
nan

$$$$
CHEMBL4790036
     RDKit          3D

  0  0  0  0  0  0  0  0  0  0999 V3000
M  V30 BEGIN CTAB
M  V30 COUNTS 56 62 0 0 0
M  V30 BEGIN ATOM
M  V30 1 O 2.053036 -2.655897 -0.663938 0
M  V30 2 C 2.993451 -3.407856 -0.380765 0
M  V30 3 N 4.020852 -2.915634 0.440517 0
M  V30 4 C 4.184677 -1.649388 1.034177 0
M  V30 5 C 5.292719 -1.392369 1.813043 0
M  V30 6 N 5.526339 -0.217933 2.413455 0
M  V30 7 C 4.676455 0.815118 2.295072 0
M  V30 8 C 3.540922 0.641822 1.531945 0
M  V30 9 C 2.586613 1.741613 1.375384 0
M  V30 10 C 3.059691 3.048671 1.380495 0
M  V30 11 N 2.122878 4.016322 1.230695 0
M  V30 12 C 0.815999 3.758827 1.084870 0
M  V30 13 N -0.284607 4.507249 0.923774 0
M  V30 14 N -1.352687 3.749768 0.825851 0
M  V30 15 C -1.039928 2.427755 0.915300 0
M  V30 16 C -2.003375 1.344683 0.842286 0
M  V30 17 N -3.305099 1.564408 0.676250 0
M  V30 18 C -3.981976 0.420588 0.639541 0
M  V30 19 C -5.345825 0.152375 0.485048 0
M  V30 20 C -6.314648 1.233321 0.325724 0
M  V30 21 C -7.532343 1.346830 0.961342 0
M  V30 22 C -8.117689 2.522852 0.514220 0
M  V30 23 O -7.291932 3.075029 -0.339032 0
M  V30 24 C -6.211736 2.329521 -0.470134 0
M  V30 25 C -5.710255 -1.177937 0.493261 0
M  V30 26 N -4.820749 -2.191219 0.640769 0
M  V30 27 C -3.490910 -1.936964 0.791694 0
M  V30 28 C -3.091534 -0.619060 0.788150 0
M  V30 29 N -1.921997 0.014513 0.904569 0
M  V30 30 C 0.322082 2.473836 1.076421 0
M  V30 31 C 1.243322 1.476112 1.225530 0
M  V30 32 C 3.343263 -0.570330 0.938858 0
M  V30 33 C 2.942386 -4.750696 -0.935246 0
M  V30 34 C 1.868774 -5.098081 -1.728271 0
M  V30 35 C 1.711758 -6.355497 -2.314337 0
M  V30 36 C 2.698078 -7.261839 -2.063331 0
M  V30 37 C 3.802654 -7.006552 -1.287240 0
M  V30 38 C 3.881238 -5.741417 -0.746137 0
M  V30 39 H 4.763627 -3.635896 0.615044 0
M  V30 40 H 6.076245 -2.132785 2.004657 0
M  V30 41 H 4.888585 1.751822 2.789768 0
M  V30 42 H 4.095036 3.271573 1.495350 0
M  V30 43 H -0.343131 5.547918 0.875787 0
M  V30 44 H -7.921015 0.615539 1.679222 0
M  V30 45 H -9.079206 2.819166 0.877346 0
M  V30 46 H -5.395715 2.609240 -1.134902 0
M  V30 47 H -6.762947 -1.450671 0.376670 0
M  V30 48 H -2.731221 -2.696977 0.913701 0
M  V30 49 H -1.053866 -0.535963 1.031300 0
M  V30 50 H 0.955895 0.460235 1.231132 0
M  V30 51 H 2.446397 -0.658222 0.355236 0
M  V30 52 H 1.051705 -4.394864 -1.954748 0
M  V30 53 H 0.854386 -6.591738 -2.931645 0
M  V30 54 H 2.593953 -8.243523 -2.509618 0
M  V30 55 H 4.577503 -7.738558 -1.097919 0
M  V30 56 H 4.737376 -5.514709 -0.133342 0
M  V30 END ATOM
M  V30 BEGIN BOND
M  V30 1 2 1 2
M  V30 2 1 2 3
M  V30 3 1 3 4
M  V30 4 2 4 5
M  V30 5 1 5 6
M  V30 6 2 6 7
M  V30 7 1 7 8
M  V30 8 1 8 9
M  V30 9 2 9 10
M  V30 10 1 10 11
M  V30 11 2 11 12
M  V30 12 1 12 13
M  V30 13 1 13 14
M  V30 14 2 14 15
M  V30 15 1 15 16
M  V30 16 2 16 17
M  V30 17 1 17 18
M  V30 18 2 18 19
M  V30 19 1 19 20
M  V30 20 1 20 21
M  V30 21 2 21 22
M  V30 22 1 22 23
M  V30 23 1 23 24
M  V30 24 1 19 25
M  V30 25 2 25 26
M  V30 26 1 26 27
M  V30 27 2 27 28
M  V30 28 1 28 29
M  V30 29 1 15 30
M  V30 30 2 30 31
M  V30 31 2 8 32
M  V30 32 1 2 33
M  V30 33 2 33 34
M  V30 34 1 34 35
M  V30 35 2 35 36
M  V30 36 1 36 37
M  V30 37 2 37 38
M  V30 38 1 32 4
M  V30 39 1 38 33
M  V30 40 1 31 9
M  V30 41 1 30 12
M  V30 42 1 29 16
M  V30 43 1 28 18
M  V30 44 2 24 20
M  V30 45 1 3 39
M  V30 46 1 5 40
M  V30 47 1 7 41
M  V30 48 1 10 42
M  V30 49 1 13 43
M  V30 50 1 21 44
M  V30 51 1 22 45
M  V30 52 1 24 46
M  V30 53 1 25 47
M  V30 54 1 27 48
M  V30 55 1 29 49
M  V30 56 1 31 50
M  V30 57 1 32 51
M  V30 58 1 34 52
M  V30 59 1 35 53
M  V30 60 1 36 54
M  V30 61 1 37 55
M  V30 62 1 38 56
M  V30 END BOND
M  V30 END CTAB
M  END
>  <Dataset>  (43) 
ChEMBL_Kinases

>  <Ligand_Instance>  (43) 
nan

>  <PDB_ID>  (43) 
nan

>  <Standardized_SMILES>  (43) 
O=C(Nc1cncc(-c2cnc3[nH]nc(-c4nc5c(-c6ccoc6)cncc5[nH]4)c3c2)c1)c1ccccc1

>  <Name>  (43) 
nan

>  <Pocket>  (43) 
nan

>  <ATP_Site>  (43) 
nan

>  <Peripheral>  (43) 
nan

>  <Num_H_Atoms_ProtBoundConf>  (43) 
nan

>  <Num_Resolved_Atoms>  (43) 
nan

>  <Num_Not_Resolved_Atoms>  (43) 
nan

$$$$
CHEMBL3335350
     RDKit          3D

  0  0  0  0  0  0  0  0  0  0999 V3000
M  V30 BEGIN CTAB
M  V30 COUNTS 29 31 0 0 0
M  V30 BEGIN ATOM
M  V30 1 O 1.334022 -2.322001 -0.912711 0
M  V30 2 C 1.119051 -1.835298 0.230019 0
M  V30 3 C 1.871881 -2.261107 1.419294 0
M  V30 4 C 1.588140 -2.040781 2.743750 0
M  V30 5 C 2.496468 -2.557234 3.679633 0
M  V30 6 C 3.633029 -3.259920 3.345940 0
M  V30 7 C 3.910581 -3.479527 1.996359 0
M  V30 8 O 5.050072 -4.185535 1.666807 0
M  V30 9 C 3.000597 -2.958644 1.081267 0
M  V30 10 C 0.085200 -0.842391 0.258396 0
M  V30 11 C -0.433241 -0.117611 -0.763941 0
M  V30 12 C -1.455359 0.740366 -0.514511 0
M  V30 13 C -2.093036 1.543085 -1.422545 0
M  V30 14 C -3.143773 2.391113 -1.065928 0
M  V30 15 O -3.742898 3.180536 -2.045574 0
M  V30 16 C -3.578398 2.443237 0.257335 0
M  V30 17 C -2.978690 1.665876 1.215131 0
M  V30 18 C -1.949355 0.852131 0.795364 0
M  V30 19 S -0.880771 -0.335763 1.688456 0
M  V30 20 H 0.718477 -1.505421 2.994746 0
M  V30 21 H 2.292230 -2.391270 4.723428 0
M  V30 22 H 4.309626 -3.641122 4.099977 0
M  V30 23 H 5.859400 -3.717422 1.253839 0
M  V30 24 H 3.319041 -3.187317 0.065933 0
M  V30 25 H 0.009522 -0.252402 -1.764672 0
M  V30 26 H -1.848329 1.600521 -2.496860 0
M  V30 27 H -3.157637 3.726206 -2.700773 0
M  V30 28 H -4.390962 3.083829 0.568806 0
M  V30 29 H -3.221992 1.611465 2.251730 0
M  V30 END ATOM
M  V30 BEGIN BOND
M  V30 1 2 1 2
M  V30 2 1 2 3
M  V30 3 2 3 4
M  V30 4 1 4 5
M  V30 5 2 5 6
M  V30 6 1 6 7
M  V30 7 1 7 8
M  V30 8 2 7 9
M  V30 9 1 2 10
M  V30 10 2 10 11
M  V30 11 1 11 12
M  V30 12 2 12 13
M  V30 13 1 13 14
M  V30 14 1 14 15
M  V30 15 2 14 16
M  V30 16 1 16 17
M  V30 17 2 17 18
M  V30 18 1 18 19
M  V30 19 1 9 3
M  V30 20 1 19 10
M  V30 21 1 18 12
M  V30 22 1 4 20
M  V30 23 1 5 21
M  V30 24 1 6 22
M  V30 25 1 8 23
M  V30 26 1 9 24
M  V30 27 1 11 25
M  V30 28 1 13 26
M  V30 29 1 15 27
M  V30 30 1 16 28
M  V30 31 1 17 29
M  V30 END BOND
M  V30 END CTAB
M  END
>  <Dataset>  (44) 
ChEMBL_Kinases

>  <Ligand_Instance>  (44) 
nan

>  <PDB_ID>  (44) 
nan

>  <Standardized_SMILES>  (44) 
O=C(c1cccc(O)c1)c1cc2cc(O)ccc2s1

>  <Name>  (44) 
nan

>  <Pocket>  (44) 
nan

>  <ATP_Site>  (44) 
nan

>  <Peripheral>  (44) 
nan

>  <Num_H_Atoms_ProtBoundConf>  (44) 
nan

>  <Num_Resolved_Atoms>  (44) 
nan

>  <Num_Not_Resolved_Atoms>  (44) 
nan

$$$$
CHEMBL4790079
     RDKit          3D

  0  0  0  0  0  0  0  0  0  0999 V3000
M  V30 BEGIN CTAB
M  V30 COUNTS 42 45 0 0 0
M  V30 BEGIN ATOM
M  V30 1 C 1.118059 -9.848023 0.978040 0
M  V30 2 C 1.354566 -8.456047 0.496967 0
M  V30 3 N 1.627195 -7.831189 -0.413206 0
M  V30 4 C 1.767443 -6.517537 -0.523815 0
M  V30 5 C 1.566674 -5.788983 0.575098 0
M  V30 6 C 1.571364 -4.401768 1.058718 0
M  V30 7 O 1.300748 -4.186077 2.266102 0
M  V30 8 N 1.895499 -3.461396 0.047115 0
M  V30 9 C 1.944048 -2.054473 0.353621 0
M  V30 10 C 0.873818 -1.184954 0.260838 0
M  V30 11 C 1.100136 0.140838 0.595726 0
M  V30 12 N 0.051351 0.963883 0.498837 0
M  V30 13 C 0.103840 2.283343 0.787941 0
M  V30 14 C -1.099645 3.071295 0.645012 0
M  V30 15 C -2.283004 2.484257 0.220863 0
M  V30 16 N -3.256192 3.407602 0.164748 0
M  V30 17 C -2.720092 4.576535 0.544815 0
M  V30 18 C -3.420607 5.889619 0.638794 0
M  V30 19 N -1.438670 4.351181 0.824894 0
M  V30 20 C -0.524434 5.361029 1.267942 0
M  V30 21 C 1.346485 2.690840 1.191693 0
M  V30 22 C 2.459280 1.890750 1.309859 0
M  V30 23 C 2.348553 0.552902 1.001924 0
M  V30 24 C 3.397127 -0.337071 1.084918 0
M  V30 25 N 3.174415 -1.638070 0.756098 0
M  V30 26 S 1.149206 -7.124741 1.832619 0
M  V30 27 H 0.038220 -9.938550 1.192827 0
M  V30 28 H 1.671967 -10.037338 1.930146 0
M  V30 29 H 1.511683 -10.507292 0.208895 0
M  V30 30 H 2.031952 -5.931852 -1.413815 0
M  V30 31 H 2.109337 -3.724591 -0.937505 0
M  V30 32 H -0.064322 -1.625423 -0.071727 0
M  V30 33 H -2.552197 1.470749 -0.058856 0
M  V30 34 H -2.785605 6.680951 0.175602 0
M  V30 35 H -3.559645 6.111125 1.725247 0
M  V30 36 H -4.431246 5.822413 0.192218 0
M  V30 37 H -1.036645 6.364883 1.286312 0
M  V30 38 H -0.085667 5.174834 2.278001 0
M  V30 39 H 0.324798 5.499983 0.568172 0
M  V30 40 H 1.504646 3.704549 1.444189 0
M  V30 41 H 3.408041 2.284112 1.635203 0
M  V30 42 H 4.372408 0.025157 1.410645 0
M  V30 END ATOM
M  V30 BEGIN BOND
M  V30 1 1 1 2
M  V30 2 2 2 3
M  V30 3 1 3 4
M  V30 4 2 4 5
M  V30 5 1 5 6
M  V30 6 2 6 7
M  V30 7 1 6 8
M  V30 8 1 8 9
M  V30 9 2 9 10
M  V30 10 1 10 11
M  V30 11 2 11 12
M  V30 12 1 12 13
M  V30 13 1 13 14
M  V30 14 2 14 15
M  V30 15 1 15 16
M  V30 16 2 16 17
M  V30 17 1 17 18
M  V30 18 1 17 19
M  V30 19 1 19 20
M  V30 20 2 13 21
M  V30 21 1 21 22
M  V30 22 2 22 23
M  V30 23 1 23 24
M  V30 24 2 24 25
M  V30 25 1 5 26
M  V30 26 1 26 2
M  V30 27 1 25 9
M  V30 28 1 23 11
M  V30 29 1 19 14
M  V30 30 1 1 27
M  V30 31 1 1 28
M  V30 32 1 1 29
M  V30 33 1 4 30
M  V30 34 1 8 31
M  V30 35 1 10 32
M  V30 36 1 15 33
M  V30 37 1 18 34
M  V30 38 1 18 35
M  V30 39 1 18 36
M  V30 40 1 20 37
M  V30 41 1 20 38
M  V30 42 1 20 39
M  V30 43 1 21 40
M  V30 44 1 22 41
M  V30 45 1 24 42
M  V30 END BOND
M  V30 END CTAB
M  END
>  <Dataset>  (45) 
ChEMBL_Kinases

>  <Ligand_Instance>  (45) 
nan

>  <PDB_ID>  (45) 
nan

>  <Standardized_SMILES>  (45) 
Cc1ncc(C(=O)Nc2cc3nc(-c4cnc(C)n4C)ccc3cn2)s1

>  <Name>  (45) 
nan

>  <Pocket>  (45) 
nan

>  <ATP_Site>  (45) 
nan

>  <Peripheral>  (45) 
nan

>  <Num_H_Atoms_ProtBoundConf>  (45) 
nan

>  <Num_Resolved_Atoms>  (45) 
nan

>  <Num_Not_Resolved_Atoms>  (45) 
nan

$$$$
CHEMBL4165409
     RDKit          3D

  0  0  0  0  0  0  0  0  0  0999 V3000
M  V30 BEGIN CTAB
M  V30 COUNTS 65 68 0 0 0
M  V30 BEGIN ATOM
M  V30 1 C 1.859896 2.348809 5.886280 0
M  V30 2 C 3.068298 2.347787 4.985385 0
M  V30 3 C 2.838446 1.575879 3.736933 0
M  V30 4 C 4.099496 1.583200 2.882048 0
M  V30 5 O 5.131712 2.199262 3.312410 0
M  V30 6 N 4.147575 0.925993 1.631988 0
M  V30 7 C 5.392825 0.393808 1.120227 0
M  V30 8 C 2.917771 0.829848 0.933744 0
M  V30 9 C 2.898848 0.209202 -0.276859 0
M  V30 10 N 1.691051 0.142025 -0.913112 0
M  V30 11 C 0.590573 0.675965 -0.339047 0
M  V30 12 N -0.594695 0.537174 -1.103565 0
M  V30 13 C -1.404506 -0.634768 -0.941230 0
M  V30 14 C -0.994099 -1.589218 -0.026404 0
M  V30 15 C -1.785099 -2.733302 0.126242 0
M  V30 16 C -2.941363 -2.918109 -0.605896 0
M  V30 17 S -3.954677 -4.338107 -0.442581 0
M  V30 18 O -3.747838 -4.883853 0.939440 0
M  V30 19 O -5.402250 -4.012337 -0.638725 0
M  V30 20 N -3.439091 -5.582172 -1.547102 0
M  V30 21 C -3.542604 -5.163078 -2.930526 0
M  V30 22 C -3.065824 -6.331207 -3.777780 0
M  V30 23 C -3.136681 -5.988568 -5.253233 0
M  V30 24 C -1.644374 -6.727823 -3.473693 0
M  V30 25 C -3.284958 -1.921747 -1.498422 0
M  V30 26 C -2.551897 -0.768236 -1.699603 0
M  V30 27 N 0.655978 1.279025 0.856966 0
M  V30 28 C 1.816759 1.399396 1.576465 0
M  V30 29 N 1.801068 2.068265 2.866394 0
M  V30 30 C 0.754922 3.065143 2.916737 0
M  V30 31 C -0.363429 3.250176 3.687369 0
M  V30 32 C -1.009289 4.406458 3.329172 0
M  V30 33 N -0.271289 4.916827 2.335904 0
M  V30 34 C -0.644221 6.170390 1.681495 0
M  V30 35 N 0.743383 4.148719 2.095740 0
M  V30 36 H 2.150756 1.994043 6.927994 0
M  V30 37 H 1.144522 1.597295 5.546422 0
M  V30 38 H 1.363816 3.331974 5.951884 0
M  V30 39 H 3.277679 3.424774 4.768887 0
M  V30 40 H 3.928553 1.912824 5.553614 0
M  V30 41 H 2.641774 0.511516 3.952928 0
M  V30 42 H 6.177968 0.532897 1.885981 0
M  V30 43 H 5.308711 -0.693343 0.847799 0
M  V30 44 H 5.725261 0.968439 0.208179 0
M  V30 45 H 3.803852 -0.190388 -0.672476 0
M  V30 46 H -0.868308 1.285790 -1.776555 0
M  V30 47 H -0.093290 -1.490696 0.572218 0
M  V30 48 H -1.496345 -3.503829 0.832274 0
M  V30 49 H -4.010286 -6.424989 -1.413449 0
M  V30 50 H -2.958733 -4.266045 -3.139664 0
M  V30 51 H -4.610516 -5.001838 -3.251034 0
M  V30 52 H -3.746190 -7.204352 -3.582959 0
M  V30 53 H -4.130686 -6.196091 -5.693527 0
M  V30 54 H -2.338519 -6.541376 -5.800921 0
M  V30 55 H -2.880883 -4.909480 -5.412940 0
M  V30 56 H -1.006511 -5.850603 -3.657664 0
M  V30 57 H -1.504235 -7.051123 -2.425647 0
M  V30 58 H -1.375603 -7.495800 -4.225298 0
M  V30 59 H -4.192675 -2.023555 -2.100746 0
M  V30 60 H -2.866527 -0.012527 -2.414869 0
M  V30 61 H -0.674390 2.578602 4.446705 0
M  V30 62 H -1.922622 4.772599 3.794234 0
M  V30 63 H -1.574258 6.077367 1.082149 0
M  V30 64 H 0.163849 6.401424 0.941303 0
M  V30 65 H -0.747650 6.977855 2.426809 0
M  V30 END ATOM
M  V30 BEGIN BOND
M  V30 1 1 1 2
M  V30 2 1 2 3
M  V30 3 1 3 4
M  V30 4 2 4 5
M  V30 5 1 4 6
M  V30 6 1 6 7
M  V30 7 1 6 8
M  V30 8 2 8 9
M  V30 9 1 9 10
M  V30 10 2 10 11
M  V30 11 1 11 12
M  V30 12 1 12 13
M  V30 13 2 13 14
M  V30 14 1 14 15
M  V30 15 2 15 16
M  V30 16 1 16 17
M  V30 17 2 17 18
M  V30 18 2 17 19
M  V30 19 1 17 20
M  V30 20 1 20 21
M  V30 21 1 21 22
M  V30 22 1 22 23
M  V30 23 1 22 24
M  V30 24 1 16 25
M  V30 25 2 25 26
M  V30 26 1 11 27
M  V30 27 2 27 28
M  V30 28 1 28 29
M  V30 29 1 29 30
M  V30 30 1 30 31
M  V30 31 2 31 32
M  V30 32 1 32 33
M  V30 33 1 33 34
M  V30 34 1 33 35
M  V30 35 1 29 3
M  V30 36 2 35 30
M  V30 37 1 28 8
M  V30 38 1 26 13
M  V30 39 1 1 36
M  V30 40 1 1 37
M  V30 41 1 1 38
M  V30 42 1 2 39
M  V30 43 1 2 40
M  V30 44 1 3 41
M  V30 45 1 7 42
M  V30 46 1 7 43
M  V30 47 1 7 44
M  V30 48 1 9 45
M  V30 49 1 12 46
M  V30 50 1 14 47
M  V30 51 1 15 48
M  V30 52 1 20 49
M  V30 53 1 21 50
M  V30 54 1 21 51
M  V30 55 1 22 52
M  V30 56 1 23 53
M  V30 57 1 23 54
M  V30 58 1 23 55
M  V30 59 1 24 56
M  V30 60 1 24 57
M  V30 61 1 24 58
M  V30 62 1 25 59
M  V30 63 1 26 60
M  V30 64 1 31 61
M  V30 65 1 32 62
M  V30 66 1 34 63
M  V30 67 1 34 64
M  V30 68 1 34 65
M  V30 END BOND
M  V30 END CTAB
M  END
>  <Dataset>  (46) 
ChEMBL_Kinases

>  <Ligand_Instance>  (46) 
nan

>  <PDB_ID>  (46) 
nan

>  <Standardized_SMILES>  (46) 
CCC1C(=O)N(C)c2cnc(Nc3ccc(S(=O)(=O)NCC(C)C)cc3)nc2N1c1ccn(C)n1

>  <Name>  (46) 
nan

>  <Pocket>  (46) 
nan

>  <ATP_Site>  (46) 
nan

>  <Peripheral>  (46) 
nan

>  <Num_H_Atoms_ProtBoundConf>  (46) 
nan

>  <Num_Resolved_Atoms>  (46) 
nan

>  <Num_Not_Resolved_Atoms>  (46) 
nan

$$$$
CHEMBL4125725
     RDKit          3D

  0  0  0  0  0  0  0  0  0  0999 V3000
M  V30 BEGIN CTAB
M  V30 COUNTS 44 47 0 0 0
M  V30 BEGIN ATOM
M  V30 1 N 1.223162 -4.547072 0.807074 0
M  V30 2 C 0.422759 -3.468479 0.259292 0
M  V30 3 C 0.414344 -3.517030 -1.252665 0
M  V30 4 N 1.709400 -3.398092 -1.850131 0
M  V30 5 C 2.502134 -2.237154 -1.626770 0
M  V30 6 C 3.766922 -2.133626 -2.217114 0
M  V30 7 N 4.492366 -1.014067 -1.981750 0
M  V30 8 C 3.974243 -0.046345 -1.193042 0
M  V30 9 C 2.735437 -0.123264 -0.601574 0
M  V30 10 C 2.189972 0.930178 0.247515 0
M  V30 11 C 2.836470 2.107350 0.554435 0
M  V30 12 C 2.284522 3.079172 1.362639 0
M  V30 13 C 1.029815 2.892750 1.902922 0
M  V30 14 N 0.269658 3.662481 2.708122 0
M  V30 15 C -0.905201 3.039619 2.971315 0
M  V30 16 C -0.834833 1.836279 2.283875 0
M  V30 17 C -1.907075 0.844373 2.294829 0
M  V30 18 C -2.059383 -0.196385 3.188366 0
M  V30 19 C -3.117674 -1.068914 3.093645 0
M  V30 20 C -4.037043 -0.893141 2.085771 0
M  V30 21 C -3.945762 0.128629 1.155719 0
M  V30 22 C -2.861332 0.977396 1.297696 0
M  V30 23 F -2.780384 1.981793 0.375486 0
M  V30 24 C 0.364112 1.720484 1.608469 0
M  V30 25 C 0.944881 0.767288 0.795621 0
M  V30 26 N 2.033875 -1.244128 -0.849848 0
M  V30 27 H 0.649907 -5.408326 0.876204 0
M  V30 28 H 1.673443 -4.301623 1.718792 0
M  V30 29 H 0.715828 -2.505567 0.678504 0
M  V30 30 H -0.630002 -3.669466 0.576174 0
M  V30 31 H -0.289996 -2.779531 -1.678277 0
M  V30 32 H -0.030816 -4.513448 -1.511444 0
M  V30 33 H 2.086557 -4.166194 -2.458709 0
M  V30 34 H 4.103936 -2.955858 -2.834506 0
M  V30 35 H 4.597246 0.818429 -1.043263 0
M  V30 36 H 3.816245 2.274871 0.144423 0
M  V30 37 H 2.849939 3.981729 1.562321 0
M  V30 38 H 0.561888 4.610159 3.071840 0
M  V30 39 H -1.721485 3.410585 3.589307 0
M  V30 40 H -1.280544 -0.256222 3.953888 0
M  V30 41 H -3.194619 -1.869008 3.816961 0
M  V30 42 H -4.886081 -1.562604 1.979507 0
M  V30 43 H -4.679695 0.249550 0.370363 0
M  V30 44 H 0.310746 -0.108394 0.645606 0
M  V30 END ATOM
M  V30 BEGIN BOND
M  V30 1 1 1 2
M  V30 2 1 2 3
M  V30 3 1 3 4
M  V30 4 1 4 5
M  V30 5 2 5 6
M  V30 6 1 6 7
M  V30 7 2 7 8
M  V30 8 1 8 9
M  V30 9 1 9 10
M  V30 10 2 10 11
M  V30 11 1 11 12
M  V30 12 2 12 13
M  V30 13 1 13 14
M  V30 14 1 14 15
M  V30 15 2 15 16
M  V30 16 1 16 17
M  V30 17 2 17 18
M  V30 18 1 18 19
M  V30 19 2 19 20
M  V30 20 1 20 21
M  V30 21 2 21 22
M  V30 22 1 22 23
M  V30 23 1 16 24
M  V30 24 2 24 25
M  V30 25 2 9 26
M  V30 26 1 26 5
M  V30 27 1 25 10
M  V30 28 1 24 13
M  V30 29 1 22 17
M  V30 30 1 1 27
M  V30 31 1 1 28
M  V30 32 1 2 29
M  V30 33 1 2 30
M  V30 34 1 3 31
M  V30 35 1 3 32
M  V30 36 1 4 33
M  V30 37 1 6 34
M  V30 38 1 8 35
M  V30 39 1 11 36
M  V30 40 1 12 37
M  V30 41 1 14 38
M  V30 42 1 15 39
M  V30 43 1 18 40
M  V30 44 1 19 41
M  V30 45 1 20 42
M  V30 46 1 21 43
M  V30 47 1 25 44
M  V30 END BOND
M  V30 END CTAB
M  END
>  <Dataset>  (47) 
ChEMBL_Kinases

>  <Ligand_Instance>  (47) 
nan

>  <PDB_ID>  (47) 
nan

>  <Standardized_SMILES>  (47) 
NCCNc1cncc(-c2ccc3[nH]cc(-c4ccccc4F)c3c2)n1

>  <Name>  (47) 
nan

>  <Pocket>  (47) 
nan

>  <ATP_Site>  (47) 
nan

>  <Peripheral>  (47) 
nan

>  <Num_H_Atoms_ProtBoundConf>  (47) 
nan

>  <Num_Resolved_Atoms>  (47) 
nan

>  <Num_Not_Resolved_Atoms>  (47) 
nan

$$$$
CHEMBL4125774
     RDKit          3D

  0  0  0  0  0  0  0  0  0  0999 V3000
M  V30 BEGIN CTAB
M  V30 COUNTS 50 53 0 0 0
M  V30 BEGIN ATOM
M  V30 1 C 4.337268 -5.301823 2.012943 0
M  V30 2 N 4.742896 -4.774772 0.731573 0
M  V30 3 C 3.838088 -5.130363 -0.327146 0
M  V30 4 C 4.999290 -3.366676 0.757242 0
M  V30 5 C 3.831252 -2.543791 1.157961 0
M  V30 6 C 3.692398 -2.283873 2.522041 0
M  V30 7 C 2.649835 -1.531936 3.022810 0
M  V30 8 C 1.718268 -1.023964 2.139204 0
M  V30 9 C 1.836069 -1.270803 0.767942 0
M  V30 10 C 0.858163 -0.741152 -0.187674 0
M  V30 11 C -0.243732 0.034963 0.192840 0
M  V30 12 C -0.869314 0.301021 -1.008430 0
M  V30 13 C -2.019354 1.037710 -1.208613 0
M  V30 14 C -2.831982 1.699040 -0.192910 0
M  V30 15 C -3.241325 1.173003 1.015485 0
M  V30 16 C -4.011908 1.914523 1.887460 0
M  V30 17 C -4.400214 3.196934 1.590662 0
M  V30 18 C -5.214847 3.957805 2.531159 0
M  V30 19 N -5.608048 3.356433 3.770423 0
M  V30 20 O -5.618240 5.135088 2.347843 0
M  V30 21 C -4.021189 3.773734 0.399046 0
M  V30 22 C -3.251980 3.005104 -0.448322 0
M  V30 23 C -2.505540 1.200092 -2.505663 0
M  V30 24 C -1.803000 0.606071 -3.554156 0
M  V30 25 N -0.684566 -0.104968 -3.315297 0
M  V30 26 C -0.202441 -0.271273 -2.072103 0
M  V30 27 N 0.862577 -0.909703 -1.532842 0
M  V30 28 C 2.890185 -2.028083 0.285936 0
M  V30 29 H 5.128177 -5.017565 2.748904 0
M  V30 30 H 4.339069 -6.404054 1.976066 0
M  V30 31 H 3.347650 -4.933476 2.355062 0
M  V30 32 H 3.653123 -6.230615 -0.307180 0
M  V30 33 H 4.388829 -4.950076 -1.290817 0
M  V30 34 H 2.874152 -4.592784 -0.304356 0
M  V30 35 H 5.406833 -3.056229 -0.214525 0
M  V30 36 H 5.834846 -3.203251 1.488556 0
M  V30 37 H 4.418492 -2.676897 3.234146 0
M  V30 38 H 2.514734 -1.313052 4.073990 0
M  V30 39 H 0.887301 -0.429327 2.500365 0
M  V30 40 H -0.528037 0.345418 1.183556 0
M  V30 41 H -2.917829 0.160808 1.216123 0
M  V30 42 H -4.310688 1.454712 2.830893 0
M  V30 43 H -5.383236 3.541946 4.774133 0
M  V30 44 H -6.272370 2.542463 3.678727 0
M  V30 45 H -4.313788 4.773162 0.148647 0
M  V30 46 H -2.965509 3.493276 -1.391228 0
M  V30 47 H -3.378719 1.737605 -2.835050 0
M  V30 48 H -2.124042 0.690048 -4.599839 0
M  V30 49 H 1.556477 -1.439380 -2.104521 0
M  V30 50 H 3.017446 -2.242511 -0.771802 0
M  V30 END ATOM
M  V30 BEGIN BOND
M  V30 1 1 1 2
M  V30 2 1 2 3
M  V30 3 1 2 4
M  V30 4 1 4 5
M  V30 5 2 5 6
M  V30 6 1 6 7
M  V30 7 2 7 8
M  V30 8 1 8 9
M  V30 9 1 9 10
M  V30 10 2 10 11
M  V30 11 1 11 12
M  V30 12 2 12 13
M  V30 13 1 13 14
M  V30 14 2 14 15
M  V30 15 1 15 16
M  V30 16 2 16 17
M  V30 17 1 17 18
M  V30 18 1 18 19
M  V30 19 2 18 20
M  V30 20 1 17 21
M  V30 21 2 21 22
M  V30 22 1 13 23
M  V30 23 2 23 24
M  V30 24 1 24 25
M  V30 25 2 25 26
M  V30 26 1 26 27
M  V30 27 2 9 28
M  V30 28 1 28 5
M  V30 29 1 27 10
M  V30 30 1 26 12
M  V30 31 1 22 14
M  V30 32 1 1 29
M  V30 33 1 1 30
M  V30 34 1 1 31
M  V30 35 1 3 32
M  V30 36 1 3 33
M  V30 37 1 3 34
M  V30 38 1 4 35
M  V30 39 1 4 36
M  V30 40 1 6 37
M  V30 41 1 7 38
M  V30 42 1 8 39
M  V30 43 1 11 40
M  V30 44 1 15 41
M  V30 45 1 16 42
M  V30 46 1 19 43
M  V30 47 1 19 44
M  V30 48 1 21 45
M  V30 49 1 22 46
M  V30 50 1 23 47
M  V30 51 1 24 48
M  V30 52 1 27 49
M  V30 53 1 28 50
M  V30 END BOND
M  V30 END CTAB
M  END
>  <Dataset>  (48) 
ChEMBL_Kinases

>  <Ligand_Instance>  (48) 
nan

>  <PDB_ID>  (48) 
nan

>  <Standardized_SMILES>  (48) 
CN(C)Cc1cccc(-c2cc3c(-c4ccc(C(N)=O)cc4)ccnc3[nH]2)c1

>  <Name>  (48) 
nan

>  <Pocket>  (48) 
nan

>  <ATP_Site>  (48) 
nan

>  <Peripheral>  (48) 
nan

>  <Num_H_Atoms_ProtBoundConf>  (48) 
nan

>  <Num_Resolved_Atoms>  (48) 
nan

>  <Num_Not_Resolved_Atoms>  (48) 
nan

$$$$
CHEMBL3335361
     RDKit          3D

  0  0  0  0  0  0  0  0  0  0999 V3000
M  V30 BEGIN CTAB
M  V30 COUNTS 28 30 0 0 0
M  V30 BEGIN ATOM
M  V30 1 O -1.609098 -2.560126 -0.255331 0
M  V30 2 C -0.842050 -2.072298 0.648572 0
M  V30 3 C -0.787148 -2.642167 1.978694 0
M  V30 4 C 0.167121 -2.590719 2.969325 0
M  V30 5 C 0.043326 -3.185045 4.203646 0
M  V30 6 C -1.099384 -3.877801 4.480689 0
M  V30 7 C -2.097242 -3.978013 3.551700 0
M  V30 8 C -1.934451 -3.368349 2.326769 0
M  V30 9 C -0.075391 -0.932092 0.196149 0
M  V30 10 C 0.025466 -0.309211 -0.971503 0
M  V30 11 C 0.844846 0.776609 -1.091065 0
M  V30 12 C 1.088832 1.561828 -2.210684 0
M  V30 13 C 1.958628 2.623511 -2.121592 0
M  V30 14 O 2.191575 3.408687 -3.272247 0
M  V30 15 C 2.643104 3.007628 -0.991655 0
M  V30 16 C 2.426076 2.243642 0.158942 0
M  V30 17 C 1.539917 1.182162 0.020667 0
M  V30 18 S 1.009220 -0.018011 1.269177 0
M  V30 19 H 1.045005 -2.042104 2.696355 0
M  V30 20 H 0.891849 -3.046309 4.872105 0
M  V30 21 H -1.172888 -4.338118 5.460113 0
M  V30 22 H -2.977788 -4.533647 3.816997 0
M  V30 23 H -2.775664 -3.502344 1.657424 0
M  V30 24 H -0.563412 -0.698623 -1.807962 0
M  V30 25 H 0.625664 1.390208 -3.184654 0
M  V30 26 H 1.439656 4.029748 -3.547621 0
M  V30 27 H 3.328766 3.827998 -0.885304 0
M  V30 28 H 2.871070 2.389972 1.134902 0
M  V30 END ATOM
M  V30 BEGIN BOND
M  V30 1 2 1 2
M  V30 2 1 2 3
M  V30 3 2 3 4
M  V30 4 1 4 5
M  V30 5 2 5 6
M  V30 6 1 6 7
M  V30 7 2 7 8
M  V30 8 1 2 9
M  V30 9 2 9 10
M  V30 10 1 10 11
M  V30 11 2 11 12
M  V30 12 1 12 13
M  V30 13 1 13 14
M  V30 14 2 13 15
M  V30 15 1 15 16
M  V30 16 2 16 17
M  V30 17 1 17 18
M  V30 18 1 8 3
M  V30 19 1 18 9
M  V30 20 1 17 11
M  V30 21 1 4 19
M  V30 22 1 5 20
M  V30 23 1 6 21
M  V30 24 1 7 22
M  V30 25 1 8 23
M  V30 26 1 10 24
M  V30 27 1 12 25
M  V30 28 1 14 26
M  V30 29 1 15 27
M  V30 30 1 16 28
M  V30 END BOND
M  V30 END CTAB
M  END
>  <Dataset>  (49) 
ChEMBL_Kinases

>  <Ligand_Instance>  (49) 
nan

>  <PDB_ID>  (49) 
nan

>  <Standardized_SMILES>  (49) 
O=C(c1ccccc1)c1cc2cc(O)ccc2s1

>  <Name>  (49) 
nan

>  <Pocket>  (49) 
nan

>  <ATP_Site>  (49) 
nan

>  <Peripheral>  (49) 
nan

>  <Num_H_Atoms_ProtBoundConf>  (49) 
nan

>  <Num_Resolved_Atoms>  (49) 
nan

>  <Num_Not_Resolved_Atoms>  (49) 
nan

$$$$
CHEMBL3335360
     RDKit          3D

  0  0  0  0  0  0  0  0  0  0999 V3000
M  V30 BEGIN CTAB
M  V30 COUNTS 29 31 0 0 0
M  V30 BEGIN ATOM
M  V30 1 N 0.205553 -6.943842 3.971940 0
M  V30 2 C 0.619856 -5.930414 3.563935 0
M  V30 3 C 1.128974 -4.691297 3.068908 0
M  V30 4 C 2.330098 -4.243587 3.564378 0
M  V30 5 C 2.811289 -3.035880 3.060801 0
M  V30 6 C 2.143238 -2.299220 2.112645 0
M  V30 7 C 0.939961 -2.715345 1.593659 0
M  V30 8 C -0.003999 -2.174498 0.605558 0
M  V30 9 O -0.825224 -2.889288 0.017179 0
M  V30 10 C 0.000467 -0.752156 0.284782 0
M  V30 11 C -0.951949 -0.096501 -0.433031 0
M  V30 12 C -0.803740 1.243767 -0.684119 0
M  V30 13 C -1.657161 2.072459 -1.375338 0
M  V30 14 C -1.313965 3.409535 -1.508733 0
M  V30 15 O -2.171924 4.272704 -2.211512 0
M  V30 16 C -0.181301 4.012113 -1.010026 0
M  V30 17 C 0.680987 3.177559 -0.309078 0
M  V30 18 C 0.335269 1.844497 -0.177092 0
M  V30 19 S 1.176879 0.481978 0.654587 0
M  V30 20 C 0.470876 -3.931519 2.111072 0
M  V30 21 H 2.905695 -4.768916 4.306743 0
M  V30 22 H 3.737938 -2.600046 3.377552 0
M  V30 23 H 2.455985 -1.367967 1.680500 0
M  V30 24 H -1.840350 -0.646798 -0.800834 0
M  V30 25 H -2.606596 1.780066 -1.848306 0
M  V30 26 H -3.058152 4.567296 -1.770433 0
M  V30 27 H 0.048310 5.054138 -1.139005 0
M  V30 28 H 1.608178 3.530456 0.133380 0
M  V30 29 H -0.462297 -4.411690 1.808584 0
M  V30 END ATOM
M  V30 BEGIN BOND
M  V30 1 3 1 2
M  V30 2 1 2 3
M  V30 3 2 3 4
M  V30 4 1 4 5
M  V30 5 2 5 6
M  V30 6 1 6 7
M  V30 7 1 7 8
M  V30 8 2 8 9
M  V30 9 1 8 10
M  V30 10 2 10 11
M  V30 11 1 11 12
M  V30 12 2 12 13
M  V30 13 1 13 14
M  V30 14 1 14 15
M  V30 15 2 14 16
M  V30 16 1 16 17
M  V30 17 2 17 18
M  V30 18 1 18 19
M  V30 19 2 7 20
M  V30 20 1 20 3
M  V30 21 1 19 10
M  V30 22 1 18 12
M  V30 23 1 4 21
M  V30 24 1 5 22
M  V30 25 1 6 23
M  V30 26 1 11 24
M  V30 27 1 13 25
M  V30 28 1 15 26
M  V30 29 1 16 27
M  V30 30 1 17 28
M  V30 31 1 20 29
M  V30 END BOND
M  V30 END CTAB
M  END
>  <Dataset>  (50) 
ChEMBL_Kinases

>  <Ligand_Instance>  (50) 
nan

>  <PDB_ID>  (50) 
nan

>  <Standardized_SMILES>  (50) 
N#Cc1cccc(C(=O)c2cc3cc(O)ccc3s2)c1

>  <Name>  (50) 
nan

>  <Pocket>  (50) 
nan

>  <ATP_Site>  (50) 
nan

>  <Peripheral>  (50) 
nan

>  <Num_H_Atoms_ProtBoundConf>  (50) 
nan

>  <Num_Resolved_Atoms>  (50) 
nan

>  <Num_Not_Resolved_Atoms>  (50) 
nan

$$$$
CHEMBL4130071
     RDKit          3D

  0  0  0  0  0  0  0  0  0  0999 V3000
M  V30 BEGIN CTAB
M  V30 COUNTS 53 57 0 0 0
M  V30 BEGIN ATOM
M  V30 1 F 2.959466 -5.124841 0.221671 0
M  V30 2 C 3.847674 -4.303262 -0.451264 0
M  V30 3 F 3.758034 -4.674684 -1.787953 0
M  V30 4 F 5.094327 -4.559268 0.087480 0
M  V30 5 C 3.536611 -2.862845 -0.263046 0
M  V30 6 C 4.350243 -2.066453 0.542378 0
M  V30 7 C 4.036390 -0.743049 0.695352 0
M  V30 8 C 2.943581 -0.129164 0.092278 0
M  V30 9 C 2.780768 1.292120 0.380565 0
M  V30 10 C 3.818838 2.206871 0.355108 0
M  V30 11 N 3.333642 3.425936 0.666186 0
M  V30 12 C 2.008475 3.362410 0.899309 0
M  V30 13 C 1.034495 4.293785 1.248359 0
M  V30 14 C -0.253157 3.817882 1.399633 0
M  V30 15 C -0.646082 2.525071 1.237287 0
M  V30 16 C -1.991643 2.028870 1.395568 0
M  V30 17 C -3.037430 2.831877 1.734568 0
M  V30 18 N -4.298434 2.371560 1.883757 0
M  V30 19 C -4.529925 1.059088 1.688021 0
M  V30 20 C -3.507283 0.199058 1.342934 0
M  V30 21 O -3.599297 -1.163354 1.112375 0
M  V30 22 C -2.517448 -1.988010 0.762797 0
M  V30 23 C -2.708564 -2.608451 -0.605721 0
M  V30 24 C -3.870279 -3.576772 -0.552515 0
M  V30 25 N -3.531122 -4.685546 0.324184 0
M  V30 26 C -2.321526 -4.467622 1.059924 0
M  V30 27 C -2.357810 -3.106583 1.747797 0
M  V30 28 N -2.278491 0.733848 1.213226 0
M  V30 29 C 0.372302 1.642649 0.888933 0
M  V30 30 C 1.661256 2.035426 0.722314 0
M  V30 31 C 2.146240 -0.927900 -0.702219 0
M  V30 32 C 2.450898 -2.263497 -0.865205 0
M  V30 33 H 5.204919 -2.515432 1.022876 0
M  V30 34 H 4.708529 -0.186597 1.331865 0
M  V30 35 H 4.869846 2.045853 0.131803 0
M  V30 36 H 3.904750 4.320671 0.723306 0
M  V30 37 H 1.309854 5.334528 1.386607 0
M  V30 38 H -0.997394 4.555291 1.671021 0
M  V30 39 H -2.912801 3.881508 1.902269 0
M  V30 40 H -5.506309 0.605403 1.785869 0
M  V30 41 H -1.598315 -1.372046 0.705107 0
M  V30 42 H -1.808395 -3.182141 -0.860542 0
M  V30 43 H -2.860082 -1.844296 -1.379946 0
M  V30 44 H -4.789084 -3.050342 -0.252206 0
M  V30 45 H -4.035478 -3.935745 -1.594985 0
M  V30 46 H -3.395077 -5.564355 -0.251723 0
M  V30 47 H -2.326824 -5.231109 1.890798 0
M  V30 48 H -1.394181 -4.642305 0.502486 0
M  V30 49 H -3.246740 -3.144793 2.425500 0
M  V30 50 H -1.442638 -2.976456 2.357679 0
M  V30 51 H 0.107460 0.593734 0.747252 0
M  V30 52 H 1.306940 -0.416523 -1.154038 0
M  V30 53 H 1.802334 -2.863980 -1.497476 0
M  V30 END ATOM
M  V30 BEGIN BOND
M  V30 1 1 1 2
M  V30 2 1 2 3
M  V30 3 1 2 4
M  V30 4 1 2 5
M  V30 5 2 5 6
M  V30 6 1 6 7
M  V30 7 2 7 8
M  V30 8 1 8 9
M  V30 9 2 9 10
M  V30 10 1 10 11
M  V30 11 1 11 12
M  V30 12 2 12 13
M  V30 13 1 13 14
M  V30 14 2 14 15
M  V30 15 1 15 16
M  V30 16 2 16 17
M  V30 17 1 17 18
M  V30 18 2 18 19
M  V30 19 1 19 20
M  V30 20 1 20 21
M  V30 21 1 21 22
M  V30 22 1 22 23
M  V30 23 1 23 24
M  V30 24 1 24 25
M  V30 25 1 25 26
M  V30 26 1 26 27
M  V30 27 2 20 28
M  V30 28 1 15 29
M  V30 29 2 29 30
M  V30 30 1 8 31
M  V30 31 2 31 32
M  V30 32 1 32 5
M  V30 33 1 30 9
M  V30 34 1 30 12
M  V30 35 1 28 16
M  V30 36 1 27 22
M  V30 37 1 6 33
M  V30 38 1 7 34
M  V30 39 1 10 35
M  V30 40 1 11 36
M  V30 41 1 13 37
M  V30 42 1 14 38
M  V30 43 1 17 39
M  V30 44 1 19 40
M  V30 45 1 22 41
M  V30 46 1 23 42
M  V30 47 1 23 43
M  V30 48 1 24 44
M  V30 49 1 24 45
M  V30 50 1 25 46
M  V30 51 1 26 47
M  V30 52 1 26 48
M  V30 53 1 27 49
M  V30 54 1 27 50
M  V30 55 1 29 51
M  V30 56 1 31 52
M  V30 57 1 32 53
M  V30 END BOND
M  V30 END CTAB
M  END
>  <Dataset>  (51) 
ChEMBL_Kinases

>  <Ligand_Instance>  (51) 
nan

>  <PDB_ID>  (51) 
nan

>  <Standardized_SMILES>  (51) 
FC(F)(F)c1ccc(-c2c[nH]c3ccc(-c4cncc(OC5CCNCC5)n4)cc23)cc1

>  <Name>  (51) 
nan

>  <Pocket>  (51) 
nan

>  <ATP_Site>  (51) 
nan

>  <Peripheral>  (51) 
nan

>  <Num_H_Atoms_ProtBoundConf>  (51) 
nan

>  <Num_Resolved_Atoms>  (51) 
nan

>  <Num_Not_Resolved_Atoms>  (51) 
nan

$$$$
CHEMBL3335359
     RDKit          3D

  0  0  0  0  0  0  0  0  0  0999 V3000
M  V30 BEGIN CTAB
M  V30 COUNTS 29 31 0 0 0
M  V30 BEGIN ATOM
M  V30 1 O -1.318417 -1.446757 3.097976 0
M  V30 2 C -0.357751 -1.357431 2.299974 0
M  V30 3 C 0.793147 -2.230945 2.485507 0
M  V30 4 C 2.089537 -2.006978 2.082935 0
M  V30 5 C 3.101052 -2.951747 2.294887 0
M  V30 6 C 2.777803 -4.128698 2.922532 0
M  V30 7 F 3.752497 -5.056018 3.136325 0
M  V30 8 C 1.492835 -4.432921 3.360506 0
M  V30 9 O 1.132631 -5.613112 3.997739 0
M  V30 10 C 0.567747 -3.444228 3.108509 0
M  V30 11 C -0.416951 -0.361863 1.171271 0
M  V30 12 C -1.273131 0.583820 0.885745 0
M  V30 13 C -1.113304 1.315317 -0.247267 0
M  V30 14 C -1.918464 2.359604 -0.731826 0
M  V30 15 C -1.585080 2.970614 -1.910288 0
M  V30 16 O -2.397323 4.016311 -2.388509 0
M  V30 17 C -0.497587 2.650859 -2.696846 0
M  V30 18 C 0.320358 1.630385 -2.256669 0
M  V30 19 C -0.064148 1.040606 -1.050271 0
M  V30 20 S 0.779105 -0.377048 -0.131656 0
M  V30 21 H 2.352019 -1.095768 1.611040 0
M  V30 22 H 4.093374 -2.743326 1.969095 0
M  V30 23 H 1.706405 -6.422673 3.704763 0
M  V30 24 H -0.446212 -3.671838 3.449674 0
M  V30 25 H -2.089016 0.728778 1.604504 0
M  V30 26 H -2.796432 2.705878 -0.211722 0
M  V30 27 H -1.961912 4.925261 -2.534328 0
M  V30 28 H -0.197125 3.098382 -3.625143 0
M  V30 29 H 1.197239 1.263136 -2.749762 0
M  V30 END ATOM
M  V30 BEGIN BOND
M  V30 1 2 1 2
M  V30 2 1 2 3
M  V30 3 2 3 4
M  V30 4 1 4 5
M  V30 5 2 5 6
M  V30 6 1 6 7
M  V30 7 1 6 8
M  V30 8 1 8 9
M  V30 9 2 8 10
M  V30 10 1 2 11
M  V30 11 2 11 12
M  V30 12 1 12 13
M  V30 13 2 13 14
M  V30 14 1 14 15
M  V30 15 1 15 16
M  V30 16 2 15 17
M  V30 17 1 17 18
M  V30 18 2 18 19
M  V30 19 1 19 20
M  V30 20 1 10 3
M  V30 21 1 20 11
M  V30 22 1 19 13
M  V30 23 1 4 21
M  V30 24 1 5 22
M  V30 25 1 9 23
M  V30 26 1 10 24
M  V30 27 1 12 25
M  V30 28 1 14 26
M  V30 29 1 16 27
M  V30 30 1 17 28
M  V30 31 1 18 29
M  V30 END BOND
M  V30 END CTAB
M  END
>  <Dataset>  (52) 
ChEMBL_Kinases

>  <Ligand_Instance>  (52) 
nan

>  <PDB_ID>  (52) 
nan

>  <Standardized_SMILES>  (52) 
O=C(c1ccc(F)c(O)c1)c1cc2cc(O)ccc2s1

>  <Name>  (52) 
nan

>  <Pocket>  (52) 
nan

>  <ATP_Site>  (52) 
nan

>  <Peripheral>  (52) 
nan

>  <Num_H_Atoms_ProtBoundConf>  (52) 
nan

>  <Num_Resolved_Atoms>  (52) 
nan

>  <Num_Not_Resolved_Atoms>  (52) 
nan

$$$$
CHEMBL4130104
     RDKit          3D

  0  0  0  0  0  0  0  0  0  0999 V3000
M  V30 BEGIN CTAB
M  V30 COUNTS 52 55 0 0 0
M  V30 BEGIN ATOM
M  V30 1 C 0.692693 -0.109963 4.263693 0
M  V30 2 N 2.045588 0.438466 4.012903 0
M  V30 3 C 2.374109 1.105822 5.291987 0
M  V30 4 C 2.962475 -0.664805 3.800433 0
M  V30 5 C 4.356918 -0.281637 3.471897 0
M  V30 6 N 4.472182 0.490436 2.250618 0
M  V30 7 C 3.722921 -0.406955 1.397796 0
M  V30 8 C 4.049469 -1.630596 0.855002 0
M  V30 9 N 3.140829 -2.253264 0.086718 0
M  V30 10 C 1.938182 -1.717000 -0.161651 0
M  V30 11 C 1.577356 -0.491849 0.364096 0
M  V30 12 C 0.292207 0.154409 0.106896 0
M  V30 13 C 0.138746 1.396104 0.695895 0
M  V30 14 C -1.023961 2.142177 0.542559 0
M  V30 15 C -2.028671 1.601509 -0.220577 0
M  V30 16 N -3.254616 2.017568 -0.581899 0
M  V30 17 C -3.893663 1.119635 -1.362927 0
M  V30 18 C -3.040910 0.057129 -1.522024 0
M  V30 19 C -3.237306 -1.195034 -2.256564 0
M  V30 20 C -3.682063 -1.355744 -3.555610 0
M  V30 21 C -3.799769 -2.632548 -4.062180 0
M  V30 22 C -3.478443 -3.719476 -3.282127 0
M  V30 23 N -3.601158 -5.047246 -3.822033 0
M  V30 24 C -3.028783 -3.626905 -1.978590 0
M  V30 25 C -2.918458 -2.318770 -1.487208 0
M  V30 26 C -1.875282 0.361640 -0.807489 0
M  V30 27 C -0.711220 -0.389266 -0.657661 0
M  V30 28 N 2.496743 0.102169 1.122554 0
M  V30 29 H 0.529107 -0.283953 5.357138 0
M  V30 30 H 0.593231 -1.091849 3.793743 0
M  V30 31 H -0.106257 0.558350 3.904619 0
M  V30 32 H 2.680430 0.244996 5.957713 0
M  V30 33 H 1.478793 1.534165 5.772888 0
M  V30 34 H 3.232014 1.770846 5.212316 0
M  V30 35 H 3.004881 -1.240512 4.769267 0
M  V30 36 H 2.547881 -1.372447 3.064621 0
M  V30 37 H 4.806397 0.361096 4.269279 0
M  V30 38 H 4.989739 -1.181903 3.368744 0
M  V30 39 H 4.774748 1.292984 1.655254 0
M  V30 40 H 5.049164 -1.929326 1.144346 0
M  V30 41 H 1.258700 -2.260302 -0.778992 0
M  V30 42 H 0.891387 1.897755 1.319513 0
M  V30 43 H -1.151685 3.115961 0.998624 0
M  V30 44 H -3.663205 2.933560 -0.290452 0
M  V30 45 H -4.876542 1.178416 -1.800378 0
M  V30 46 H -3.899362 -0.434781 -4.060097 0
M  V30 47 H -4.152730 -2.717864 -5.087392 0
M  V30 48 H -2.967505 -5.883610 -3.873298 0
M  V30 49 H -4.476962 -5.402114 -4.308685 0
M  V30 50 H -2.777821 -4.488982 -1.376487 0
M  V30 51 H -2.570432 -2.293736 -0.449404 0
M  V30 52 H -0.515745 -1.349298 -1.083699 0
M  V30 END ATOM
M  V30 BEGIN BOND
M  V30 1 1 1 2
M  V30 2 1 2 3
M  V30 3 1 2 4
M  V30 4 1 4 5
M  V30 5 1 5 6
M  V30 6 1 6 7
M  V30 7 2 7 8
M  V30 8 1 8 9
M  V30 9 2 9 10
M  V30 10 1 10 11
M  V30 11 1 11 12
M  V30 12 2 12 13
M  V30 13 1 13 14
M  V30 14 2 14 15
M  V30 15 1 15 16
M  V30 16 1 16 17
M  V30 17 2 17 18
M  V30 18 1 18 19
M  V30 19 2 19 20
M  V30 20 1 20 21
M  V30 21 2 21 22
M  V30 22 1 22 23
M  V30 23 1 22 24
M  V30 24 2 24 25
M  V30 25 1 18 26
M  V30 26 2 26 27
M  V30 27 2 11 28
M  V30 28 1 28 7
M  V30 29 1 27 12
M  V30 30 1 26 15
M  V30 31 1 25 19
M  V30 32 1 1 29
M  V30 33 1 1 30
M  V30 34 1 1 31
M  V30 35 1 3 32
M  V30 36 1 3 33
M  V30 37 1 3 34
M  V30 38 1 4 35
M  V30 39 1 4 36
M  V30 40 1 5 37
M  V30 41 1 5 38
M  V30 42 1 6 39
M  V30 43 1 8 40
M  V30 44 1 10 41
M  V30 45 1 13 42
M  V30 46 1 14 43
M  V30 47 1 16 44
M  V30 48 1 17 45
M  V30 49 1 20 46
M  V30 50 1 21 47
M  V30 51 1 23 48
M  V30 52 1 23 49
M  V30 53 1 24 50
M  V30 54 1 25 51
M  V30 55 1 27 52
M  V30 END BOND
M  V30 END CTAB
M  END
>  <Dataset>  (53) 
ChEMBL_Kinases

>  <Ligand_Instance>  (53) 
nan

>  <PDB_ID>  (53) 
nan

>  <Standardized_SMILES>  (53) 
CN(C)CCNc1cncc(-c2ccc3[nH]cc(-c4ccc(N)cc4)c3c2)n1

>  <Name>  (53) 
nan

>  <Pocket>  (53) 
nan

>  <ATP_Site>  (53) 
nan

>  <Peripheral>  (53) 
nan

>  <Num_H_Atoms_ProtBoundConf>  (53) 
nan

>  <Num_Resolved_Atoms>  (53) 
nan

>  <Num_Not_Resolved_Atoms>  (53) 
nan

$$$$
CHEMBL4125907
     RDKit          3D

  0  0  0  0  0  0  0  0  0  0999 V3000
M  V30 BEGIN CTAB
M  V30 COUNTS 50 53 0 0 0
M  V30 BEGIN ATOM
M  V30 1 C 4.062194 -6.438731 3.238823 0
M  V30 2 N 3.064041 -5.601356 2.680607 0
M  V30 3 C 2.424057 -4.675072 3.541942 0
M  V30 4 C 3.237078 -5.179294 1.336402 0
M  V30 5 C 2.119249 -4.303842 0.883323 0
M  V30 6 C 2.222482 -2.918106 1.062835 0
M  V30 7 C 1.224123 -2.044912 0.666755 0
M  V30 8 C 0.067943 -2.556302 0.065133 0
M  V30 9 C -1.012069 -1.665483 -0.368335 0
M  V30 10 C -0.983607 -0.287806 -0.225502 0
M  V30 11 C -2.163129 0.207722 -0.743707 0
M  V30 12 C -2.604611 1.513903 -0.832709 0
M  V30 13 C -1.864261 2.682335 -0.368090 0
M  V30 14 C -1.186698 2.866355 0.819564 0
M  V30 15 C -0.546305 4.064217 1.058936 0
M  V30 16 C -0.554908 5.106889 0.142623 0
M  V30 17 C 0.135401 6.356842 0.436219 0
M  V30 18 N 0.822756 6.509192 1.670346 0
M  V30 19 O 0.135985 7.315017 -0.388750 0
M  V30 20 C -1.227068 4.941604 -1.050425 0
M  V30 21 C -1.877804 3.727786 -1.296632 0
M  V30 22 C -3.862159 1.704126 -1.417084 0
M  V30 23 C -4.570827 0.598993 -1.860002 0
M  V30 24 N -4.107395 -0.661794 -1.756228 0
M  V30 25 C -2.903487 -0.859197 -1.198219 0
M  V30 26 N -2.189709 -1.995038 -0.963039 0
M  V30 27 C -0.043741 -3.920383 -0.116376 0
M  V30 28 C 0.969379 -4.783504 0.287714 0
M  V30 29 H 5.089753 -6.038273 3.214478 0
M  V30 30 H 3.742297 -6.705642 4.264108 0
M  V30 31 H 4.068047 -7.392934 2.637583 0
M  V30 32 H 2.001487 -5.132866 4.453072 0
M  V30 33 H 1.520043 -4.289368 2.984661 0
M  V30 34 H 3.023043 -3.760611 3.780528 0
M  V30 35 H 3.368548 -6.048949 0.640751 0
M  V30 36 H 4.169409 -4.579882 1.224582 0
M  V30 37 H 3.107155 -2.532048 1.522699 0
M  V30 38 H 1.334919 -0.971399 0.820565 0
M  V30 39 H -0.170271 0.270633 0.216085 0
M  V30 40 H -1.226777 2.022520 1.468350 0
M  V30 41 H -0.036571 4.137350 2.008640 0
M  V30 42 H 1.331607 5.666284 2.026314 0
M  V30 43 H 0.763953 7.464020 2.129640 0
M  V30 44 H -1.249234 5.743659 -1.786177 0
M  V30 45 H -2.386604 3.684849 -2.270640 0
M  V30 46 H -4.322612 2.681252 -1.545971 0
M  V30 47 H -5.561278 0.633230 -2.331077 0
M  V30 48 H -2.459926 -2.972978 -1.184094 0
M  V30 49 H -0.919954 -4.351424 -0.576377 0
M  V30 50 H 0.927579 -5.873024 0.165422 0
M  V30 END ATOM
M  V30 BEGIN BOND
M  V30 1 1 1 2
M  V30 2 1 2 3
M  V30 3 1 2 4
M  V30 4 1 4 5
M  V30 5 2 5 6
M  V30 6 1 6 7
M  V30 7 2 7 8
M  V30 8 1 8 9
M  V30 9 2 9 10
M  V30 10 1 10 11
M  V30 11 2 11 12
M  V30 12 1 12 13
M  V30 13 2 13 14
M  V30 14 1 14 15
M  V30 15 2 15 16
M  V30 16 1 16 17
M  V30 17 1 17 18
M  V30 18 2 17 19
M  V30 19 1 16 20
M  V30 20 2 20 21
M  V30 21 1 12 22
M  V30 22 2 22 23
M  V30 23 1 23 24
M  V30 24 2 24 25
M  V30 25 1 25 26
M  V30 26 1 8 27
M  V30 27 2 27 28
M  V30 28 1 28 5
M  V30 29 1 26 9
M  V30 30 1 25 11
M  V30 31 1 21 13
M  V30 32 1 1 29
M  V30 33 1 1 30
M  V30 34 1 1 31
M  V30 35 1 3 32
M  V30 36 1 3 33
M  V30 37 1 3 34
M  V30 38 1 4 35
M  V30 39 1 4 36
M  V30 40 1 6 37
M  V30 41 1 7 38
M  V30 42 1 10 39
M  V30 43 1 14 40
M  V30 44 1 15 41
M  V30 45 1 18 42
M  V30 46 1 18 43
M  V30 47 1 20 44
M  V30 48 1 21 45
M  V30 49 1 22 46
M  V30 50 1 23 47
M  V30 51 1 26 48
M  V30 52 1 27 49
M  V30 53 1 28 50
M  V30 END BOND
M  V30 END CTAB
M  END
>  <Dataset>  (54) 
ChEMBL_Kinases

>  <Ligand_Instance>  (54) 
nan

>  <PDB_ID>  (54) 
nan

>  <Standardized_SMILES>  (54) 
CN(C)Cc1ccc(-c2cc3c(-c4ccc(C(N)=O)cc4)ccnc3[nH]2)cc1

>  <Name>  (54) 
nan

>  <Pocket>  (54) 
nan

>  <ATP_Site>  (54) 
nan

>  <Peripheral>  (54) 
nan

>  <Num_H_Atoms_ProtBoundConf>  (54) 
nan

>  <Num_Resolved_Atoms>  (54) 
nan

>  <Num_Not_Resolved_Atoms>  (54) 
nan

$$$$
CHEMBL4787749
     RDKit          3D

  0  0  0  0  0  0  0  0  0  0999 V3000
M  V30 BEGIN CTAB
M  V30 COUNTS 39 42 0 0 0
M  V30 BEGIN ATOM
M  V30 1 C 0.245454 -8.818852 2.865624 0
M  V30 2 C 0.716521 -7.410483 2.688863 0
M  V30 3 N 1.729191 -6.925587 2.426345 0
M  V30 4 N 2.007791 -5.661733 2.301901 0
M  V30 5 C 1.269666 -4.792456 2.436763 0
M  V30 6 C 0.857038 -3.313471 2.466278 0
M  V30 7 O -0.278967 -2.891905 2.716163 0
M  V30 8 N 1.888129 -2.395095 2.179370 0
M  V30 9 C 1.422889 -1.046622 2.227391 0
M  V30 10 C 0.931008 -0.510057 1.036331 0
M  V30 11 C 0.467648 0.807607 1.048779 0
M  V30 12 C -0.034122 1.398886 -0.104848 0
M  V30 13 C -0.488922 2.694557 -0.089323 0
M  V30 14 C -1.022251 3.348263 -1.280218 0
M  V30 15 C -2.193465 4.104340 -1.245840 0
M  V30 16 N -2.481799 4.604588 -2.462232 0
M  V30 17 C -1.487714 4.162918 -3.271531 0
M  V30 18 N -0.618615 3.413366 -2.561986 0
M  V30 19 C 0.594657 2.731124 -2.991387 0
M  V30 20 C -0.440968 3.409885 1.098978 0
M  V30 21 C 0.064013 2.800771 2.240360 0
M  V30 22 C 0.519033 1.515602 2.240378 0
M  V30 23 C 1.012804 0.960316 3.412741 0
M  V30 24 N 1.452900 -0.324340 3.354621 0
M  V30 25 S -0.286554 -5.805400 2.852558 0
M  V30 26 H -0.858914 -8.845755 3.032044 0
M  V30 27 H 0.414235 -9.337179 1.900112 0
M  V30 28 H 0.723635 -9.301826 3.736018 0
M  V30 29 H 2.851608 -2.736115 1.966679 0
M  V30 30 H 0.880452 -1.048191 0.085244 0
M  V30 31 H -0.060281 0.814488 -1.024302 0
M  V30 32 H -2.872558 4.336655 -0.422336 0
M  V30 33 H -1.385126 4.370651 -4.342815 0
M  V30 34 H 1.371769 2.827067 -2.184299 0
M  V30 35 H 0.952955 3.217317 -3.931341 0
M  V30 36 H 0.386149 1.672659 -3.250785 0
M  V30 37 H -0.801239 4.434565 1.108916 0
M  V30 38 H 0.103021 3.352050 3.164224 0
M  V30 39 H 1.035891 1.546589 4.322678 0
M  V30 END ATOM
M  V30 BEGIN BOND
M  V30 1 1 1 2
M  V30 2 2 2 3
M  V30 3 1 3 4
M  V30 4 2 4 5
M  V30 5 1 5 6
M  V30 6 2 6 7
M  V30 7 1 6 8
M  V30 8 1 8 9
M  V30 9 2 9 10
M  V30 10 1 10 11
M  V30 11 2 11 12
M  V30 12 1 12 13
M  V30 13 1 13 14
M  V30 14 2 14 15
M  V30 15 1 15 16
M  V30 16 2 16 17
M  V30 17 1 17 18
M  V30 18 1 18 19
M  V30 19 2 13 20
M  V30 20 1 20 21
M  V30 21 2 21 22
M  V30 22 1 22 23
M  V30 23 2 23 24
M  V30 24 1 5 25
M  V30 25 1 25 2
M  V30 26 1 24 9
M  V30 27 1 22 11
M  V30 28 1 18 14
M  V30 29 1 1 26
M  V30 30 1 1 27
M  V30 31 1 1 28
M  V30 32 1 8 29
M  V30 33 1 10 30
M  V30 34 1 12 31
M  V30 35 1 15 32
M  V30 36 1 17 33
M  V30 37 1 19 34
M  V30 38 1 19 35
M  V30 39 1 19 36
M  V30 40 1 20 37
M  V30 41 1 21 38
M  V30 42 1 23 39
M  V30 END BOND
M  V30 END CTAB
M  END
>  <Dataset>  (55) 
ChEMBL_Kinases

>  <Ligand_Instance>  (55) 
nan

>  <PDB_ID>  (55) 
nan

>  <Standardized_SMILES>  (55) 
Cc1nnc(C(=O)Nc2cc3cc(-c4cncn4C)ccc3cn2)s1

>  <Name>  (55) 
nan

>  <Pocket>  (55) 
nan

>  <ATP_Site>  (55) 
nan

>  <Peripheral>  (55) 
nan

>  <Num_H_Atoms_ProtBoundConf>  (55) 
nan

>  <Num_Resolved_Atoms>  (55) 
nan

>  <Num_Not_Resolved_Atoms>  (55) 
nan

$$$$
CHEMBL4787630
     RDKit          3D

  0  0  0  0  0  0  0  0  0  0999 V3000
M  V30 BEGIN CTAB
M  V30 COUNTS 58 63 0 0 0
M  V30 BEGIN ATOM
M  V30 1 C 4.341053 -0.285124 5.204413 0
M  V30 2 C 4.781901 -1.047826 3.978881 0
M  V30 3 C 6.191800 -1.512968 4.190278 0
M  V30 4 C 4.611742 -0.150044 2.811192 0
M  V30 5 O 4.158284 0.882233 3.398189 0
M  V30 6 N 4.911167 -0.477672 1.461001 0
M  V30 7 C 4.607334 0.663494 0.632039 0
M  V30 8 C 5.535996 1.652880 0.345405 0
M  V30 9 N 5.150551 2.676247 -0.438925 0
M  V30 10 C 3.888921 2.768844 -0.954527 0
M  V30 11 C 2.941357 1.804600 -0.690583 0
M  V30 12 C 1.614569 1.967648 -1.274209 0
M  V30 13 C 0.580735 1.076741 -1.087753 0
M  V30 14 C -0.652171 1.263045 -1.652018 0
M  V30 15 C -1.798149 0.505315 -1.590117 0
M  V30 16 C -2.108495 -0.738186 -0.919300 0
M  V30 17 C -3.368390 -1.322739 -1.007805 0
M  V30 18 C -3.433136 -2.492308 -0.294752 0
M  V30 19 C -4.410979 -3.430545 -0.055986 0
M  V30 20 C -5.739459 -3.285234 -0.625818 0
M  V30 21 C -6.165482 -2.967755 -1.895394 0
M  V30 22 C -7.511427 -2.891414 -2.160441 0
M  V30 23 N -8.434580 -3.119248 -1.210331 0
M  V30 24 C -8.071887 -3.431698 0.040186 0
M  V30 25 C -6.709837 -3.518405 0.346977 0
M  V30 26 N -4.091718 -4.486628 0.727769 0
M  V30 27 C -2.907658 -4.688473 1.284601 0
M  V30 28 C -1.924683 -3.750925 1.047817 0
M  V30 29 C -2.190798 -2.656280 0.259106 0
M  V30 30 N -1.467774 -1.609532 -0.138149 0
M  V30 31 N -2.648249 1.227565 -2.353239 0
M  V30 32 N -2.078903 2.312394 -2.830214 0
M  V30 33 C -0.804646 2.397121 -2.421672 0
M  V30 34 C 0.207514 3.300955 -2.624127 0
M  V30 35 N 1.415515 3.059684 -2.034263 0
M  V30 36 C 3.351595 0.764798 0.113088 0
M  V30 37 H 4.392418 -0.876681 6.122219 0
M  V30 38 H 3.344649 0.206852 5.055860 0
M  V30 39 H 5.064203 0.555758 5.321715 0
M  V30 40 H 4.079534 -1.904664 3.825177 0
M  V30 41 H 6.749970 -0.698584 4.711057 0
M  V30 42 H 6.708044 -1.853128 3.278893 0
M  V30 43 H 6.140219 -2.365237 4.905970 0
M  V30 44 H 5.279885 -1.449980 1.345177 0
M  V30 45 H 6.534116 1.572141 0.758018 0
M  V30 46 H 3.703010 3.645627 -1.574213 0
M  V30 47 H 0.790774 0.240853 -0.485080 0
M  V30 48 H -4.237142 -0.964138 -1.545810 0
M  V30 49 H -5.332771 -2.811995 -2.566465 0
M  V30 50 H -7.743782 -2.634825 -3.189475 0
M  V30 51 H -8.860885 -3.603043 0.757436 0
M  V30 52 H -6.553358 -3.779460 1.396480 0
M  V30 53 H -2.696333 -5.551338 1.907006 0
M  V30 54 H -0.956814 -3.862607 1.469130 0
M  V30 55 H -0.481066 -1.506827 0.154849 0
M  V30 56 H -2.606423 2.976051 -3.439488 0
M  V30 57 H 0.026884 4.172640 -3.238701 0
M  V30 58 H 2.627859 -0.005828 0.336196 0
M  V30 END ATOM
M  V30 BEGIN BOND
M  V30 1 1 1 2
M  V30 2 1 2 3
M  V30 3 1 2 4
M  V30 4 2 4 5
M  V30 5 1 4 6
M  V30 6 1 6 7
M  V30 7 2 7 8
M  V30 8 1 8 9
M  V30 9 2 9 10
M  V30 10 1 10 11
M  V30 11 1 11 12
M  V30 12 2 12 13
M  V30 13 1 13 14
M  V30 14 1 14 15
M  V30 15 1 15 16
M  V30 16 2 16 17
M  V30 17 1 17 18
M  V30 18 2 18 19
M  V30 19 1 19 20
M  V30 20 2 20 21
M  V30 21 1 21 22
M  V30 22 2 22 23
M  V30 23 1 23 24
M  V30 24 2 24 25
M  V30 25 1 19 26
M  V30 26 2 26 27
M  V30 27 1 27 28
M  V30 28 2 28 29
M  V30 29 1 29 30
M  V30 30 2 15 31
M  V30 31 1 31 32
M  V30 32 1 32 33
M  V30 33 1 33 34
M  V30 34 2 34 35
M  V30 35 2 11 36
M  V30 36 1 36 7
M  V30 37 1 35 12
M  V30 38 2 33 14
M  V30 39 1 30 16
M  V30 40 1 29 18
M  V30 41 1 25 20
M  V30 42 1 1 37
M  V30 43 1 1 38
M  V30 44 1 1 39
M  V30 45 1 2 40
M  V30 46 1 3 41
M  V30 47 1 3 42
M  V30 48 1 3 43
M  V30 49 1 6 44
M  V30 50 1 8 45
M  V30 51 1 10 46
M  V30 52 1 13 47
M  V30 53 1 17 48
M  V30 54 1 21 49
M  V30 55 1 22 50
M  V30 56 1 24 51
M  V30 57 1 25 52
M  V30 58 1 27 53
M  V30 59 1 28 54
M  V30 60 1 30 55
M  V30 61 1 32 56
M  V30 62 1 34 57
M  V30 63 1 36 58
M  V30 END BOND
M  V30 END CTAB
M  END
>  <Dataset>  (56) 
ChEMBL_Kinases

>  <Ligand_Instance>  (56) 
nan

>  <PDB_ID>  (56) 
nan

>  <Standardized_SMILES>  (56) 
CC(C)C(=O)Nc1cncc(-c2cc3c(-c4cc5c(-c6ccncc6)nccc5[nH]4)n[nH]c3cn2)c1

>  <Name>  (56) 
nan

>  <Pocket>  (56) 
nan

>  <ATP_Site>  (56) 
nan

>  <Peripheral>  (56) 
nan

>  <Num_H_Atoms_ProtBoundConf>  (56) 
nan

>  <Num_Resolved_Atoms>  (56) 
nan

>  <Num_Not_Resolved_Atoms>  (56) 
nan

$$$$
CHEMBL3335358
     RDKit          3D

  0  0  0  0  0  0  0  0  0  0999 V3000
M  V30 BEGIN CTAB
M  V30 COUNTS 29 31 0 0 0
M  V30 BEGIN ATOM
M  V30 1 O -1.126213 -0.200006 3.560062 0
M  V30 2 C -1.087644 -0.480723 2.347160 0
M  V30 3 C 0.251054 -0.354465 1.794808 0
M  V30 4 C 1.506735 0.007815 2.303767 0
M  V30 5 C 2.552741 -0.001589 1.417009 0
M  V30 6 C 3.848566 0.328278 1.756937 0
M  V30 7 C 4.804665 0.278675 0.773648 0
M  V30 8 O 6.134919 0.612120 1.100839 0
M  V30 9 C 4.613424 -0.071137 -0.544916 0
M  V30 10 C 3.294604 -0.394193 -0.837512 0
M  V30 11 C 2.317227 -0.355890 0.115416 0
M  V30 12 S 0.606831 -0.717998 -0.024548 0
M  V30 13 C -2.177837 -0.895045 1.485729 0
M  V30 14 C -2.415901 -0.407450 0.216768 0
M  V30 15 C -3.497782 -0.900509 -0.485075 0
M  V30 16 O -3.719310 -0.396316 -1.760265 0
M  V30 17 C -4.335468 -1.853942 0.040350 0
M  V30 18 C -4.107603 -2.352582 1.314659 0
M  V30 19 C -3.023208 -1.863801 2.028276 0
M  V30 20 F -2.830630 -2.371335 3.266290 0
M  V30 21 H 1.492315 0.254282 3.353579 0
M  V30 22 H 4.175544 0.627050 2.750535 0
M  V30 23 H 6.839119 -0.100527 1.242604 0
M  V30 24 H 5.406136 -0.092347 -1.276305 0
M  V30 25 H 3.016226 -0.683506 -1.830649 0
M  V30 26 H -1.731949 0.342383 -0.158714 0
M  V30 27 H -3.155239 -0.673375 -2.539758 0
M  V30 28 H -5.174299 -2.228572 -0.518167 0
M  V30 29 H -4.754128 -3.107695 1.756169 0
M  V30 END ATOM
M  V30 BEGIN BOND
M  V30 1 2 1 2
M  V30 2 1 2 3
M  V30 3 2 3 4
M  V30 4 1 4 5
M  V30 5 2 5 6
M  V30 6 1 6 7
M  V30 7 1 7 8
M  V30 8 2 7 9
M  V30 9 1 9 10
M  V30 10 2 10 11
M  V30 11 1 11 12
M  V30 12 1 2 13
M  V30 13 2 13 14
M  V30 14 1 14 15
M  V30 15 1 15 16
M  V30 16 2 15 17
M  V30 17 1 17 18
M  V30 18 2 18 19
M  V30 19 1 19 20
M  V30 20 1 12 3
M  V30 21 1 19 13
M  V30 22 1 11 5
M  V30 23 1 4 21
M  V30 24 1 6 22
M  V30 25 1 8 23
M  V30 26 1 9 24
M  V30 27 1 10 25
M  V30 28 1 14 26
M  V30 29 1 16 27
M  V30 30 1 17 28
M  V30 31 1 18 29
M  V30 END BOND
M  V30 END CTAB
M  END
>  <Dataset>  (57) 
ChEMBL_Kinases

>  <Ligand_Instance>  (57) 
nan

>  <PDB_ID>  (57) 
nan

>  <Standardized_SMILES>  (57) 
O=C(c1cc2cc(O)ccc2s1)c1cc(O)ccc1F

>  <Name>  (57) 
nan

>  <Pocket>  (57) 
nan

>  <ATP_Site>  (57) 
nan

>  <Peripheral>  (57) 
nan

>  <Num_H_Atoms_ProtBoundConf>  (57) 
nan

>  <Num_Resolved_Atoms>  (57) 
nan

>  <Num_Not_Resolved_Atoms>  (57) 
nan

$$$$
CHEMBL4787572
     RDKit          3D

  0  0  0  0  0  0  0  0  0  0999 V3000
M  V30 BEGIN CTAB
M  V30 COUNTS 47 51 0 0 0
M  V30 BEGIN ATOM
M  V30 1 N 4.280351 -0.516149 1.518729 0
M  V30 2 C 3.149051 -0.833871 2.316120 0
M  V30 3 N 3.304177 -1.379596 3.538687 0
M  V30 4 C 2.249336 -1.679625 4.294104 0
M  V30 5 N 0.983260 -1.441249 3.847538 0
M  V30 6 C 0.816012 -0.888836 2.610282 0
M  V30 7 C 1.892054 -0.568071 1.806719 0
M  V30 8 C 1.372297 -0.036568 0.645041 0
M  V30 9 C 2.176162 0.439400 -0.482474 0
M  V30 10 C 3.166203 -0.129698 -1.257545 0
M  V30 11 N 3.576564 0.781365 -2.188012 0
M  V30 12 C 2.855363 1.900117 -1.997737 0
M  V30 13 C 2.879618 3.120526 -2.671971 0
M  V30 14 C 2.030796 4.139773 -2.289425 0
M  V30 15 C 1.126284 4.009379 -1.235886 0
M  V30 16 C 1.141316 2.785124 -0.602074 0
M  V30 17 C 1.963769 1.729984 -0.937161 0
M  V30 18 N 0.028418 -0.047339 0.769130 0
M  V30 19 N -0.309598 -0.555407 1.941025 0
M  V30 20 C -1.660148 -0.724865 2.426818 0
M  V30 21 C -2.287370 -2.027129 2.091214 0
M  V30 22 C -2.388121 -2.277215 0.610913 0
M  V30 23 C -3.186793 -3.507888 0.283575 0
M  V30 24 N -4.110602 -3.881346 1.330715 0
M  V30 25 C -4.697782 -2.709537 1.938716 0
M  V30 26 C -3.644555 -2.022624 2.765988 0
M  V30 27 H 4.889799 -1.240544 1.091185 0
M  V30 28 H 4.586775 0.446084 1.300899 0
M  V30 29 H 2.386706 -2.120083 5.277914 0
M  V30 30 H 3.496801 -1.124113 -1.091031 0
M  V30 31 H 4.322570 0.579844 -2.891705 0
M  V30 32 H 3.561580 3.287675 -3.502493 0
M  V30 33 H 2.001420 5.123596 -2.779555 0
M  V30 34 H 0.457461 4.801803 -0.930027 0
M  V30 35 H 0.437487 2.653208 0.233614 0
M  V30 36 H -1.758517 -0.561456 3.523783 0
M  V30 37 H -2.319401 0.068285 1.965806 0
M  V30 38 H -1.718059 -2.889632 2.507457 0
M  V30 39 H -1.359122 -2.429581 0.226967 0
M  V30 40 H -2.789025 -1.374461 0.080967 0
M  V30 41 H -2.553533 -4.404044 0.111341 0
M  V30 42 H -3.768616 -3.316395 -0.633695 0
M  V30 43 H -3.716916 -4.528141 2.041401 0
M  V30 44 H -5.504527 -3.023085 2.635640 0
M  V30 45 H -5.171294 -2.086326 1.178152 0
M  V30 46 H -3.586001 -2.502277 3.763371 0
M  V30 47 H -4.011565 -0.983281 2.938579 0
M  V30 END ATOM
M  V30 BEGIN BOND
M  V30 1 1 1 2
M  V30 2 2 2 3
M  V30 3 1 3 4
M  V30 4 2 4 5
M  V30 5 1 5 6
M  V30 6 2 6 7
M  V30 7 1 7 8
M  V30 8 1 8 9
M  V30 9 2 9 10
M  V30 10 1 10 11
M  V30 11 1 11 12
M  V30 12 2 12 13
M  V30 13 1 13 14
M  V30 14 2 14 15
M  V30 15 1 15 16
M  V30 16 2 16 17
M  V30 17 2 8 18
M  V30 18 1 18 19
M  V30 19 1 19 20
M  V30 20 1 20 21
M  V30 21 1 21 22
M  V30 22 1 22 23
M  V30 23 1 23 24
M  V30 24 1 24 25
M  V30 25 1 25 26
M  V30 26 1 7 2
M  V30 27 1 17 9
M  V30 28 1 26 21
M  V30 29 1 19 6
M  V30 30 1 17 12
M  V30 31 1 1 27
M  V30 32 1 1 28
M  V30 33 1 4 29
M  V30 34 1 10 30
M  V30 35 1 11 31
M  V30 36 1 13 32
M  V30 37 1 14 33
M  V30 38 1 15 34
M  V30 39 1 16 35
M  V30 40 1 20 36
M  V30 41 1 20 37
M  V30 42 1 21 38
M  V30 43 1 22 39
M  V30 44 1 22 40
M  V30 45 1 23 41
M  V30 46 1 23 42
M  V30 47 1 24 43
M  V30 48 1 25 44
M  V30 49 1 25 45
M  V30 50 1 26 46
M  V30 51 1 26 47
M  V30 END BOND
M  V30 END CTAB
M  END
>  <Dataset>  (58) 
ChEMBL_Kinases

>  <Ligand_Instance>  (58) 
nan

>  <PDB_ID>  (58) 
nan

>  <Standardized_SMILES>  (58) 
Nc1ncnc2c1c(-c1c[nH]c3ccccc13)nn2CC1CCNCC1

>  <Name>  (58) 
nan

>  <Pocket>  (58) 
nan

>  <ATP_Site>  (58) 
nan

>  <Peripheral>  (58) 
nan

>  <Num_H_Atoms_ProtBoundConf>  (58) 
nan

>  <Num_Resolved_Atoms>  (58) 
nan

>  <Num_Not_Resolved_Atoms>  (58) 
nan

$$$$
CHEMBL4126095
     RDKit          3D

  0  0  0  0  0  0  0  0  0  0999 V3000
M  V30 BEGIN CTAB
M  V30 COUNTS 62 66 0 0 0
M  V30 BEGIN ATOM
M  V30 1 C 0.290716 -1.037640 0.500800 0
M  V30 2 C 0.286032 0.157901 1.335945 0
M  V30 3 C 1.404010 0.957294 1.375425 0
M  V30 4 C 1.646529 2.112906 2.062377 0
M  V30 5 O 2.634503 2.988893 2.213729 0
M  V30 6 C 3.887109 3.231295 1.803736 0
M  V30 7 C 4.201707 3.435874 0.370784 0
M  V30 8 N 3.987466 2.378294 -0.542589 0
M  V30 9 C 4.900780 1.283901 -0.419199 0
M  V30 10 C 5.435064 0.806417 -1.750206 0
M  V30 11 O 4.510084 0.780391 -2.761695 0
M  V30 12 C 3.698958 1.881403 -2.868753 0
M  V30 13 C 4.153306 2.939447 -1.887012 0
M  V30 14 C 0.544900 2.512170 2.843560 0
M  V30 15 C -0.643425 1.771500 2.877118 0
M  V30 16 C -0.750517 0.602821 2.119038 0
M  V30 17 C -1.984630 -0.143406 2.181462 0
M  V30 18 C -2.470535 -1.301817 1.661752 0
M  V30 19 C -3.758005 -1.574964 2.053531 0
M  V30 20 C -4.611164 -2.634977 1.759608 0
M  V30 21 C -4.217177 -3.730391 0.880450 0
M  V30 22 C -3.622001 -3.560957 -0.352452 0
M  V30 23 C -3.253051 -4.615722 -1.159710 0
M  V30 24 C -3.477690 -5.912489 -0.740288 0
M  V30 25 C -3.121668 -7.107875 -1.524554 0
M  V30 26 N -2.509444 -6.841547 -2.785796 0
M  V30 27 O -3.324907 -8.292195 -1.147101 0
M  V30 28 C -4.079589 -6.085729 0.506139 0
M  V30 29 C -4.444750 -4.998240 1.306851 0
M  V30 30 C -5.884120 -2.668872 2.300398 0
M  V30 31 C -6.190095 -1.598413 3.112165 0
M  V30 32 N -5.365932 -0.574614 3.395540 0
M  V30 33 C -4.133204 -0.536556 2.875620 0
M  V30 34 N -3.058520 0.267397 2.912766 0
M  V30 35 H 1.296187 -1.066505 -0.044959 0
M  V30 36 H -0.401993 -1.023951 -0.366365 0
M  V30 37 H 0.343776 -1.995283 1.057531 0
M  V30 38 H 2.266304 0.682909 0.791875 0
M  V30 39 H 4.244167 4.184966 2.331593 0
M  V30 40 H 4.663122 2.491067 2.178902 0
M  V30 41 H 3.703958 4.348182 -0.040342 0
M  V30 42 H 5.302469 3.696771 0.304513 0
M  V30 43 H 5.809168 1.544572 0.178135 0
M  V30 44 H 4.449119 0.427927 0.091791 0
M  V30 45 H 5.779859 -0.242526 -1.600923 0
M  V30 46 H 6.364548 1.371337 -2.001020 0
M  V30 47 H 2.664371 1.558309 -2.616828 0
M  V30 48 H 3.712582 2.345265 -3.875481 0
M  V30 49 H 5.243880 3.122937 -2.016301 0
M  V30 50 H 3.655594 3.909897 -2.006439 0
M  V30 51 H 0.497799 3.409147 3.484719 0
M  V30 52 H -1.476861 2.126366 3.505199 0
M  V30 53 H -1.943873 -1.949716 1.027504 0
M  V30 54 H -3.434621 -2.568498 -0.715938 0
M  V30 55 H -2.786225 -4.478494 -2.126435 0
M  V30 56 H -1.703266 -6.152815 -2.860836 0
M  V30 57 H -2.639731 -7.163738 -3.765711 0
M  V30 58 H -4.257224 -7.103577 0.837935 0
M  V30 59 H -4.903090 -5.268334 2.251367 0
M  V30 60 H -6.563627 -3.477246 2.089732 0
M  V30 61 H -7.178610 -1.576466 3.562624 0
M  V30 62 H -3.189704 1.133757 3.518425 0
M  V30 END ATOM
M  V30 BEGIN BOND
M  V30 1 1 1 2
M  V30 2 2 2 3
M  V30 3 1 3 4
M  V30 4 1 4 5
M  V30 5 1 5 6
M  V30 6 1 6 7
M  V30 7 1 7 8
M  V30 8 1 8 9
M  V30 9 1 9 10
M  V30 10 1 10 11
M  V30 11 1 11 12
M  V30 12 1 12 13
M  V30 13 2 4 14
M  V30 14 1 14 15
M  V30 15 2 15 16
M  V30 16 1 16 17
M  V30 17 2 17 18
M  V30 18 1 18 19
M  V30 19 2 19 20
M  V30 20 1 20 21
M  V30 21 2 21 22
M  V30 22 1 22 23
M  V30 23 2 23 24
M  V30 24 1 24 25
M  V30 25 1 25 26
M  V30 26 2 25 27
M  V30 27 1 24 28
M  V30 28 2 28 29
M  V30 29 1 20 30
M  V30 30 2 30 31
M  V30 31 1 31 32
M  V30 32 2 32 33
M  V30 33 1 33 34
M  V30 34 1 16 2
M  V30 35 1 34 17
M  V30 36 1 13 8
M  V30 37 1 33 19
M  V30 38 1 29 21
M  V30 39 1 1 35
M  V30 40 1 1 36
M  V30 41 1 1 37
M  V30 42 1 3 38
M  V30 43 1 6 39
M  V30 44 1 6 40
M  V30 45 1 7 41
M  V30 46 1 7 42
M  V30 47 1 9 43
M  V30 48 1 9 44
M  V30 49 1 10 45
M  V30 50 1 10 46
M  V30 51 1 12 47
M  V30 52 1 12 48
M  V30 53 1 13 49
M  V30 54 1 13 50
M  V30 55 1 14 51
M  V30 56 1 15 52
M  V30 57 1 18 53
M  V30 58 1 22 54
M  V30 59 1 23 55
M  V30 60 1 26 56
M  V30 61 1 26 57
M  V30 62 1 28 58
M  V30 63 1 29 59
M  V30 64 1 30 60
M  V30 65 1 31 61
M  V30 66 1 34 62
M  V30 END BOND
M  V30 END CTAB
M  END
>  <Dataset>  (59) 
ChEMBL_Kinases

>  <Ligand_Instance>  (59) 
nan

>  <PDB_ID>  (59) 
nan

>  <Standardized_SMILES>  (59) 
Cc1cc(OCCN2CCOCC2)ccc1-c1cc2c(-c3ccc(C(N)=O)cc3)ccnc2[nH]1

>  <Name>  (59) 
nan

>  <Pocket>  (59) 
nan

>  <ATP_Site>  (59) 
nan

>  <Peripheral>  (59) 
nan

>  <Num_H_Atoms_ProtBoundConf>  (59) 
nan

>  <Num_Resolved_Atoms>  (59) 
nan

>  <Num_Not_Resolved_Atoms>  (59) 
nan

$$$$
CHEMBL3335356
     RDKit          3D

  0  0  0  0  0  0  0  0  0  0999 V3000
M  V30 BEGIN CTAB
M  V30 COUNTS 32 34 0 0 0
M  V30 BEGIN ATOM
M  V30 1 C -3.787994 -3.626512 3.552396 0
M  V30 2 C -2.798560 -3.171683 2.526840 0
M  V30 3 C -1.800103 -2.327983 2.952414 0
M  V30 4 C -0.800123 -1.813593 2.114030 0
M  V30 5 C -0.825072 -2.183569 0.769054 0
M  V30 6 C 0.077085 -1.763203 -0.288728 0
M  V30 7 O 0.213310 -2.499301 -1.329247 0
M  V30 8 C 0.862137 -0.553809 -0.283994 0
M  V30 9 C 1.760227 -0.077306 -1.140038 0
M  V30 10 C 2.345074 1.132414 -0.879809 0
M  V30 11 C 3.290526 1.808127 -1.621730 0
M  V30 12 C 3.786254 3.018344 -1.232213 0
M  V30 13 O 4.743477 3.694339 -1.991266 0
M  V30 14 C 3.395523 3.666927 -0.081397 0
M  V30 15 C 2.451850 3.030670 0.694069 0
M  V30 16 C 1.983606 1.799249 0.245721 0
M  V30 17 S 0.751139 0.670313 0.988578 0
M  V30 18 C -1.841399 -3.031505 0.380194 0
M  V30 19 C -2.824780 -3.538693 1.199333 0
M  V30 20 O -3.833645 -4.390571 0.777263 0
M  V30 21 H -3.800079 -2.918329 4.419777 0
M  V30 22 H -3.590283 -4.627449 3.946396 0
M  V30 23 H -4.797219 -3.614534 3.110822 0
M  V30 24 H -1.677126 -1.970519 3.968754 0
M  V30 25 H -0.013327 -1.162114 2.438831 0
M  V30 26 H 2.000128 -0.678955 -2.032994 0
M  V30 27 H 3.710664 1.430405 -2.567941 0
M  V30 28 H 5.638619 3.995035 -1.589131 0
M  V30 29 H 3.755562 4.620320 0.270512 0
M  V30 30 H 2.040107 3.400306 1.621201 0
M  V30 31 H -1.934448 -3.370204 -0.656823 0
M  V30 32 H -4.783244 -4.290915 1.126500 0
M  V30 END ATOM
M  V30 BEGIN BOND
M  V30 1 1 1 2
M  V30 2 2 2 3
M  V30 3 1 3 4
M  V30 4 2 4 5
M  V30 5 1 5 6
M  V30 6 2 6 7
M  V30 7 1 6 8
M  V30 8 2 8 9
M  V30 9 1 9 10
M  V30 10 2 10 11
M  V30 11 1 11 12
M  V30 12 1 12 13
M  V30 13 2 12 14
M  V30 14 1 14 15
M  V30 15 2 15 16
M  V30 16 1 16 17
M  V30 17 1 5 18
M  V30 18 2 18 19
M  V30 19 1 19 20
M  V30 20 1 19 2
M  V30 21 1 17 8
M  V30 22 1 16 10
M  V30 23 1 1 21
M  V30 24 1 1 22
M  V30 25 1 1 23
M  V30 26 1 3 24
M  V30 27 1 4 25
M  V30 28 1 9 26
M  V30 29 1 11 27
M  V30 30 1 13 28
M  V30 31 1 14 29
M  V30 32 1 15 30
M  V30 33 1 18 31
M  V30 34 1 20 32
M  V30 END BOND
M  V30 END CTAB
M  END
>  <Dataset>  (60) 
ChEMBL_Kinases

>  <Ligand_Instance>  (60) 
nan

>  <PDB_ID>  (60) 
nan

>  <Standardized_SMILES>  (60) 
Cc1ccc(C(=O)c2cc3cc(O)ccc3s2)cc1O

>  <Name>  (60) 
nan

>  <Pocket>  (60) 
nan

>  <ATP_Site>  (60) 
nan

>  <Peripheral>  (60) 
nan

>  <Num_H_Atoms_ProtBoundConf>  (60) 
nan

>  <Num_Resolved_Atoms>  (60) 
nan

>  <Num_Not_Resolved_Atoms>  (60) 
nan

$$$$
CHEMBL3335355
     RDKit          3D

  0  0  0  0  0  0  0  0  0  0999 V3000
M  V30 BEGIN CTAB
M  V30 COUNTS 29 31 0 0 0
M  V30 BEGIN ATOM
M  V30 1 O 0.472009 -3.105176 -0.907698 0
M  V30 2 C 0.720235 -2.181292 -0.091583 0
M  V30 3 C 2.015145 -2.196335 0.576873 0
M  V30 4 C 2.647810 -3.419943 0.706038 0
M  V30 5 C 3.866606 -3.400045 1.339738 0
M  V30 6 C 4.499252 -2.285754 1.847378 0
M  V30 7 O 5.733457 -2.332595 2.478298 0
M  V30 8 C 3.799382 -1.106115 1.676346 0
M  V30 9 C 2.571161 -1.024645 1.054221 0
M  V30 10 C -0.300782 -1.163951 0.127660 0
M  V30 11 C -1.515518 -1.178046 -0.525113 0
M  V30 12 C -2.195176 -0.052197 -0.044505 0
M  V30 13 C -3.434316 0.529219 -0.266063 0
M  V30 14 C -3.794934 1.694051 0.412259 0
M  V30 15 O -5.035200 2.279538 0.193294 0
M  V30 16 C -2.901365 2.276110 1.319012 0
M  V30 17 C -1.640435 1.727375 1.576531 0
M  V30 18 C -1.358156 0.566570 0.859793 0
M  V30 19 O -0.243370 -0.120813 0.936363 0
M  V30 20 H 2.204354 -4.326920 0.330092 0
M  V30 21 H 4.373486 -4.365612 1.445383 0
M  V30 22 H 6.273905 -1.471756 2.557742 0
M  V30 23 H 4.243934 -0.187092 2.055388 0
M  V30 24 H 2.090529 -0.063063 0.960972 0
M  V30 25 H -1.954580 -1.829865 -1.243440 0
M  V30 26 H -4.089867 0.061806 -0.962097 0
M  V30 27 H -5.190473 3.269132 0.116471 0
M  V30 28 H -3.175961 3.190665 1.855715 0
M  V30 29 H -0.958235 2.164348 2.263625 0
M  V30 END ATOM
M  V30 BEGIN BOND
M  V30 1 2 1 2
M  V30 2 1 2 3
M  V30 3 2 3 4
M  V30 4 1 4 5
M  V30 5 2 5 6
M  V30 6 1 6 7
M  V30 7 1 6 8
M  V30 8 2 8 9
M  V30 9 1 2 10
M  V30 10 2 10 11
M  V30 11 1 11 12
M  V30 12 2 12 13
M  V30 13 1 13 14
M  V30 14 1 14 15
M  V30 15 2 14 16
M  V30 16 1 16 17
M  V30 17 2 17 18
M  V30 18 1 18 19
M  V30 19 1 9 3
M  V30 20 1 19 10
M  V30 21 1 18 12
M  V30 22 1 4 20
M  V30 23 1 5 21
M  V30 24 1 7 22
M  V30 25 1 8 23
M  V30 26 1 9 24
M  V30 27 1 11 25
M  V30 28 1 13 26
M  V30 29 1 15 27
M  V30 30 1 16 28
M  V30 31 1 17 29
M  V30 END BOND
M  V30 END CTAB
M  END
>  <Dataset>  (61) 
ChEMBL_Kinases

>  <Ligand_Instance>  (61) 
nan

>  <PDB_ID>  (61) 
nan

>  <Standardized_SMILES>  (61) 
O=C(c1ccc(O)cc1)c1cc2cc(O)ccc2o1

>  <Name>  (61) 
nan

>  <Pocket>  (61) 
nan

>  <ATP_Site>  (61) 
nan

>  <Peripheral>  (61) 
nan

>  <Num_H_Atoms_ProtBoundConf>  (61) 
nan

>  <Num_Resolved_Atoms>  (61) 
nan

>  <Num_Not_Resolved_Atoms>  (61) 
nan

$$$$
CHEMBL4793573
     RDKit          3D

  0  0  0  0  0  0  0  0  0  0999 V3000
M  V30 BEGIN CTAB
M  V30 COUNTS 73 76 0 0 0
M  V30 BEGIN ATOM
M  V30 1 C 7.249963 -0.460684 3.203495 0
M  V30 2 C 6.088642 0.000353 2.739604 0
M  V30 3 C 6.197434 -0.177156 1.304597 0
M  V30 4 O 7.328283 -0.692596 1.004812 0
M  V30 5 N 5.212459 0.160301 0.336302 0
M  V30 6 C 5.364634 -0.034787 -1.091924 0
M  V30 7 C 4.328600 -1.044212 -1.503365 0
M  V30 8 C 2.971799 -0.328072 -1.556453 0
M  V30 9 C 3.041445 0.548974 -2.780602 0
M  V30 10 C 1.740620 1.208753 -3.086658 0
M  V30 11 O 1.271118 0.923744 -4.247929 0
M  V30 12 N 0.982081 2.102587 -2.244174 0
M  V30 13 C 1.118731 2.689506 -0.902081 0
M  V30 14 C -0.054450 2.252100 -0.090435 0
M  V30 15 C -0.953556 1.267896 -0.821427 0
M  V30 16 C -1.428688 1.881052 -2.142353 0
M  V30 17 N -1.802677 0.782485 -3.005644 0
M  V30 18 C -2.846301 0.032918 -2.360585 0
M  V30 19 N -3.477810 -0.000339 -1.420106 0
M  V30 20 C -4.419034 -0.847590 -1.051559 0
M  V30 21 C -4.723518 -1.873323 -1.906101 0
M  V30 22 S -5.967420 -3.137549 -1.589604 0
M  V30 23 C -5.182964 -4.562876 -0.734993 0
M  V30 24 C -4.723686 -4.152382 0.617449 0
M  V30 25 N -3.495165 -3.627761 0.904089 0
M  V30 26 C -3.484418 -3.392469 2.249590 0
M  V30 27 C -4.732793 -3.791561 2.738790 0
M  V30 28 C -4.885985 -3.599675 4.197767 0
M  V30 29 C -6.254675 -4.090449 4.594258 0
M  V30 30 C -4.764278 -2.140273 4.574451 0
M  V30 31 C -3.853357 -4.349555 4.990411 0
M  V30 32 O -5.446259 -4.240948 1.729894 0
M  V30 33 S -3.499459 -1.483097 -3.308304 0
M  V30 34 C -0.281874 2.610393 -2.805387 0
M  V30 35 C 4.090452 1.576492 -2.597911 0
M  V30 36 C 5.307204 1.243217 -1.851795 0
M  V30 37 H 8.233338 -0.894889 3.112923 0
M  V30 38 H 8.215557 -0.895732 3.021375 0
M  V30 39 H 5.505160 0.330803 3.586048 0
M  V30 40 H 4.355555 0.569303 0.772884 0
M  V30 41 H 6.358400 -0.500611 -1.251331 0
M  V30 42 H 4.513117 -1.484220 -2.494512 0
M  V30 43 H 4.265075 -1.849655 -0.767871 0
M  V30 44 H 2.758262 0.182329 -0.623542 0
M  V30 45 H 2.235211 -1.150479 -1.670023 0
M  V30 46 H 3.351511 -0.105763 -3.636258 0
M  V30 47 H 1.042357 3.806646 -1.050481 0
M  V30 48 H 2.086464 2.437009 -0.423718 0
M  V30 49 H -0.706630 3.109593 0.231162 0
M  V30 50 H 0.293346 1.751102 0.818560 0
M  V30 51 H -1.796317 1.077805 -0.146904 0
M  V30 52 H -0.449407 0.325369 -1.032408 0
M  V30 53 H -2.285144 2.565161 -1.942159 0
M  V30 54 H -1.415511 0.533937 -3.942364 0
M  V30 55 H -4.911127 -0.691651 -0.082275 0
M  V30 56 H -5.859748 -5.410241 -0.680106 0
M  V30 57 H -4.266620 -4.837526 -1.313175 0
M  V30 58 H -2.568058 -2.968497 2.653948 0
M  V30 59 H -6.398092 -3.831881 5.658023 0
M  V30 60 H -7.064471 -3.660749 3.973610 0
M  V30 61 H -6.266557 -5.216755 4.567598 0
M  V30 62 H -4.380345 -2.069608 5.613409 0
M  V30 63 H -4.153352 -1.543731 3.893097 0
M  V30 64 H -5.788082 -1.665788 4.620430 0
M  V30 65 H -3.604294 -5.276208 4.431302 0
M  V30 66 H -2.920498 -3.716959 5.057137 0
M  V30 67 H -4.211207 -4.650373 5.984502 0
M  V30 68 H -0.264148 2.439052 -3.899639 0
M  V30 69 H -0.371913 3.712279 -2.688748 0
M  V30 70 H 3.596720 2.521976 -2.223255 0
M  V30 71 H 4.393171 1.893482 -3.652072 0
M  V30 72 H 5.484530 2.058673 -1.086306 0
M  V30 73 H 6.219381 1.347755 -2.511849 0
M  V30 END ATOM
M  V30 BEGIN BOND
M  V30 1 2 1 2
M  V30 2 1 2 3
M  V30 3 2 3 4
M  V30 4 1 3 5
M  V30 5 1 5 6
M  V30 6 1 6 7
M  V30 7 1 7 8
M  V30 8 1 8 9
M  V30 9 1 9 10
M  V30 10 2 10 11
M  V30 11 1 10 12
M  V30 12 1 12 13
M  V30 13 1 13 14
M  V30 14 1 14 15
M  V30 15 1 15 16
M  V30 16 1 16 17
M  V30 17 1 17 18
M  V30 18 2 18 19
M  V30 19 1 19 20
M  V30 20 2 20 21
M  V30 21 1 21 22
M  V30 22 1 22 23
M  V30 23 1 23 24
M  V30 24 2 24 25
M  V30 25 1 25 26
M  V30 26 2 26 27
M  V30 27 1 27 28
M  V30 28 1 28 29
M  V30 29 1 28 30
M  V30 30 1 28 31
M  V30 31 1 27 32
M  V30 32 1 21 33
M  V30 33 1 16 34
M  V30 34 1 9 35
M  V30 35 1 35 36
M  V30 36 1 36 6
M  V30 37 1 34 12
M  V30 38 1 33 18
M  V30 39 1 32 24
M  V30 40 1 1 37
M  V30 41 1 1 38
M  V30 42 1 2 39
M  V30 43 1 5 40
M  V30 44 1 6 41
M  V30 45 1 7 42
M  V30 46 1 7 43
M  V30 47 1 8 44
M  V30 48 1 8 45
M  V30 49 1 9 46
M  V30 50 1 13 47
M  V30 51 1 13 48
M  V30 52 1 14 49
M  V30 53 1 14 50
M  V30 54 1 15 51
M  V30 55 1 15 52
M  V30 56 1 16 53
M  V30 57 1 17 54
M  V30 58 1 20 55
M  V30 59 1 23 56
M  V30 60 1 23 57
M  V30 61 1 26 58
M  V30 62 1 29 59
M  V30 63 1 29 60
M  V30 64 1 29 61
M  V30 65 1 30 62
M  V30 66 1 30 63
M  V30 67 1 30 64
M  V30 68 1 31 65
M  V30 69 1 31 66
M  V30 70 1 31 67
M  V30 71 1 34 68
M  V30 72 1 34 69
M  V30 73 1 35 70
M  V30 74 1 35 71
M  V30 75 1 36 72
M  V30 76 1 36 73
M  V30 END BOND
M  V30 END CTAB
M  END
>  <Dataset>  (62) 
ChEMBL_Kinases

>  <Ligand_Instance>  (62) 
nan

>  <PDB_ID>  (62) 
nan

>  <Standardized_SMILES>  (62) 
C=CC(=O)NC1CCC(C(=O)N2CCCC(Nc3ncc(SCc4ncc(C(C)(C)C)o4)s3)C2)CC1

>  <Name>  (62) 
nan

>  <Pocket>  (62) 
nan

>  <ATP_Site>  (62) 
nan

>  <Peripheral>  (62) 
nan

>  <Num_H_Atoms_ProtBoundConf>  (62) 
nan

>  <Num_Resolved_Atoms>  (62) 
nan

>  <Num_Not_Resolved_Atoms>  (62) 
nan

$$$$
CHEMBL3335354
     RDKit          3D

  0  0  0  0  0  0  0  0  0  0999 V3000
M  V30 BEGIN CTAB
M  V30 COUNTS 29 31 0 0 0
M  V30 BEGIN ATOM
M  V30 1 O 1.428256 -1.263946 -1.695751 0
M  V30 2 C 1.307315 -1.236761 -0.442751 0
M  V30 3 C 2.233545 -1.889750 0.462585 0
M  V30 4 C 2.562468 -1.715151 1.785199 0
M  V30 5 C 3.481739 -2.504668 2.411047 0
M  V30 6 C 4.149061 -3.530152 1.776736 0
M  V30 7 O 5.047056 -4.226696 2.566739 0
M  V30 8 C 3.854922 -3.750946 0.436574 0
M  V30 9 C 2.918505 -2.933990 -0.171237 0
M  V30 10 C 0.128846 -0.475914 0.023062 0
M  V30 11 C -0.784914 0.202813 -0.648301 0
M  V30 12 C -1.795684 0.817092 0.026151 0
M  V30 13 C -2.848830 1.570839 -0.457437 0
M  V30 14 C -3.778246 2.111691 0.400219 0
M  V30 15 O -4.844885 2.876556 -0.104099 0
M  V30 16 C -3.766814 1.971477 1.770383 0
M  V30 17 C -2.722086 1.217215 2.324892 0
M  V30 18 C -1.835247 0.711658 1.391562 0
M  V30 19 S -0.320167 -0.341107 1.745339 0
M  V30 20 H 2.035624 -0.913874 2.239921 0
M  V30 21 H 3.649100 -2.264360 3.450677 0
M  V30 22 H 5.945287 -3.788345 2.780027 0
M  V30 23 H 4.386751 -4.545094 -0.023177 0
M  V30 24 H 2.792022 -3.224248 -1.225628 0
M  V30 25 H -0.709561 0.256885 -1.743474 0
M  V30 26 H -3.003343 1.776031 -1.512181 0
M  V30 27 H -4.733145 3.637119 -0.728726 0
M  V30 28 H -4.485826 2.388247 2.453578 0
M  V30 29 H -2.568852 1.014979 3.356764 0
M  V30 END ATOM
M  V30 BEGIN BOND
M  V30 1 2 1 2
M  V30 2 1 2 3
M  V30 3 2 3 4
M  V30 4 1 4 5
M  V30 5 2 5 6
M  V30 6 1 6 7
M  V30 7 1 6 8
M  V30 8 2 8 9
M  V30 9 1 2 10
M  V30 10 2 10 11
M  V30 11 1 11 12
M  V30 12 2 12 13
M  V30 13 1 13 14
M  V30 14 1 14 15
M  V30 15 2 14 16
M  V30 16 1 16 17
M  V30 17 2 17 18
M  V30 18 1 18 19
M  V30 19 1 9 3
M  V30 20 1 19 10
M  V30 21 1 18 12
M  V30 22 1 4 20
M  V30 23 1 5 21
M  V30 24 1 7 22
M  V30 25 1 8 23
M  V30 26 1 9 24
M  V30 27 1 11 25
M  V30 28 1 13 26
M  V30 29 1 15 27
M  V30 30 1 16 28
M  V30 31 1 17 29
M  V30 END BOND
M  V30 END CTAB
M  END
>  <Dataset>  (63) 
ChEMBL_Kinases

>  <Ligand_Instance>  (63) 
nan

>  <PDB_ID>  (63) 
nan

>  <Standardized_SMILES>  (63) 
O=C(c1ccc(O)cc1)c1cc2cc(O)ccc2s1

>  <Name>  (63) 
nan

>  <Pocket>  (63) 
nan

>  <ATP_Site>  (63) 
nan

>  <Peripheral>  (63) 
nan

>  <Num_H_Atoms_ProtBoundConf>  (63) 
nan

>  <Num_Resolved_Atoms>  (63) 
nan

>  <Num_Not_Resolved_Atoms>  (63) 
nan

$$$$
CHEMBL3335353
     RDKit          3D

  0  0  0  0  0  0  0  0  0  0999 V3000
M  V30 BEGIN CTAB
M  V30 COUNTS 33 35 0 0 0
M  V30 BEGIN ATOM
M  V30 1 C -0.874079 -0.443405 3.521872 0
M  V30 2 N -0.884730 -0.184548 2.112325 0
M  V30 3 C -0.108881 -0.566893 1.104297 0
M  V30 4 C 1.062664 -1.413084 1.248506 0
M  V30 5 O 1.485382 -1.655893 2.411790 0
M  V30 6 C 1.876779 -2.062402 0.230049 0
M  V30 7 C 1.421679 -2.423191 -1.018402 0
M  V30 8 C 2.202979 -3.010283 -1.997055 0
M  V30 9 C 3.529729 -3.261637 -1.725305 0
M  V30 10 C 4.049489 -2.923011 -0.486719 0
M  V30 11 O 5.391878 -3.150688 -0.142327 0
M  V30 12 C 3.206772 -2.338203 0.441339 0
M  V30 13 C -0.571050 -0.021529 -0.070330 0
M  V30 14 C -1.687556 0.737468 0.207239 0
M  V30 15 C -2.553726 1.507629 -0.578903 0
M  V30 16 C -3.615331 2.169985 0.033209 0
M  V30 17 O -4.409016 2.906317 -0.856763 0
M  V30 18 C -3.803469 2.066162 1.376459 0
M  V30 19 C -2.935650 1.301450 2.126010 0
M  V30 20 C -1.850573 0.611961 1.572288 0
M  V30 21 H -1.168373 0.518585 4.039647 0
M  V30 22 H -1.674037 -1.161019 3.846912 0
M  V30 23 H 0.099708 -0.714953 3.938967 0
M  V30 24 H 0.404709 -2.280634 -1.308686 0
M  V30 25 H 1.814744 -3.281271 -2.969823 0
M  V30 26 H 4.239327 -3.721131 -2.417371 0
M  V30 27 H 6.110033 -3.313519 -0.810815 0
M  V30 28 H 3.648197 -2.087594 1.397162 0
M  V30 29 H -0.226089 -0.076699 -1.094988 0
M  V30 30 H -2.380794 1.573314 -1.656822 0
M  V30 31 H -4.099633 3.867394 -0.982463 0
M  V30 32 H -4.637883 2.603340 1.749891 0
M  V30 33 H -3.122219 1.245909 3.193916 0
M  V30 END ATOM
M  V30 BEGIN BOND
M  V30 1 1 1 2
M  V30 2 1 2 3
M  V30 3 1 3 4
M  V30 4 2 4 5
M  V30 5 1 4 6
M  V30 6 2 6 7
M  V30 7 1 7 8
M  V30 8 2 8 9
M  V30 9 1 9 10
M  V30 10 1 10 11
M  V30 11 2 10 12
M  V30 12 2 3 13
M  V30 13 1 13 14
M  V30 14 2 14 15
M  V30 15 1 15 16
M  V30 16 1 16 17
M  V30 17 2 16 18
M  V30 18 1 18 19
M  V30 19 2 19 20
M  V30 20 1 20 2
M  V30 21 1 12 6
M  V30 22 1 20 14
M  V30 23 1 1 21
M  V30 24 1 1 22
M  V30 25 1 1 23
M  V30 26 1 7 24
M  V30 27 1 8 25
M  V30 28 1 9 26
M  V30 29 1 11 27
M  V30 30 1 12 28
M  V30 31 1 13 29
M  V30 32 1 15 30
M  V30 33 1 17 31
M  V30 34 1 18 32
M  V30 35 1 19 33
M  V30 END BOND
M  V30 END CTAB
M  END
>  <Dataset>  (64) 
ChEMBL_Kinases

>  <Ligand_Instance>  (64) 
nan

>  <PDB_ID>  (64) 
nan

>  <Standardized_SMILES>  (64) 
Cn1c(C(=O)c2cccc(O)c2)cc2cc(O)ccc21

>  <Name>  (64) 
nan

>  <Pocket>  (64) 
nan

>  <ATP_Site>  (64) 
nan

>  <Peripheral>  (64) 
nan

>  <Num_H_Atoms_ProtBoundConf>  (64) 
nan

>  <Num_Resolved_Atoms>  (64) 
nan

>  <Num_Not_Resolved_Atoms>  (64) 
nan

$$$$
CHEMBL4125914
     RDKit          3D

  0  0  0  0  0  0  0  0  0  0999 V3000
M  V30 BEGIN CTAB
M  V30 COUNTS 55 58 0 0 0
M  V30 BEGIN ATOM
M  V30 1 C 4.752864 -1.077635 5.473446 0
M  V30 2 C 5.113201 -1.882704 4.286198 0
M  V30 3 O 5.675646 -3.009742 4.461593 0
M  V30 4 C 4.871895 -1.481861 2.907924 0
M  V30 5 C 5.227594 -2.268455 1.839662 0
M  V30 6 C 4.997947 -1.878969 0.536141 0
M  V30 7 C 4.384749 -0.646582 0.312140 0
M  V30 8 F 4.178617 -0.307822 -0.971484 0
M  V30 9 C 4.020276 0.157278 1.399746 0
M  V30 10 C 3.383402 1.414885 0.997560 0
M  V30 11 C 3.863907 2.699702 0.721505 0
M  V30 12 N 2.838087 3.499467 0.394261 0
M  V30 13 C 1.662370 2.845508 0.425261 0
M  V30 14 C 0.332604 3.143837 0.186921 0
M  V30 15 C -0.682243 2.189071 0.308772 0
M  V30 16 C -0.355780 0.885722 0.682964 0
M  V30 17 C -1.413936 -0.105374 0.775461 0
M  V30 18 C -1.139936 -1.422530 1.113883 0
M  V30 19 N -2.097403 -2.351766 1.174647 0
M  V30 20 C -3.357872 -1.989953 0.897043 0
M  V30 21 C -3.681525 -0.697806 0.556445 0
M  V30 22 N -4.999872 -0.262453 0.197523 0
M  V30 23 C -5.637515 -1.332212 -0.594390 0
M  V30 24 C -4.775959 -1.466551 -1.838976 0
M  V30 25 N -5.230053 -2.474345 -2.750255 0
M  V30 26 C -4.357278 -2.457177 -3.947900 0
M  V30 27 C -5.003601 -3.814871 -2.174208 0
M  V30 28 N -2.687645 0.198291 0.510218 0
M  V30 29 C 0.975513 0.640269 0.908953 0
M  V30 30 C 2.003993 1.554795 0.799048 0
M  V30 31 C 4.264189 -0.258684 2.719972 0
M  V30 32 H 4.797128 0.018977 5.264351 0
M  V30 33 H 3.739049 -1.285472 5.872461 0
M  V30 34 H 5.536364 -1.290304 6.256572 0
M  V30 35 H 5.704000 -3.225342 2.056814 0
M  V30 36 H 5.288562 -2.516996 -0.272289 0
M  V30 37 H 4.923127 2.895628 0.793984 0
M  V30 38 H 2.918749 4.509037 0.142832 0
M  V30 39 H 0.168634 4.178592 -0.096938 0
M  V30 40 H -1.698523 2.524592 0.099573 0
M  V30 41 H -0.147218 -1.775785 1.345212 0
M  V30 42 H -4.110842 -2.747173 0.956073 0
M  V30 43 H -5.399050 0.678164 0.481335 0
M  V30 44 H -6.639596 -0.954691 -0.928428 0
M  V30 45 H -5.759729 -2.262669 -0.053622 0
M  V30 46 H -3.713219 -1.676166 -1.549501 0
M  V30 47 H -4.800771 -0.476441 -2.377299 0
M  V30 48 H -4.910646 -2.788140 -4.849111 0
M  V30 49 H -3.432764 -3.027200 -3.762664 0
M  V30 50 H -4.091963 -1.379071 -4.122232 0
M  V30 51 H -3.989639 -3.818996 -1.688430 0
M  V30 52 H -4.951307 -4.559579 -2.975048 0
M  V30 53 H -5.780822 -4.101675 -1.468815 0
M  V30 54 H 1.234965 -0.353265 1.194660 0
M  V30 55 H 3.934362 0.451708 3.477685 0
M  V30 END ATOM
M  V30 BEGIN BOND
M  V30 1 1 1 2
M  V30 2 2 2 3
M  V30 3 1 2 4
M  V30 4 2 4 5
M  V30 5 1 5 6
M  V30 6 2 6 7
M  V30 7 1 7 8
M  V30 8 1 7 9
M  V30 9 1 9 10
M  V30 10 2 10 11
M  V30 11 1 11 12
M  V30 12 1 12 13
M  V30 13 2 13 14
M  V30 14 1 14 15
M  V30 15 2 15 16
M  V30 16 1 16 17
M  V30 17 2 17 18
M  V30 18 1 18 19
M  V30 19 2 19 20
M  V30 20 1 20 21
M  V30 21 1 21 22
M  V30 22 1 22 23
M  V30 23 1 23 24
M  V30 24 1 24 25
M  V30 25 1 25 26
M  V30 26 1 25 27
M  V30 27 2 21 28
M  V30 28 1 16 29
M  V30 29 2 29 30
M  V30 30 2 9 31
M  V30 31 1 31 4
M  V30 32 1 30 10
M  V30 33 1 30 13
M  V30 34 1 28 17
M  V30 35 1 1 32
M  V30 36 1 1 33
M  V30 37 1 1 34
M  V30 38 1 5 35
M  V30 39 1 6 36
M  V30 40 1 11 37
M  V30 41 1 12 38
M  V30 42 1 14 39
M  V30 43 1 15 40
M  V30 44 1 18 41
M  V30 45 1 20 42
M  V30 46 1 22 43
M  V30 47 1 23 44
M  V30 48 1 23 45
M  V30 49 1 24 46
M  V30 50 1 24 47
M  V30 51 1 26 48
M  V30 52 1 26 49
M  V30 53 1 26 50
M  V30 54 1 27 51
M  V30 55 1 27 52
M  V30 56 1 27 53
M  V30 57 1 29 54
M  V30 58 1 31 55
M  V30 END BOND
M  V30 END CTAB
M  END
>  <Dataset>  (65) 
ChEMBL_Kinases

>  <Ligand_Instance>  (65) 
nan

>  <PDB_ID>  (65) 
nan

>  <Standardized_SMILES>  (65) 
CC(=O)c1ccc(F)c(-c2c[nH]c3ccc(-c4cncc(NCCN(C)C)n4)cc23)c1

>  <Name>  (65) 
nan

>  <Pocket>  (65) 
nan

>  <ATP_Site>  (65) 
nan

>  <Peripheral>  (65) 
nan

>  <Num_H_Atoms_ProtBoundConf>  (65) 
nan

>  <Num_Resolved_Atoms>  (65) 
nan

>  <Num_Not_Resolved_Atoms>  (65) 
nan

$$$$
CHEMBL4125999
     RDKit          3D

  0  0  0  0  0  0  0  0  0  0999 V3000
M  V30 BEGIN CTAB
M  V30 COUNTS 52 55 0 0 0
M  V30 BEGIN ATOM
M  V30 1 C 0.080976 -3.005526 4.271952 0
M  V30 2 N 1.367207 -3.611569 4.117003 0
M  V30 3 C 2.307875 -3.323734 5.161916 0
M  V30 4 C 1.903855 -3.466667 2.781637 0
M  V30 5 C 2.272132 -2.070838 2.405424 0
M  V30 6 N 2.787291 -2.101674 1.046770 0
M  V30 7 C 3.144979 -0.753856 0.682608 0
M  V30 8 C 4.367694 -0.130353 0.845478 0
M  V30 9 N 4.492180 1.149638 0.433548 0
M  V30 10 C 3.441501 1.784440 -0.118875 0
M  V30 11 C 2.218329 1.188314 -0.291513 0
M  V30 12 C 1.076188 1.871903 -0.889528 0
M  V30 13 C 1.070358 3.171747 -1.348994 0
M  V30 14 C -0.074647 3.728907 -1.902508 0
M  V30 15 C -1.242046 3.000025 -2.010159 0
M  V30 16 N -2.482846 3.225123 -2.476975 0
M  V30 17 C -3.265488 2.139712 -2.339415 0
M  V30 18 C -2.526503 1.121443 -1.749952 0
M  V30 19 C -2.990191 -0.218601 -1.418916 0
M  V30 20 C -3.718900 -0.999963 -2.289983 0
M  V30 21 C -4.187650 -2.271058 -2.036299 0
M  V30 22 C -3.902488 -2.825743 -0.783489 0
M  V30 23 C -3.173909 -2.051649 0.094931 0
M  V30 24 N -2.866127 -2.587545 1.381764 0
M  V30 25 C -2.706336 -0.767167 -0.175733 0
M  V30 26 C -1.274703 1.696040 -1.561191 0
M  V30 27 C -0.113786 1.184265 -1.018849 0
M  V30 28 N 2.119959 -0.085345 0.126540 0
M  V30 29 H 0.135326 -1.991564 4.716034 0
M  V30 30 H -0.598051 -3.649616 4.866753 0
M  V30 31 H -0.374805 -2.910129 3.268808 0
M  V30 32 H 1.757771 -3.438722 6.120055 0
M  V30 33 H 3.092313 -4.108281 5.140853 0
M  V30 34 H 2.706539 -2.293211 5.155448 0
M  V30 35 H 1.104723 -3.825022 2.095938 0
M  V30 36 H 2.802996 -4.096667 2.641779 0
M  V30 37 H 1.454052 -1.335599 2.531316 0
M  V30 38 H 3.101856 -1.700905 3.058340 0
M  V30 39 H 2.882036 -2.955442 0.437043 0
M  V30 40 H 5.120092 -0.770961 1.306413 0
M  V30 41 H 3.602707 2.810051 -0.429663 0
M  V30 42 H 1.991409 3.736009 -1.259966 0
M  V30 43 H -0.064667 4.744478 -2.256233 0
M  V30 44 H -2.818145 4.121253 -2.896439 0
M  V30 45 H -4.307322 2.043801 -2.630926 0
M  V30 46 H -3.927056 -0.541426 -3.261000 0
M  V30 47 H -4.752410 -2.857393 -2.732497 0
M  V30 48 H -4.213474 -3.810533 -0.465662 0
M  V30 49 H -2.198207 -3.386658 1.320804 0
M  V30 50 H -2.973460 -2.587928 2.399549 0
M  V30 51 H -2.140635 -0.238031 0.587318 0
M  V30 52 H -0.144153 0.155684 -0.667570 0
M  V30 END ATOM
M  V30 BEGIN BOND
M  V30 1 1 1 2
M  V30 2 1 2 3
M  V30 3 1 2 4
M  V30 4 1 4 5
M  V30 5 1 5 6
M  V30 6 1 6 7
M  V30 7 2 7 8
M  V30 8 1 8 9
M  V30 9 2 9 10
M  V30 10 1 10 11
M  V30 11 1 11 12
M  V30 12 2 12 13
M  V30 13 1 13 14
M  V30 14 2 14 15
M  V30 15 1 15 16
M  V30 16 1 16 17
M  V30 17 2 17 18
M  V30 18 1 18 19
M  V30 19 2 19 20
M  V30 20 1 20 21
M  V30 21 2 21 22
M  V30 22 1 22 23
M  V30 23 1 23 24
M  V30 24 2 23 25
M  V30 25 1 18 26
M  V30 26 2 26 27
M  V30 27 2 11 28
M  V30 28 1 28 7
M  V30 29 1 27 12
M  V30 30 1 26 15
M  V30 31 1 25 19
M  V30 32 1 1 29
M  V30 33 1 1 30
M  V30 34 1 1 31
M  V30 35 1 3 32
M  V30 36 1 3 33
M  V30 37 1 3 34
M  V30 38 1 4 35
M  V30 39 1 4 36
M  V30 40 1 5 37
M  V30 41 1 5 38
M  V30 42 1 6 39
M  V30 43 1 8 40
M  V30 44 1 10 41
M  V30 45 1 13 42
M  V30 46 1 14 43
M  V30 47 1 16 44
M  V30 48 1 17 45
M  V30 49 1 20 46
M  V30 50 1 21 47
M  V30 51 1 22 48
M  V30 52 1 24 49
M  V30 53 1 24 50
M  V30 54 1 25 51
M  V30 55 1 27 52
M  V30 END BOND
M  V30 END CTAB
M  END
>  <Dataset>  (66) 
ChEMBL_Kinases

>  <Ligand_Instance>  (66) 
nan

>  <PDB_ID>  (66) 
nan

>  <Standardized_SMILES>  (66) 
CN(C)CCNc1cncc(-c2ccc3[nH]cc(-c4cccc(N)c4)c3c2)n1

>  <Name>  (66) 
nan

>  <Pocket>  (66) 
nan

>  <ATP_Site>  (66) 
nan

>  <Peripheral>  (66) 
nan

>  <Num_H_Atoms_ProtBoundConf>  (66) 
nan

>  <Num_Resolved_Atoms>  (66) 
nan

>  <Num_Not_Resolved_Atoms>  (66) 
nan

$$$$
CHEMBL3335351
     RDKit          3D

  0  0  0  0  0  0  0  0  0  0999 V3000
M  V30 BEGIN CTAB
M  V30 COUNTS 29 31 0 0 0
M  V30 BEGIN ATOM
M  V30 1 O 2.536742 -0.952846 -0.780429 0
M  V30 2 C 1.758535 -1.012091 0.223149 0
M  V30 3 C 2.199303 -1.649596 1.455889 0
M  V30 4 C 1.616367 -1.504312 2.695807 0
M  V30 5 C 2.027941 -2.106902 3.846433 0
M  V30 6 C 3.141008 -2.954121 3.786583 0
M  V30 7 C 3.734357 -3.107663 2.548682 0
M  V30 8 O 4.842346 -3.977226 2.597737 0
M  V30 9 C 3.303160 -2.489202 1.396094 0
M  V30 10 C 0.442124 -0.410928 0.036723 0
M  V30 11 C 0.028381 0.176701 -1.142008 0
M  V30 12 C -1.280877 0.637723 -0.943162 0
M  V30 13 C -2.195751 1.293174 -1.740668 0
M  V30 14 C -3.470031 1.643671 -1.272091 0
M  V30 15 O -4.400392 2.301843 -2.059354 0
M  V30 16 C -3.668114 1.258951 0.033198 0
M  V30 17 C -2.843386 0.610953 0.912958 0
M  V30 18 C -1.590139 0.295892 0.368941 0
M  V30 19 O -0.549782 -0.311255 0.887820 0
M  V30 20 H 0.744401 -0.844958 2.753280 0
M  V30 21 H 1.539810 -1.962559 4.792266 0
M  V30 22 H 3.471177 -3.433073 4.696559 0
M  V30 23 H 5.728650 -3.523006 2.354662 0
M  V30 24 H 3.866214 -2.702162 0.490819 0
M  V30 25 H 0.531555 0.307073 -2.086620 0
M  V30 26 H -1.917006 1.545874 -2.770697 0
M  V30 27 H -4.074696 2.929862 -2.795233 0
M  V30 28 H -4.659557 1.513265 0.450019 0
M  V30 29 H -3.139445 0.374519 1.911337 0
M  V30 END ATOM
M  V30 BEGIN BOND
M  V30 1 2 1 2
M  V30 2 1 2 3
M  V30 3 2 3 4
M  V30 4 1 4 5
M  V30 5 2 5 6
M  V30 6 1 6 7
M  V30 7 1 7 8
M  V30 8 2 7 9
M  V30 9 1 2 10
M  V30 10 2 10 11
M  V30 11 1 11 12
M  V30 12 2 12 13
M  V30 13 1 13 14
M  V30 14 1 14 15
M  V30 15 2 14 16
M  V30 16 1 16 17
M  V30 17 2 17 18
M  V30 18 1 18 19
M  V30 19 1 9 3
M  V30 20 1 19 10
M  V30 21 1 18 12
M  V30 22 1 4 20
M  V30 23 1 5 21
M  V30 24 1 6 22
M  V30 25 1 8 23
M  V30 26 1 9 24
M  V30 27 1 11 25
M  V30 28 1 13 26
M  V30 29 1 15 27
M  V30 30 1 16 28
M  V30 31 1 17 29
M  V30 END BOND
M  V30 END CTAB
M  END
>  <Dataset>  (67) 
ChEMBL_Kinases

>  <Ligand_Instance>  (67) 
nan

>  <PDB_ID>  (67) 
nan

>  <Standardized_SMILES>  (67) 
O=C(c1cccc(O)c1)c1cc2cc(O)ccc2o1

>  <Name>  (67) 
nan

>  <Pocket>  (67) 
nan

>  <ATP_Site>  (67) 
nan

>  <Peripheral>  (67) 
nan

>  <Num_H_Atoms_ProtBoundConf>  (67) 
nan

>  <Num_Resolved_Atoms>  (67) 
nan

>  <Num_Not_Resolved_Atoms>  (67) 
nan

$$$$
CHEMBL4793492
     RDKit          3D

  0  0  0  0  0  0  0  0  0  0999 V3000
M  V30 BEGIN CTAB
M  V30 COUNTS 48 51 0 0 0
M  V30 BEGIN ATOM
M  V30 1 N 1.722681 -4.042681 -0.031493 0
M  V30 2 C 1.478161 -2.653905 -0.455286 0 CFG=1
M  V30 3 C 0.356889 -2.737744 -1.457337 0
M  V30 4 C -0.248974 -1.382335 -1.743102 0
M  V30 5 C 0.424111 -0.291852 -0.953118 0
M  V30 6 N 0.411731 -0.607523 0.460145 0
M  V30 7 C -0.107917 -0.075410 1.669088 0
M  V30 8 C 0.709754 0.737265 2.415203 0
M  V30 9 C 2.047318 1.219500 2.181543 0
M  V30 10 C 2.568734 1.921328 1.195771 0
M  V30 11 S 1.965104 2.656575 -0.351378 0
M  V30 12 C 3.083662 4.085517 -0.262947 0
M  V30 13 O 2.939204 5.258428 -0.641165 0
M  V30 14 N 4.200302 3.476685 0.375048 0
M  V30 15 C 3.990575 2.329233 1.158991 0
M  V30 16 O 4.930156 1.711586 1.770445 0
M  V30 17 C 0.159484 1.246400 3.600127 0
M  V30 18 C -1.119663 0.980111 4.036014 0
M  V30 19 C -1.895343 0.159386 3.246515 0
M  V30 20 C -1.394260 -0.377031 2.052517 0
M  V30 21 C -2.337162 -1.215035 1.350334 0
M  V30 22 C -3.575388 -0.591340 1.120576 0
M  V30 23 C -4.639376 -1.189492 0.479674 0
M  V30 24 C -4.511976 -2.464656 0.029898 0
M  V30 25 C -3.326203 -3.116827 0.228768 0
M  V30 26 C -2.294756 -2.478079 0.873170 0
M  V30 27 C 1.206671 -1.806068 0.736955 0
M  V30 28 H 2.336990 -4.068533 0.808851 0
M  V30 29 H 0.855645 -4.589865 0.067861 0
M  V30 30 H 2.448966 -2.361890 -0.956429 0
M  V30 31 H 0.822222 -3.182167 -2.385762 0
M  V30 32 H -0.390576 -3.446132 -1.082988 0
M  V30 33 H -0.085317 -1.173764 -2.839204 0
M  V30 34 H -1.348719 -1.368289 -1.621935 0
M  V30 35 H -0.096085 0.653696 -1.206545 0
M  V30 36 H 1.490295 -0.257457 -1.311664 0
M  V30 37 H 2.708906 0.915467 2.987738 0
M  V30 38 H 5.168889 3.908302 0.245342 0
M  V30 39 H 0.706280 1.908924 4.290840 0
M  V30 40 H -1.530449 1.377228 4.947577 0
M  V30 41 H -2.917955 -0.047260 3.603441 0
M  V30 42 H -3.788983 0.436112 1.440924 0
M  V30 43 H -5.577936 -0.692128 0.315171 0
M  V30 44 H -5.322425 -2.968591 -0.477090 0
M  V30 45 H -3.166920 -4.121605 -0.103371 0
M  V30 46 H -1.382450 -2.987566 1.034453 0
M  V30 47 H 2.231509 -1.446717 1.086319 0
M  V30 48 H 0.838620 -2.407014 1.566239 0
M  V30 END ATOM
M  V30 BEGIN BOND
M  V30 1 1 1 2
M  V30 2 1 2 3
M  V30 3 1 3 4
M  V30 4 1 4 5
M  V30 5 1 5 6
M  V30 6 1 6 7
M  V30 7 1 7 8
M  V30 8 1 8 9
M  V30 9 2 9 10
M  V30 10 1 10 11
M  V30 11 1 11 12
M  V30 12 2 12 13
M  V30 13 1 12 14
M  V30 14 1 14 15
M  V30 15 2 15 16
M  V30 16 2 8 17
M  V30 17 1 17 18
M  V30 18 2 18 19
M  V30 19 1 19 20
M  V30 20 1 20 21
M  V30 21 2 21 22
M  V30 22 1 22 23
M  V30 23 2 23 24
M  V30 24 1 24 25
M  V30 25 2 25 26
M  V30 26 1 6 27
M  V30 27 1 27 2
M  V30 28 2 20 7
M  V30 29 1 26 21
M  V30 30 1 15 10
M  V30 31 1 1 28
M  V30 32 1 1 29
M  V30 33 1 2 30 CFG=3
M  V30 34 1 3 31
M  V30 35 1 3 32
M  V30 36 1 4 33
M  V30 37 1 4 34
M  V30 38 1 5 35
M  V30 39 1 5 36
M  V30 40 1 9 37
M  V30 41 1 14 38
M  V30 42 1 17 39
M  V30 43 1 18 40
M  V30 44 1 19 41
M  V30 45 1 22 42
M  V30 46 1 23 43
M  V30 47 1 24 44
M  V30 48 1 25 45
M  V30 49 1 26 46
M  V30 50 1 27 47
M  V30 51 1 27 48
M  V30 END BOND
M  V30 END CTAB
M  END
>  <Dataset>  (68) 
ChEMBL_Kinases

>  <Ligand_Instance>  (68) 
nan

>  <PDB_ID>  (68) 
nan

>  <Standardized_SMILES>  (68) 
N[C@H]1CCCN(c2c(/C=C3\SC(=O)NC3=O)cccc2-c2ccccc2)C1

>  <Name>  (68) 
nan

>  <Pocket>  (68) 
nan

>  <ATP_Site>  (68) 
nan

>  <Peripheral>  (68) 
nan

>  <Num_H_Atoms_ProtBoundConf>  (68) 
nan

>  <Num_Resolved_Atoms>  (68) 
nan

>  <Num_Not_Resolved_Atoms>  (68) 
nan

$$$$
CHEMBL4126067
     RDKit          3D

  0  0  0  0  0  0  0  0  0  0999 V3000
M  V30 BEGIN CTAB
M  V30 COUNTS 75 80 0 0 0
M  V30 BEGIN ATOM
M  V30 1 C 4.003625 -2.046566 3.100325 0
M  V30 2 C 4.359204 -0.832942 2.271232 0 CFG=2
M  V30 3 C 5.815533 -1.038233 1.830085 0
M  V30 4 C 6.633817 -1.004750 3.068653 0
M  V30 5 O 7.360937 -1.931732 3.513748 0
M  V30 6 N 6.581426 0.215067 3.826041 0
M  V30 7 C 5.338023 0.947250 3.806145 0
M  V30 8 N 5.195335 2.093609 4.488288 0
M  V30 9 C 4.015961 2.743056 4.448150 0
M  V30 10 N 3.000350 2.234504 3.726914 0
M  V30 11 C 3.110011 1.070629 3.020708 0
M  V30 12 N 1.906540 0.719771 2.332685 0
M  V30 13 C 1.546273 0.498027 0.934856 0
M  V30 14 C 0.163272 1.124274 0.691798 0
M  V30 15 C -0.895836 0.343826 1.444582 0
M  V30 16 C -1.497126 -0.660469 0.547238 0
M  V30 17 N -0.619916 -1.603676 0.095088 0
M  V30 18 C -1.283443 -2.459366 -0.711906 0
M  V30 19 C -0.759502 -3.639623 -1.432492 0
M  V30 20 C -1.457699 -4.902345 -1.036198 0
M  V30 21 C -2.740418 -5.173708 -1.747450 0
M  V30 22 O -2.783274 -4.769532 -3.061563 0
M  V30 23 C -1.492339 -4.654822 -3.589748 0
M  V30 24 C -0.846072 -3.470541 -2.940306 0
M  V30 25 C -2.580545 -1.996466 -0.725483 0
M  V30 26 N -2.745877 -0.884930 0.043469 0
M  V30 27 C -3.823593 -0.030040 0.392130 0
M  V30 28 C -4.051460 1.167154 -0.456347 0
M  V30 29 N -4.326561 0.947979 -1.833893 0
M  V30 30 C -3.264223 0.460830 -2.641102 0
M  V30 31 C -3.078311 1.366983 -3.836327 0
M  V30 32 C -4.365251 2.161822 -3.855557 0
M  V30 33 C -4.860692 2.152297 -2.421612 0
M  V30 34 C -0.214808 -0.362866 2.591260 0
M  V30 35 C 0.784616 0.548200 3.268858 0
M  V30 36 C 4.316292 0.404272 3.059920 0
M  V30 37 H 3.311605 -2.684147 2.476169 0
M  V30 38 H 3.413081 -1.684204 3.973739 0
M  V30 39 H 4.873738 -2.623986 3.417858 0
M  V30 40 H 3.769682 -0.772538 1.334435 0
M  V30 41 H 5.869243 -2.031299 1.358480 0
M  V30 42 H 6.130984 -0.228603 1.139897 0
M  V30 43 H 7.405191 0.566970 4.373442 0
M  V30 44 H 3.962011 3.658805 5.016224 0
M  V30 45 H 2.236169 1.035019 0.253279 0
M  V30 46 H 1.484363 -0.576024 0.668207 0
M  V30 47 H 0.157948 2.188093 0.929083 0
M  V30 48 H -0.036346 1.006151 -0.383946 0
M  V30 49 H -1.613105 1.075965 1.830227 0
M  V30 50 H 0.324231 -3.729524 -1.146694 0
M  V30 51 H -1.636610 -4.946448 0.064495 0
M  V30 52 H -0.749478 -5.736316 -1.245465 0
M  V30 53 H -3.649448 -4.772906 -1.252741 0
M  V30 54 H -2.864032 -6.292654 -1.772159 0
M  V30 55 H -1.567289 -4.433271 -4.669411 0
M  V30 56 H -0.971538 -5.613782 -3.411738 0
M  V30 57 H -1.468847 -2.585395 -3.158668 0
M  V30 58 H 0.167285 -3.298725 -3.361301 0
M  V30 59 H -3.444725 -2.385565 -1.245942 0
M  V30 60 H -4.805760 -0.596109 0.409836 0
M  V30 61 H -3.731476 0.311859 1.466251 0
M  V30 62 H -3.196904 1.890707 -0.397868 0
M  V30 63 H -4.923887 1.764767 -0.051939 0
M  V30 64 H -3.464403 -0.562759 -3.061086 0
M  V30 65 H -2.290385 0.502027 -2.085625 0
M  V30 66 H -2.194832 2.019214 -3.709213 0
M  V30 67 H -2.958236 0.801597 -4.784715 0
M  V30 68 H -5.082663 1.698408 -4.555833 0
M  V30 69 H -4.124062 3.178695 -4.225113 0
M  V30 70 H -4.455532 3.071293 -1.925488 0
M  V30 71 H -5.954473 2.219504 -2.360359 0
M  V30 72 H -0.932889 -0.669247 3.386683 0
M  V30 73 H 0.315861 -1.275847 2.288154 0
M  V30 74 H 0.317273 1.547953 3.467730 0
M  V30 75 H 1.090099 0.144265 4.239777 0
M  V30 END ATOM
M  V30 BEGIN BOND
M  V30 1 1 1 2
M  V30 2 1 2 3
M  V30 3 1 3 4
M  V30 4 2 4 5
M  V30 5 1 4 6
M  V30 6 1 6 7
M  V30 7 2 7 8
M  V30 8 1 8 9
M  V30 9 2 9 10
M  V30 10 1 10 11
M  V30 11 1 11 12
M  V30 12 1 12 13
M  V30 13 1 13 14
M  V30 14 1 14 15
M  V30 15 1 15 16
M  V30 16 2 16 17
M  V30 17 1 17 18
M  V30 18 1 18 19
M  V30 19 1 19 20
M  V30 20 1 20 21
M  V30 21 1 21 22
M  V30 22 1 22 23
M  V30 23 1 23 24
M  V30 24 2 18 25
M  V30 25 1 25 26
M  V30 26 1 26 27
M  V30 27 1 27 28
M  V30 28 1 28 29
M  V30 29 1 29 30
M  V30 30 1 30 31
M  V30 31 1 31 32
M  V30 32 1 32 33
M  V30 33 1 15 34
M  V30 34 1 34 35
M  V30 35 2 11 36
M  V30 36 1 36 2
M  V30 37 1 36 7
M  V30 38 1 35 12
M  V30 39 1 26 16
M  V30 40 1 33 29
M  V30 41 1 24 19
M  V30 42 1 1 37
M  V30 43 1 1 38
M  V30 44 1 1 39
M  V30 45 1 2 40 CFG=3
M  V30 46 1 3 41
M  V30 47 1 3 42
M  V30 48 1 6 43
M  V30 49 1 9 44
M  V30 50 1 13 45
M  V30 51 1 13 46
M  V30 52 1 14 47
M  V30 53 1 14 48
M  V30 54 1 15 49
M  V30 55 1 19 50
M  V30 56 1 20 51
M  V30 57 1 20 52
M  V30 58 1 21 53
M  V30 59 1 21 54
M  V30 60 1 23 55
M  V30 61 1 23 56
M  V30 62 1 24 57
M  V30 63 1 24 58
M  V30 64 1 25 59
M  V30 65 1 27 60
M  V30 66 1 27 61
M  V30 67 1 28 62
M  V30 68 1 28 63
M  V30 69 1 30 64
M  V30 70 1 30 65
M  V30 71 1 31 66
M  V30 72 1 31 67
M  V30 73 1 32 68
M  V30 74 1 32 69
M  V30 75 1 33 70
M  V30 76 1 33 71
M  V30 77 1 34 72
M  V30 78 1 34 73
M  V30 79 1 35 74
M  V30 80 1 35 75
M  V30 END BOND
M  V30 END CTAB
M  END
>  <Dataset>  (69) 
ChEMBL_Kinases

>  <Ligand_Instance>  (69) 
nan

>  <PDB_ID>  (69) 
nan

>  <Standardized_SMILES>  (69) 
C[C@@H]1CC(=O)Nc2ncnc(N3CCC(c4nc(C5CCOCC5)cn4CCN4CCCC4)CC3)c21

>  <Name>  (69) 
nan

>  <Pocket>  (69) 
nan

>  <ATP_Site>  (69) 
nan

>  <Peripheral>  (69) 
nan

>  <Num_H_Atoms_ProtBoundConf>  (69) 
nan

>  <Num_Resolved_Atoms>  (69) 
nan

>  <Num_Not_Resolved_Atoms>  (69) 
nan

$$$$
CHEMBL4792507
     RDKit          3D

  0  0  0  0  0  0  0  0  0  0999 V3000
M  V30 BEGIN CTAB
M  V30 COUNTS 59 64 0 0 0
M  V30 BEGIN ATOM
M  V30 1 C 1.603321 -2.054825 6.318750 0
M  V30 2 C 2.938225 -2.494768 5.708007 0
M  V30 3 C 3.026541 -3.991458 6.019784 0
M  V30 4 C 2.761670 -2.347827 4.241145 0
M  V30 5 O 1.560725 -1.918367 4.193171 0
M  V30 6 N 3.565295 -2.568185 3.105664 0
M  V30 7 C 2.805517 -2.231686 1.947634 0
M  V30 8 C 2.063564 -3.249000 1.382233 0
M  V30 9 N 1.343029 -2.910570 0.276066 0
M  V30 10 C 1.382334 -1.646757 -0.202180 0
M  V30 11 C 2.123093 -0.621242 0.358149 0
M  V30 12 C 2.067563 0.698606 -0.269787 0
M  V30 13 C 3.090524 1.628766 -0.290336 0
M  V30 14 C 2.924690 2.848737 -0.915728 0
M  V30 15 C 1.733661 3.167036 -1.534488 0
M  V30 16 N 1.244797 4.240155 -2.220739 0
M  V30 17 N -0.003465 3.999928 -2.606019 0
M  V30 18 C -0.398662 2.786327 -2.206284 0
M  V30 19 C -1.676721 2.117920 -2.406873 0
M  V30 20 N -1.998666 0.894736 -1.973359 0
M  V30 21 C -3.242710 0.607089 -2.334932 0
M  V30 22 C -3.959588 -0.551869 -2.087549 0
M  V30 23 C -3.357198 -1.656492 -1.342059 0
M  V30 24 C -3.379362 -1.863167 0.024301 0
M  V30 25 C -2.753170 -2.968519 0.561822 0
M  V30 26 C -2.092772 -3.898552 -0.200004 0
M  V30 27 C -2.070054 -3.691616 -1.572995 0
M  V30 28 C -2.689195 -2.594159 -2.129997 0
M  V30 29 F -2.604746 -2.489063 -3.490895 0
M  V30 30 C -5.261699 -0.600881 -2.581599 0
M  V30 31 N -5.780090 0.434418 -3.262297 0
M  V30 32 C -5.054268 1.541577 -3.482378 0
M  V30 33 C -3.757621 1.700526 -3.040904 0
M  V30 34 N -2.754648 2.594066 -3.052998 0
M  V30 35 C 0.691594 2.281037 -1.541752 0
M  V30 36 C 0.895704 1.071568 -0.906034 0
M  V30 37 C 2.862540 -0.935281 1.479388 0
M  V30 38 H 0.802057 -2.633879 5.815095 0
M  V30 39 H 1.549240 -2.278752 7.382797 0
M  V30 40 H 1.403165 -0.982139 6.075467 0
M  V30 41 H 3.781873 -1.934548 6.107090 0
M  V30 42 H 4.007903 -4.419678 5.814512 0
M  V30 43 H 2.667298 -4.117365 7.060029 0
M  V30 44 H 2.227095 -4.460647 5.381452 0
M  V30 45 H 4.504203 -2.921949 3.458678 0
M  V30 46 H 2.057334 -4.250265 1.794477 0
M  V30 47 H 0.759114 -1.551184 -1.076260 0
M  V30 48 H 4.008967 1.344888 0.204502 0
M  V30 49 H 3.725113 3.564943 -0.926492 0
M  V30 50 H 1.797429 5.108547 -2.399613 0
M  V30 51 H -3.909213 -1.107126 0.579536 0
M  V30 52 H -2.787281 -3.102728 1.629090 0
M  V30 53 H -1.601189 -4.767284 0.227793 0
M  V30 54 H -1.548759 -4.426478 -2.171546 0
M  V30 55 H -5.804122 -1.522697 -2.373866 0
M  V30 56 H -5.454902 2.398631 -4.034463 0
M  V30 57 H -2.873548 3.512457 -3.521498 0
M  V30 58 H 0.064403 0.359160 -0.909282 0
M  V30 59 H 3.442940 -0.155048 1.928122 0
M  V30 END ATOM
M  V30 BEGIN BOND
M  V30 1 1 1 2
M  V30 2 1 2 3
M  V30 3 1 2 4
M  V30 4 2 4 5
M  V30 5 1 4 6
M  V30 6 1 6 7
M  V30 7 2 7 8
M  V30 8 1 8 9
M  V30 9 2 9 10
M  V30 10 1 10 11
M  V30 11 1 11 12
M  V30 12 2 12 13
M  V30 13 1 13 14
M  V30 14 2 14 15
M  V30 15 1 15 16
M  V30 16 1 16 17
M  V30 17 2 17 18
M  V30 18 1 18 19
M  V30 19 2 19 20
M  V30 20 1 20 21
M  V30 21 2 21 22
M  V30 22 1 22 23
M  V30 23 2 23 24
M  V30 24 1 24 25
M  V30 25 2 25 26
M  V30 26 1 26 27
M  V30 27 2 27 28
M  V30 28 1 28 29
M  V30 29 1 22 30
M  V30 30 2 30 31
M  V30 31 1 31 32
M  V30 32 2 32 33
M  V30 33 1 33 34
M  V30 34 1 18 35
M  V30 35 2 35 36
M  V30 36 2 11 37
M  V30 37 1 37 7
M  V30 38 1 36 12
M  V30 39 1 35 15
M  V30 40 1 34 19
M  V30 41 1 33 21
M  V30 42 1 28 23
M  V30 43 1 1 38
M  V30 44 1 1 39
M  V30 45 1 1 40
M  V30 46 1 2 41
M  V30 47 1 3 42
M  V30 48 1 3 43
M  V30 49 1 3 44
M  V30 50 1 6 45
M  V30 51 1 8 46
M  V30 52 1 10 47
M  V30 53 1 13 48
M  V30 54 1 14 49
M  V30 55 1 16 50
M  V30 56 1 24 51
M  V30 57 1 25 52
M  V30 58 1 26 53
M  V30 59 1 27 54
M  V30 60 1 30 55
M  V30 61 1 32 56
M  V30 62 1 34 57
M  V30 63 1 36 58
M  V30 64 1 37 59
M  V30 END BOND
M  V30 END CTAB
M  END
>  <Dataset>  (70) 
ChEMBL_Kinases

>  <Ligand_Instance>  (70) 
nan

>  <PDB_ID>  (70) 
nan

>  <Standardized_SMILES>  (70) 
CC(C)C(=O)Nc1cncc(-c2ccc3[nH]nc(-c4nc5c(-c6ccccc6F)cncc5[nH]4)c3c2)c1

>  <Name>  (70) 
nan

>  <Pocket>  (70) 
nan

>  <ATP_Site>  (70) 
nan

>  <Peripheral>  (70) 
nan

>  <Num_H_Atoms_ProtBoundConf>  (70) 
nan

>  <Num_Resolved_Atoms>  (70) 
nan

>  <Num_Not_Resolved_Atoms>  (70) 
nan

$$$$
CHEMBL4790169
     RDKit          3D

  0  0  0  0  0  0  0  0  0  0999 V3000
M  V30 BEGIN CTAB
M  V30 COUNTS 60 65 0 0 0
M  V30 BEGIN ATOM
M  V30 1 C 7.329850 -0.003124 4.706317 0
M  V30 2 C 8.121433 -0.011103 3.416740 0
M  V30 3 C 8.310720 -1.406081 2.879733 0
M  V30 4 C 7.037343 -2.125138 2.573261 0
M  V30 5 C 6.298368 -1.331052 1.539304 0
M  V30 6 O 6.469579 -0.256337 0.885026 0
M  V30 7 N 5.091619 -2.035612 1.271845 0
M  V30 8 C 3.988290 -1.800118 0.402017 0
M  V30 9 C 3.967625 -2.290585 -0.903970 0
M  V30 10 N 2.885984 -2.039009 -1.699771 0
M  V30 11 C 1.858568 -1.322463 -1.210914 0
M  V30 12 C 1.788348 -0.797464 0.063178 0
M  V30 13 C 0.645556 -0.024180 0.549497 0
M  V30 14 C 0.873213 0.969873 1.489631 0
M  V30 15 C -0.217363 1.697618 1.947433 0
M  V30 16 C -1.470433 1.407413 1.455336 0
M  V30 17 N -2.687772 1.922524 1.698855 0
M  V30 18 N -3.602011 1.311229 0.979432 0
M  V30 19 C -3.058452 0.340189 0.200689 0
M  V30 20 C -3.775439 -0.526148 -0.711819 0
M  V30 21 C -5.159622 -0.418067 -0.861904 0
M  V30 22 C -5.629643 -1.326483 -1.766413 0
M  V30 23 C -6.874601 -1.638962 -2.272595 0
M  V30 24 C -8.048974 -0.907526 -1.814947 0
M  V30 25 C -9.146273 -0.309035 -2.446789 0
M  V30 26 C -9.959541 0.243988 -1.455217 0
M  V30 27 O -9.381746 -0.009213 -0.297510 0
M  V30 28 C -8.277126 -0.672390 -0.471445 0
M  V30 29 C -6.913702 -2.661521 -3.205031 0
M  V30 30 N -5.864398 -3.344518 -3.634682 0
M  V30 31 C -4.639499 -3.039554 -3.138526 0
M  V30 32 C -4.545630 -2.027184 -2.205474 0
M  V30 33 N -3.490015 -1.513772 -1.552866 0
M  V30 34 C -1.727023 0.440645 0.534414 0
M  V30 35 C -0.632210 -0.269431 0.093379 0
M  V30 36 C 2.909175 -1.069859 0.857181 0
M  V30 37 H 7.538867 -0.930488 5.284702 0
M  V30 38 H 6.252548 0.100322 4.555280 0
M  V30 39 H 7.684257 0.840604 5.335659 0
M  V30 40 H 7.616352 0.664891 2.700845 0
M  V30 41 H 9.130265 0.378334 3.668696 0
M  V30 42 H 8.909130 -1.968361 3.616060 0
M  V30 43 H 8.898033 -1.293343 1.934708 0
M  V30 44 H 6.417405 -2.237566 3.491686 0
M  V30 45 H 7.316524 -3.110283 2.154547 0
M  V30 46 H 4.687297 -2.939763 1.657140 0
M  V30 47 H 4.855140 -2.855998 -1.187457 0
M  V30 48 H 1.024996 -1.157905 -1.899939 0
M  V30 49 H 1.853636 1.183478 1.862216 0
M  V30 50 H -0.092828 2.478810 2.676387 0
M  V30 51 H -2.960580 2.699343 2.350882 0
M  V30 52 H -5.845727 0.260933 -0.372920 0
M  V30 53 H -9.177961 -0.372454 -3.544037 0
M  V30 54 H -10.844571 0.736482 -1.834205 0
M  V30 55 H -7.764919 -0.905050 0.448655 0
M  V30 56 H -7.901867 -2.907098 -3.604915 0
M  V30 57 H -3.753591 -3.572685 -3.461480 0
M  V30 58 H -2.532015 -1.870405 -1.703789 0
M  V30 59 H -0.730986 -1.046508 -0.627370 0
M  V30 60 H 2.903071 -0.677802 1.870126 0
M  V30 END ATOM
M  V30 BEGIN BOND
M  V30 1 1 1 2
M  V30 2 1 2 3
M  V30 3 1 3 4
M  V30 4 1 4 5
M  V30 5 2 5 6
M  V30 6 1 5 7
M  V30 7 1 7 8
M  V30 8 2 8 9
M  V30 9 1 9 10
M  V30 10 2 10 11
M  V30 11 1 11 12
M  V30 12 1 12 13
M  V30 13 2 13 14
M  V30 14 1 14 15
M  V30 15 2 15 16
M  V30 16 1 16 17
M  V30 17 1 17 18
M  V30 18 2 18 19
M  V30 19 1 19 20
M  V30 20 2 20 21
M  V30 21 1 21 22
M  V30 22 2 22 23
M  V30 23 1 23 24
M  V30 24 1 24 25
M  V30 25 2 25 26
M  V30 26 1 26 27
M  V30 27 1 27 28
M  V30 28 1 23 29
M  V30 29 2 29 30
M  V30 30 1 30 31
M  V30 31 2 31 32
M  V30 32 1 32 33
M  V30 33 1 19 34
M  V30 34 2 34 35
M  V30 35 2 12 36
M  V30 36 1 36 8
M  V30 37 1 35 13
M  V30 38 1 34 16
M  V30 39 1 33 20
M  V30 40 1 32 22
M  V30 41 2 28 24
M  V30 42 1 1 37
M  V30 43 1 1 38
M  V30 44 1 1 39
M  V30 45 1 2 40
M  V30 46 1 2 41
M  V30 47 1 3 42
M  V30 48 1 3 43
M  V30 49 1 4 44
M  V30 50 1 4 45
M  V30 51 1 7 46
M  V30 52 1 9 47
M  V30 53 1 11 48
M  V30 54 1 14 49
M  V30 55 1 15 50
M  V30 56 1 17 51
M  V30 57 1 21 52
M  V30 58 1 25 53
M  V30 59 1 26 54
M  V30 60 1 28 55
M  V30 61 1 29 56
M  V30 62 1 31 57
M  V30 63 1 33 58
M  V30 64 1 35 59
M  V30 65 1 36 60
M  V30 END BOND
M  V30 END CTAB
M  END
>  <Dataset>  (71) 
ChEMBL_Kinases

>  <Ligand_Instance>  (71) 
nan

>  <PDB_ID>  (71) 
nan

>  <Standardized_SMILES>  (71) 
CCCCC(=O)Nc1cncc(-c2ccc3[nH]nc(-c4cc5c(-c6ccoc6)cncc5[nH]4)c3c2)c1

>  <Name>  (71) 
nan

>  <Pocket>  (71) 
nan

>  <ATP_Site>  (71) 
nan

>  <Peripheral>  (71) 
nan

>  <Num_H_Atoms_ProtBoundConf>  (71) 
nan

>  <Num_Resolved_Atoms>  (71) 
nan

>  <Num_Not_Resolved_Atoms>  (71) 
nan

$$$$
CHEMBL4787474
     RDKit          3D

  0  0  0  0  0  0  0  0  0  0999 V3000
M  V30 BEGIN CTAB
M  V30 COUNTS 59 64 0 0 0
M  V30 BEGIN ATOM
M  V30 1 C 5.652419 -4.226319 4.908442 0
M  V30 2 C 6.041588 -2.815947 5.223605 0
M  V30 3 C 7.148041 -2.840613 6.256247 0
M  V30 4 C 6.502042 -2.064568 3.977324 0
M  V30 5 C 5.371064 -2.047314 2.984470 0
M  V30 6 O 4.464303 -2.682813 3.580409 0
M  V30 7 N 5.496944 -1.409101 1.722147 0
M  V30 8 C 4.256609 -1.563810 1.003655 0
M  V30 9 C 4.129769 -2.676732 0.195870 0
M  V30 10 N 2.958185 -2.789906 -0.459566 0
M  V30 11 C 1.952785 -1.899844 -0.361085 0
M  V30 12 C 2.048887 -0.779284 0.436697 0
M  V30 13 C 1.021350 0.246822 0.615865 0
M  V30 14 C -0.205699 0.223622 -0.006100 0
M  V30 15 C -1.183407 1.167747 0.143318 0
M  V30 16 C -2.441170 1.283061 -0.400546 0
M  V30 17 C -3.183467 0.451086 -1.323726 0
M  V30 18 N -4.432006 0.788647 -1.710608 0
M  V30 19 C -4.947922 -0.100455 -2.559553 0
M  V30 20 C -6.172523 -0.180853 -3.214864 0
M  V30 21 C -7.176116 0.847335 -3.018892 0
M  V30 22 C -6.947614 2.216480 -3.025365 0
M  V30 23 C -8.212309 2.761274 -2.796563 0
M  V30 24 O -9.114917 1.840364 -2.664396 0
M  V30 25 C -8.530499 0.661004 -2.792155 0
M  V30 26 C -6.423367 -1.253568 -4.056962 0
M  V30 27 C -5.434996 -2.223606 -4.221602 0
M  V30 28 C -4.217693 -2.155187 -3.577782 0
M  V30 29 C -3.999450 -1.079451 -2.749685 0
M  V30 30 N -2.990706 -0.685677 -1.990628 0
M  V30 31 N -2.881893 2.441733 0.158309 0
M  V30 32 N -1.981057 2.967190 0.955260 0
M  V30 33 C -0.889862 2.214447 0.989711 0
M  V30 34 C 0.328424 2.264776 1.625464 0
M  V30 35 N 1.252907 1.308206 1.441448 0
M  V30 36 C 3.238005 -0.633683 1.122444 0
M  V30 37 H 6.220841 -4.961218 5.540511 0
M  V30 38 H 5.858455 -4.536824 3.867464 0
M  V30 39 H 4.580083 -4.399032 5.201398 0
M  V30 40 H 5.211920 -2.232230 5.684458 0
M  V30 41 H 7.792954 -1.952506 6.248636 0
M  V30 42 H 6.726073 -2.946513 7.289276 0
M  V30 43 H 7.716553 -3.799720 6.097854 0
M  V30 44 H 7.319666 -2.668725 3.532237 0
M  V30 45 H 6.788482 -1.046817 4.233750 0
M  V30 46 H 6.414336 -0.953443 1.521018 0
M  V30 47 H 4.939503 -3.390912 0.118270 0
M  V30 48 H 1.039325 -2.038624 -0.905963 0
M  V30 49 H -0.366026 -0.618665 -0.649562 0
M  V30 50 H -6.009210 2.748430 -3.173030 0
M  V30 51 H -8.329331 3.840189 -2.750928 0
M  V30 52 H -8.977323 -0.315870 -2.739081 0
M  V30 53 H -7.375897 -1.305643 -4.559694 0
M  V30 54 H -5.619351 -3.062448 -4.874550 0
M  V30 55 H -3.429090 -2.887755 -3.681476 0
M  V30 56 H -2.116170 -1.238213 -1.931570 0
M  V30 57 H -2.148815 3.858751 1.469854 0
M  V30 58 H 0.530322 3.094920 2.281590 0
M  V30 59 H 3.404916 0.222866 1.778484 0
M  V30 END ATOM
M  V30 BEGIN BOND
M  V30 1 1 1 2
M  V30 2 1 2 3
M  V30 3 1 2 4
M  V30 4 1 4 5
M  V30 5 2 5 6
M  V30 6 1 5 7
M  V30 7 1 7 8
M  V30 8 2 8 9
M  V30 9 1 9 10
M  V30 10 2 10 11
M  V30 11 1 11 12
M  V30 12 1 12 13
M  V30 13 2 13 14
M  V30 14 1 14 15
M  V30 15 1 15 16
M  V30 16 1 16 17
M  V30 17 2 17 18
M  V30 18 1 18 19
M  V30 19 2 19 20
M  V30 20 1 20 21
M  V30 21 1 21 22
M  V30 22 2 22 23
M  V30 23 1 23 24
M  V30 24 1 24 25
M  V30 25 1 20 26
M  V30 26 2 26 27
M  V30 27 1 27 28
M  V30 28 2 28 29
M  V30 29 1 29 30
M  V30 30 2 16 31
M  V30 31 1 31 32
M  V30 32 1 32 33
M  V30 33 1 33 34
M  V30 34 2 34 35
M  V30 35 2 12 36
M  V30 36 1 36 8
M  V30 37 1 35 13
M  V30 38 2 33 15
M  V30 39 1 30 17
M  V30 40 1 29 19
M  V30 41 2 25 21
M  V30 42 1 1 37
M  V30 43 1 1 38
M  V30 44 1 1 39
M  V30 45 1 2 40
M  V30 46 1 3 41
M  V30 47 1 3 42
M  V30 48 1 3 43
M  V30 49 1 4 44
M  V30 50 1 4 45
M  V30 51 1 7 46
M  V30 52 1 9 47
M  V30 53 1 11 48
M  V30 54 1 14 49
M  V30 55 1 22 50
M  V30 56 1 23 51
M  V30 57 1 25 52
M  V30 58 1 26 53
M  V30 59 1 27 54
M  V30 60 1 28 55
M  V30 61 1 30 56
M  V30 62 1 32 57
M  V30 63 1 34 58
M  V30 64 1 36 59
M  V30 END BOND
M  V30 END CTAB
M  END
>  <Dataset>  (72) 
ChEMBL_Kinases

>  <Ligand_Instance>  (72) 
nan

>  <PDB_ID>  (72) 
nan

>  <Standardized_SMILES>  (72) 
CC(C)CC(=O)Nc1cncc(-c2cc3c(-c4nc5c(-c6ccoc6)cccc5[nH]4)n[nH]c3cn2)c1

>  <Name>  (72) 
nan

>  <Pocket>  (72) 
nan

>  <ATP_Site>  (72) 
nan

>  <Peripheral>  (72) 
nan

>  <Num_H_Atoms_ProtBoundConf>  (72) 
nan

>  <Num_Resolved_Atoms>  (72) 
nan

>  <Num_Not_Resolved_Atoms>  (72) 
nan

$$$$
CHEMBL4793590
     RDKit          3D

  0  0  0  0  0  0  0  0  0  0999 V3000
M  V30 BEGIN CTAB
M  V30 COUNTS 64 70 0 0 0
M  V30 BEGIN ATOM
M  V30 1 O 2.688144 1.622839 2.272760 0
M  V30 2 C 2.978864 0.389378 2.411997 0
M  V30 3 N 3.560237 -0.192607 1.249389 0
M  V30 4 C 3.661844 0.799403 0.210018 0
M  V30 5 C 4.758643 1.637615 0.009012 0
M  V30 6 N 4.727290 2.524774 -1.002270 0
M  V30 7 C 3.671114 2.631603 -1.828982 0
M  V30 8 C 2.570827 1.849011 -1.692428 0
M  V30 9 C 1.382149 1.896767 -2.541583 0
M  V30 10 C 1.259813 2.772619 -3.600292 0
M  V30 11 C 0.158668 2.841036 -4.413542 0
M  V30 12 C -0.910952 2.000018 -4.191426 0
M  V30 13 N -2.120859 1.752513 -4.725189 0
M  V30 14 N -2.738128 0.782632 -4.056701 0
M  V30 15 C -1.929951 0.360101 -3.044569 0
M  V30 16 C -2.203400 -0.685374 -2.061973 0
M  V30 17 N -3.326847 -1.412095 -2.003918 0
M  V30 18 C -3.199751 -2.253970 -0.980404 0
M  V30 19 C -4.070716 -3.210927 -0.496806 0
M  V30 20 C -5.387896 -3.496437 -1.059957 0
M  V30 21 C -5.608869 -3.619712 -2.427343 0
M  V30 22 C -6.921273 -3.893823 -2.813659 0
M  V30 23 N -7.938421 -4.037119 -1.945610 0
M  V30 24 C -7.725963 -3.918120 -0.622893 0
M  V30 25 C -6.457540 -3.648484 -0.169759 0
M  V30 26 C -3.705515 -3.971722 0.595588 0
M  V30 27 C -2.470557 -3.758816 1.184935 0
M  V30 28 N -1.593091 -2.818940 0.724739 0
M  V30 29 C -1.980869 -2.083693 -0.354301 0
M  V30 30 N -1.390057 -1.088911 -1.067688 0
M  V30 31 C -0.778234 1.128632 -3.130774 0
M  V30 32 N 0.320639 1.067705 -2.327363 0
M  V30 33 C 2.588446 0.934318 -0.659569 0
M  V30 34 C 2.736996 -0.373207 3.663974 0
M  V30 35 C 4.038172 -0.910807 4.201558 0
M  V30 36 C 3.899518 -1.391442 5.610063 0
M  V30 37 C 2.466147 -1.432998 6.095168 0
M  V30 38 C 1.789319 -0.087854 5.965015 0
M  V30 39 C 2.208817 0.614612 4.699060 0
M  V30 40 H 3.838550 -1.214951 1.261468 0
M  V30 41 H 5.553317 1.478950 0.718375 0
M  V30 42 H 3.690310 3.356791 -2.625724 0
M  V30 43 H 2.057165 3.463237 -3.836979 0
M  V30 44 H 0.064969 3.531757 -5.246663 0
M  V30 45 H -2.492781 2.284804 -5.567750 0
M  V30 46 H -4.793772 -3.504050 -3.109291 0
M  V30 47 H -7.139600 -3.998376 -3.873623 0
M  V30 48 H -8.581809 -4.042363 0.045090 0
M  V30 49 H -6.266000 -3.547950 0.909538 0
M  V30 50 H -4.276583 -4.750571 1.081444 0
M  V30 51 H -2.106066 -4.323160 2.057829 0
M  V30 52 H -0.453970 -0.674616 -0.902909 0
M  V30 53 H 1.730693 0.290597 -0.515505 0
M  V30 54 H 2.000891 -1.175133 3.551213 0
M  V30 55 H 4.785569 -0.077848 4.202066 0
M  V30 56 H 4.374583 -1.764897 3.574949 0
M  V30 57 H 4.454973 -0.748412 6.331926 0
M  V30 58 H 4.277189 -2.447758 5.724615 0
M  V30 59 H 1.890201 -2.174140 5.532086 0
M  V30 60 H 2.486217 -1.680751 7.172573 0
M  V30 61 H 0.695399 -0.270615 5.883271 0
M  V30 62 H 1.920737 0.553336 6.860694 0
M  V30 63 H 1.413399 1.260713 4.294169 0
M  V30 64 H 3.080130 1.271507 4.936578 0
M  V30 END ATOM
M  V30 BEGIN BOND
M  V30 1 2 1 2
M  V30 2 1 2 3
M  V30 3 1 3 4
M  V30 4 2 4 5
M  V30 5 1 5 6
M  V30 6 2 6 7
M  V30 7 1 7 8
M  V30 8 1 8 9
M  V30 9 2 9 10
M  V30 10 1 10 11
M  V30 11 2 11 12
M  V30 12 1 12 13
M  V30 13 1 13 14
M  V30 14 2 14 15
M  V30 15 1 15 16
M  V30 16 2 16 17
M  V30 17 1 17 18
M  V30 18 2 18 19
M  V30 19 1 19 20
M  V30 20 2 20 21
M  V30 21 1 21 22
M  V30 22 2 22 23
M  V30 23 1 23 24
M  V30 24 2 24 25
M  V30 25 1 19 26
M  V30 26 2 26 27
M  V30 27 1 27 28
M  V30 28 2 28 29
M  V30 29 1 29 30
M  V30 30 1 15 31
M  V30 31 2 31 32
M  V30 32 2 8 33
M  V30 33 1 2 34
M  V30 34 1 34 35
M  V30 35 1 35 36
M  V30 36 1 36 37
M  V30 37 1 37 38
M  V30 38 1 38 39
M  V30 39 1 33 4
M  V30 40 1 39 34
M  V30 41 1 32 9
M  V30 42 1 31 12
M  V30 43 1 30 16
M  V30 44 1 29 18
M  V30 45 1 25 20
M  V30 46 1 3 40
M  V30 47 1 5 41
M  V30 48 1 7 42
M  V30 49 1 10 43
M  V30 50 1 11 44
M  V30 51 1 13 45
M  V30 52 1 21 46
M  V30 53 1 22 47
M  V30 54 1 24 48
M  V30 55 1 25 49
M  V30 56 1 26 50
M  V30 57 1 27 51
M  V30 58 1 30 52
M  V30 59 1 33 53
M  V30 60 1 34 54
M  V30 61 1 35 55
M  V30 62 1 35 56
M  V30 63 1 36 57
M  V30 64 1 36 58
M  V30 65 1 37 59
M  V30 66 1 37 60
M  V30 67 1 38 61
M  V30 68 1 38 62
M  V30 69 1 39 63
M  V30 70 1 39 64
M  V30 END BOND
M  V30 END CTAB
M  END
>  <Dataset>  (73) 
ChEMBL_Kinases

>  <Ligand_Instance>  (73) 
nan

>  <PDB_ID>  (73) 
nan

>  <Standardized_SMILES>  (73) 
O=C(Nc1cncc(-c2ccc3[nH]nc(-c4nc5c(-c6ccncc6)ccnc5[nH]4)c3n2)c1)C1CCCCC1

>  <Name>  (73) 
nan

>  <Pocket>  (73) 
nan

>  <ATP_Site>  (73) 
nan

>  <Peripheral>  (73) 
nan

>  <Num_H_Atoms_ProtBoundConf>  (73) 
nan

>  <Num_Resolved_Atoms>  (73) 
nan

>  <Num_Not_Resolved_Atoms>  (73) 
nan

$$$$
CHEMBL4786746
     RDKit          3D

  0  0  0  0  0  0  0  0  0  0999 V3000
M  V30 BEGIN CTAB
M  V30 COUNTS 47 52 0 0 0
M  V30 BEGIN ATOM
M  V30 1 N 2.549388 -3.172911 3.127744 0
M  V30 2 C 3.037296 -1.843993 3.179283 0
M  V30 3 C 4.197721 -1.692383 3.944047 0
M  V30 4 N 4.729968 -0.452051 4.044943 0
M  V30 5 C 4.158761 0.599650 3.428110 0
M  V30 6 C 3.015494 0.486273 2.666971 0
M  V30 7 C 2.363460 1.596814 1.982042 0
M  V30 8 C 2.828663 2.894992 2.024497 0
M  V30 9 C 2.249563 3.970004 1.397243 0
M  V30 10 C 1.108338 3.758708 0.658423 0
M  V30 11 N 0.295947 4.543577 -0.067149 0
M  V30 12 N -0.666330 3.779116 -0.564969 0
M  V30 13 C -0.491797 2.523842 -0.177141 0
M  V30 14 C -1.379817 1.429760 -0.553609 0
M  V30 15 N -1.339227 0.119108 -0.245985 0
M  V30 16 C -2.378874 -0.523302 -0.823028 0
M  V30 17 C -2.831638 -1.829329 -0.855295 0
M  V30 18 C -2.095568 -2.859847 -0.129722 0
M  V30 19 C -1.104742 -3.463955 -0.908113 0
M  V30 20 C -0.319877 -4.453695 -0.378932 0
M  V30 21 C -0.461507 -4.896591 0.918539 0
M  V30 22 C -1.451241 -4.277948 1.661998 0
M  V30 23 C -2.260917 -3.281773 1.171797 0
M  V30 24 F -3.231745 -2.648182 1.841074 0
M  V30 25 C -3.974640 -2.191259 -1.563205 0
M  V30 26 N -4.645301 -1.232687 -2.228488 0
M  V30 27 C -4.241614 0.056372 -2.226311 0
M  V30 28 C -3.106289 0.421990 -1.524464 0
M  V30 29 N -2.464140 1.588495 -1.332331 0
M  V30 30 C 0.641339 2.461636 0.614501 0
M  V30 31 N 1.248737 1.443024 1.249154 0
M  V30 32 C 2.440968 -0.761587 2.538640 0
M  V30 33 H 2.648005 -4.100764 2.706335 0
M  V30 34 H 1.743669 -3.354460 3.769170 0
M  V30 35 H 4.682806 -2.513687 4.452553 0
M  V30 36 H 4.612406 1.559075 3.534962 0
M  V30 37 H 3.721611 3.125694 2.588623 0
M  V30 38 H 2.661906 4.966074 1.467876 0
M  V30 39 H 0.452708 5.577082 -0.180069 0
M  V30 40 H -0.895721 -3.205260 -1.937792 0
M  V30 41 H 0.456377 -4.936026 -0.968462 0
M  V30 42 H 0.158892 -5.678955 1.336863 0
M  V30 43 H -1.615960 -4.571355 2.674099 0
M  V30 44 H -4.358435 -3.193203 -1.613004 0
M  V30 45 H -4.800247 0.796850 -2.768090 0
M  V30 46 H -2.842512 2.472263 -1.780866 0
M  V30 47 H 1.544203 -0.979467 1.969135 0
M  V30 END ATOM
M  V30 BEGIN BOND
M  V30 1 1 1 2
M  V30 2 2 2 3
M  V30 3 1 3 4
M  V30 4 2 4 5
M  V30 5 1 5 6
M  V30 6 1 6 7
M  V30 7 2 7 8
M  V30 8 1 8 9
M  V30 9 2 9 10
M  V30 10 1 10 11
M  V30 11 1 11 12
M  V30 12 2 12 13
M  V30 13 1 13 14
M  V30 14 2 14 15
M  V30 15 1 15 16
M  V30 16 2 16 17
M  V30 17 1 17 18
M  V30 18 2 18 19
M  V30 19 1 19 20
M  V30 20 2 20 21
M  V30 21 1 21 22
M  V30 22 2 22 23
M  V30 23 1 23 24
M  V30 24 1 17 25
M  V30 25 2 25 26
M  V30 26 1 26 27
M  V30 27 2 27 28
M  V30 28 1 28 29
M  V30 29 1 13 30
M  V30 30 2 30 31
M  V30 31 2 6 32
M  V30 32 1 32 2
M  V30 33 1 31 7
M  V30 34 1 30 10
M  V30 35 1 29 14
M  V30 36 1 28 16
M  V30 37 1 23 18
M  V30 38 1 1 33
M  V30 39 1 1 34
M  V30 40 1 3 35
M  V30 41 1 5 36
M  V30 42 1 8 37
M  V30 43 1 9 38
M  V30 44 1 11 39
M  V30 45 1 19 40
M  V30 46 1 20 41
M  V30 47 1 21 42
M  V30 48 1 22 43
M  V30 49 1 25 44
M  V30 50 1 27 45
M  V30 51 1 29 46
M  V30 52 1 32 47
M  V30 END BOND
M  V30 END CTAB
M  END
>  <Dataset>  (74) 
ChEMBL_Kinases

>  <Ligand_Instance>  (74) 
nan

>  <PDB_ID>  (74) 
nan

>  <Standardized_SMILES>  (74) 
Nc1cncc(-c2ccc3[nH]nc(-c4nc5c(-c6ccccc6F)cncc5[nH]4)c3n2)c1

>  <Name>  (74) 
nan

>  <Pocket>  (74) 
nan

>  <ATP_Site>  (74) 
nan

>  <Peripheral>  (74) 
nan

>  <Num_H_Atoms_ProtBoundConf>  (74) 
nan

>  <Num_Resolved_Atoms>  (74) 
nan

>  <Num_Not_Resolved_Atoms>  (74) 
nan

$$$$
CHEMBL4126847
     RDKit          3D

  0  0  0  0  0  0  0  0  0  0999 V3000
M  V30 BEGIN CTAB
M  V30 COUNTS 53 56 0 0 0
M  V30 BEGIN ATOM
M  V30 1 C 1.587763 -1.544748 4.265578 0
M  V30 2 N 2.379491 -2.403061 3.407741 0
M  V30 3 C 3.784772 -2.316680 3.682070 0
M  V30 4 C 2.056840 -2.232939 2.015308 0
M  V30 5 C 2.926536 -3.172141 1.202814 0
M  V30 6 N 2.631808 -3.033683 -0.205983 0
M  V30 7 C 2.768265 -1.865894 -0.998295 0
M  V30 8 C 3.925877 -1.563701 -1.723997 0
M  V30 9 N 3.952069 -0.430753 -2.444265 0
M  V30 10 C 2.872850 0.389801 -2.456767 0
M  V30 11 C 1.722173 0.117306 -1.752740 0
M  V30 12 C 0.576027 1.015044 -1.775627 0
M  V30 13 C 0.520754 2.187501 -2.486711 0
M  V30 14 C -0.593242 3.020965 -2.478867 0
M  V30 15 C -1.659538 2.608350 -1.709689 0
M  V30 16 N -2.862393 3.208537 -1.511556 0
M  V30 17 C -3.620755 2.476001 -0.687534 0
M  V30 18 C -2.906522 1.353466 -0.322868 0
M  V30 19 C -3.314527 0.273715 0.555694 0
M  V30 20 C -3.919356 0.763628 1.712740 0
M  V30 21 C -4.391878 -0.071727 2.704010 0
M  V30 22 C -4.261077 -1.445695 2.544640 0
M  V30 23 C -3.655730 -1.950221 1.387399 0
M  V30 24 C -3.484123 -3.404992 1.152664 0
M  V30 25 F -4.120010 -4.083571 2.194297 0
M  V30 26 F -4.116078 -3.809958 -0.014525 0
M  V30 27 F -2.158814 -3.790340 1.189651 0
M  V30 28 C -3.193536 -1.089913 0.414739 0
M  V30 29 C -1.681252 1.433997 -0.960306 0
M  V30 30 C -0.534954 0.656751 -1.019111 0
M  V30 31 N 1.717592 -1.023570 -1.037360 0
M  V30 32 H 1.898572 -1.755695 5.306598 0
M  V30 33 H 1.721623 -0.466161 4.057538 0
M  V30 34 H 0.513852 -1.860252 4.193658 0
M  V30 35 H 3.953808 -2.074898 4.750939 0
M  V30 36 H 4.191924 -3.354502 3.524160 0
M  V30 37 H 4.321915 -1.616849 3.008212 0
M  V30 38 H 1.000948 -2.597943 1.864469 0
M  V30 39 H 2.179849 -1.214989 1.633935 0
M  V30 40 H 3.987662 -2.918203 1.370234 0
M  V30 41 H 2.694063 -4.184663 1.547884 0
M  V30 42 H 2.269701 -3.866262 -0.760337 0
M  V30 43 H 4.759350 -2.265888 -1.671818 0
M  V30 44 H 2.985398 1.276598 -3.063420 0
M  V30 45 H 1.367678 2.492757 -3.083436 0
M  V30 46 H -0.612263 3.939458 -3.047104 0
M  V30 47 H -3.163915 4.129727 -1.947184 0
M  V30 48 H -4.621944 2.739653 -0.374302 0
M  V30 49 H -4.082826 1.818851 1.959756 0
M  V30 50 H -4.866503 0.266964 3.614731 0
M  V30 51 H -4.620495 -2.155538 3.303624 0
M  V30 52 H -2.712633 -1.363909 -0.514334 0
M  V30 53 H -0.528730 -0.253710 -0.449346 0
M  V30 END ATOM
M  V30 BEGIN BOND
M  V30 1 1 1 2
M  V30 2 1 2 3
M  V30 3 1 2 4
M  V30 4 1 4 5
M  V30 5 1 5 6
M  V30 6 1 6 7
M  V30 7 2 7 8
M  V30 8 1 8 9
M  V30 9 2 9 10
M  V30 10 1 10 11
M  V30 11 1 11 12
M  V30 12 2 12 13
M  V30 13 1 13 14
M  V30 14 2 14 15
M  V30 15 1 15 16
M  V30 16 1 16 17
M  V30 17 2 17 18
M  V30 18 1 18 19
M  V30 19 2 19 20
M  V30 20 1 20 21
M  V30 21 2 21 22
M  V30 22 1 22 23
M  V30 23 1 23 24
M  V30 24 1 24 25
M  V30 25 1 24 26
M  V30 26 1 24 27
M  V30 27 2 23 28
M  V30 28 1 18 29
M  V30 29 2 29 30
M  V30 30 2 11 31
M  V30 31 1 31 7
M  V30 32 1 30 12
M  V30 33 1 29 15
M  V30 34 1 28 19
M  V30 35 1 1 32
M  V30 36 1 1 33
M  V30 37 1 1 34
M  V30 38 1 3 35
M  V30 39 1 3 36
M  V30 40 1 3 37
M  V30 41 1 4 38
M  V30 42 1 4 39
M  V30 43 1 5 40
M  V30 44 1 5 41
M  V30 45 1 6 42
M  V30 46 1 8 43
M  V30 47 1 10 44
M  V30 48 1 13 45
M  V30 49 1 14 46
M  V30 50 1 16 47
M  V30 51 1 17 48
M  V30 52 1 20 49
M  V30 53 1 21 50
M  V30 54 1 22 51
M  V30 55 1 28 52
M  V30 56 1 30 53
M  V30 END BOND
M  V30 END CTAB
M  END
>  <Dataset>  (75) 
ChEMBL_Kinases

>  <Ligand_Instance>  (75) 
nan

>  <PDB_ID>  (75) 
nan

>  <Standardized_SMILES>  (75) 
CN(C)CCNc1cncc(-c2ccc3[nH]cc(-c4cccc(C(F)(F)F)c4)c3c2)n1

>  <Name>  (75) 
nan

>  <Pocket>  (75) 
nan

>  <ATP_Site>  (75) 
nan

>  <Peripheral>  (75) 
nan

>  <Num_H_Atoms_ProtBoundConf>  (75) 
nan

>  <Num_Resolved_Atoms>  (75) 
nan

>  <Num_Not_Resolved_Atoms>  (75) 
nan

$$$$
CHEMBL478629
     RDKit          3D

  0  0  0  0  0  0  0  0  0  0999 V3000
M  V30 BEGIN CTAB
M  V30 COUNTS 55 59 0 0 0
M  V30 BEGIN ATOM
M  V30 1 C 2.138283 -9.829757 -1.282005 0
M  V30 2 C 2.713220 -8.578179 -1.245016 0
M  V30 3 C 2.006920 -7.623355 -0.542482 0
M  V30 4 C 2.480703 -6.252646 -0.407383 0
M  V30 5 C 3.810270 -5.961671 -0.087528 0
M  V30 6 N 3.934598 -4.604677 -0.032250 0
M  V30 7 N 2.746127 -4.061757 -0.302852 0
M  V30 8 C 2.395169 -2.746784 -0.358961 0
M  V30 9 C 1.063011 -2.440749 -0.666930 0
M  V30 10 C 0.646839 -1.039075 -0.732103 0
M  V30 11 C 1.341465 -0.235624 0.144969 0
M  V30 12 C 1.074378 1.112112 0.212752 0
M  V30 13 C 0.120590 1.710918 -0.575189 0
M  V30 14 O -0.370018 2.962449 -0.747194 0
M  V30 15 C -0.064362 4.153217 -0.135118 0
M  V30 16 C -0.339494 4.166332 1.325456 0
M  V30 17 N -1.755147 3.912515 1.642922 0
M  V30 18 C -1.770540 3.948227 3.116039 0
M  V30 19 C -3.171681 3.741984 3.638896 0
M  V30 20 C -4.042898 4.829046 3.103530 0
M  V30 21 C -3.914774 4.955630 1.616985 0
M  V30 22 C -2.461287 5.146100 1.264810 0
M  V30 23 C -0.575863 0.874658 -1.462660 0
M  V30 24 C -0.322483 -0.503254 -1.551358 0
M  V30 25 C 0.153404 -3.472433 -0.902355 0
M  V30 26 N 0.540696 -4.782697 -0.837264 0
M  V30 27 C 1.843634 -5.029167 -0.534773 0
M  V30 28 C 0.796021 -7.949570 0.072791 0
M  V30 29 C 0.286742 -9.249787 -0.017456 0
M  V30 30 N 0.976814 -10.181050 -0.703330 0
M  V30 31 H 2.663557 -10.616904 -1.827330 0
M  V30 32 H 3.650774 -8.337003 -1.725428 0
M  V30 33 H 4.625420 -6.670485 0.091422 0
M  V30 34 H 3.136914 -1.980512 -0.168707 0
M  V30 35 H 2.119089 -0.522983 0.837156 0
M  V30 36 H 1.563593 1.813796 0.850276 0
M  V30 37 H 1.055561 4.324749 -0.226497 0
M  V30 38 H -0.510418 5.044239 -0.632068 0
M  V30 39 H -0.146723 5.166296 1.781528 0
M  V30 40 H 0.299496 3.463732 1.871852 0
M  V30 41 H -1.471086 4.985392 3.385807 0
M  V30 42 H -1.046675 3.193753 3.445792 0
M  V30 43 H -3.549780 2.721629 3.473517 0
M  V30 44 H -3.113722 3.894387 4.742177 0
M  V30 45 H -3.881876 5.772056 3.652431 0
M  V30 46 H -5.103890 4.525839 3.353868 0
M  V30 47 H -4.272605 4.014548 1.155990 0
M  V30 48 H -4.531190 5.829059 1.286372 0
M  V30 49 H -2.045828 5.935179 1.943344 0
M  V30 50 H -2.319996 5.406044 0.202178 0
M  V30 51 H -1.373204 1.113520 -2.186280 0
M  V30 52 H -0.799548 -1.209415 -2.191868 0
M  V30 53 H -0.865163 -3.160194 -1.136708 0
M  V30 54 H 0.254418 -7.192532 0.618449 0
M  V30 55 H -0.672373 -9.426083 0.495030 0
M  V30 END ATOM
M  V30 BEGIN BOND
M  V30 1 2 1 2
M  V30 2 1 2 3
M  V30 3 1 3 4
M  V30 4 1 4 5
M  V30 5 2 5 6
M  V30 6 1 6 7
M  V30 7 1 7 8
M  V30 8 2 8 9
M  V30 9 1 9 10
M  V30 10 2 10 11
M  V30 11 1 11 12
M  V30 12 2 12 13
M  V30 13 1 13 14
M  V30 14 1 14 15
M  V30 15 1 15 16
M  V30 16 1 16 17
M  V30 17 1 17 18
M  V30 18 1 18 19
M  V30 19 1 19 20
M  V30 20 1 20 21
M  V30 21 1 21 22
M  V30 22 1 13 23
M  V30 23 2 23 24
M  V30 24 1 9 25
M  V30 25 2 25 26
M  V30 26 1 26 27
M  V30 27 2 3 28
M  V30 28 1 28 29
M  V30 29 2 29 30
M  V30 30 1 30 1
M  V30 31 2 27 4
M  V30 32 1 27 7
M  V30 33 1 24 10
M  V30 34 1 22 17
M  V30 35 1 1 31
M  V30 36 1 2 32
M  V30 37 1 5 33
M  V30 38 1 8 34
M  V30 39 1 11 35
M  V30 40 1 12 36
M  V30 41 1 15 37
M  V30 42 1 15 38
M  V30 43 1 16 39
M  V30 44 1 16 40
M  V30 45 1 18 41
M  V30 46 1 18 42
M  V30 47 1 19 43
M  V30 48 1 19 44
M  V30 49 1 20 45
M  V30 50 1 20 46
M  V30 51 1 21 47
M  V30 52 1 21 48
M  V30 53 1 22 49
M  V30 54 1 22 50
M  V30 55 1 23 51
M  V30 56 1 24 52
M  V30 57 1 25 53
M  V30 58 1 28 54
M  V30 59 1 29 55
M  V30 END BOND
M  V30 END CTAB
M  END
>  <Dataset>  (76) 
ChEMBL_Kinases

>  <Ligand_Instance>  (76) 
nan

>  <PDB_ID>  (76) 
nan

>  <Standardized_SMILES>  (76) 
c1cc(-c2cnn3cc(-c4ccc(OCCN5CCCCC5)cc4)cnc23)ccn1

>  <Name>  (76) 
DORSOMORPHIN

>  <Pocket>  (76) 
nan

>  <ATP_Site>  (76) 
nan

>  <Peripheral>  (76) 
nan

>  <Num_H_Atoms_ProtBoundConf>  (76) 
nan

>  <Num_Resolved_Atoms>  (76) 
nan

>  <Num_Not_Resolved_Atoms>  (76) 
nan

$$$$
CHEMBL4126689
     RDKit          3D

  0  0  0  0  0  0  0  0  0  0999 V3000
M  V30 BEGIN CTAB
M  V30 COUNTS 51 54 0 0 0
M  V30 BEGIN ATOM
M  V30 1 C 3.452646 -3.109826 5.570306 0
M  V30 2 N 3.681624 -1.665672 5.472162 0
M  V30 3 C 2.646299 -0.920178 6.104935 0
M  V30 4 C 3.886148 -1.374298 4.071572 0
M  V30 5 C 4.113878 0.067909 3.758519 0
M  V30 6 N 4.294915 0.174417 2.302093 0
M  V30 7 C 3.247427 -0.307721 1.473739 0
M  V30 8 C 3.420371 -1.619631 1.029158 0
M  V30 9 N 2.486832 -2.198736 0.237941 0
M  V30 10 C 1.380842 -1.480074 -0.114097 0
M  V30 11 C 1.197201 -0.182801 0.318128 0
M  V30 12 C 0.030795 0.617958 -0.020246 0
M  V30 13 C -0.044377 1.904955 0.483196 0
M  V30 14 C -1.137015 2.700075 0.199164 0
M  V30 15 C -2.201615 2.258432 -0.593956 0
M  V30 16 N -3.362862 2.775609 -1.032969 0
M  V30 17 C -4.000608 1.850614 -1.787657 0
M  V30 18 C -3.216205 0.694692 -1.833921 0
M  V30 19 C -3.614300 -0.505500 -2.572324 0
M  V30 20 C -3.484561 -1.765119 -2.000212 0
M  V30 21 C -3.865183 -2.862999 -2.725762 0
M  V30 22 C -4.374792 -2.712423 -4.019318 0
M  V30 23 C -4.757025 -3.916796 -4.733017 0
M  V30 24 N -5.078926 -4.873151 -5.291483 0
M  V30 25 C -4.493209 -1.453136 -4.562921 0
M  V30 26 C -4.111603 -0.322804 -3.841454 0
M  V30 27 C -2.099958 0.972051 -1.082747 0
M  V30 28 C -1.001985 0.162363 -0.801975 0
M  V30 29 N 2.148696 0.359794 1.104337 0
M  V30 30 H 3.607889 -3.416448 6.627010 0
M  V30 31 H 4.081439 -3.669870 4.855724 0
M  V30 32 H 2.386834 -3.343921 5.284263 0
M  V30 33 H 2.414893 -1.456504 7.072411 0
M  V30 34 H 2.908064 0.125126 6.326267 0
M  V30 35 H 1.690827 -0.899266 5.543231 0
M  V30 36 H 3.046472 -1.779582 3.447447 0
M  V30 37 H 4.794157 -1.938503 3.761426 0
M  V30 38 H 3.263818 0.722105 4.015707 0
M  V30 39 H 5.007402 0.468427 4.268214 0
M  V30 40 H 4.972453 0.503788 1.578059 0
M  V30 41 H 4.297520 -2.208394 1.300993 0
M  V30 42 H 0.648081 -1.957632 -0.743737 0
M  V30 43 H 0.729262 2.323308 1.101694 0
M  V30 44 H -1.203480 3.701244 0.586890 0
M  V30 45 H -3.595880 3.755917 -0.748262 0
M  V30 46 H -4.968143 2.080157 -2.238200 0
M  V30 47 H -3.099318 -1.911382 -1.010987 0
M  V30 48 H -3.782337 -3.866706 -2.320901 0
M  V30 49 H -4.888260 -1.422462 -5.548602 0
M  V30 50 H -4.233374 0.631240 -4.333076 0
M  V30 51 H -0.974067 -0.835356 -1.212100 0
M  V30 END ATOM
M  V30 BEGIN BOND
M  V30 1 1 1 2
M  V30 2 1 2 3
M  V30 3 1 2 4
M  V30 4 1 4 5
M  V30 5 1 5 6
M  V30 6 1 6 7
M  V30 7 2 7 8
M  V30 8 1 8 9
M  V30 9 2 9 10
M  V30 10 1 10 11
M  V30 11 1 11 12
M  V30 12 2 12 13
M  V30 13 1 13 14
M  V30 14 2 14 15
M  V30 15 1 15 16
M  V30 16 1 16 17
M  V30 17 2 17 18
M  V30 18 1 18 19
M  V30 19 2 19 20
M  V30 20 1 20 21
M  V30 21 2 21 22
M  V30 22 1 22 23
M  V30 23 3 23 24
M  V30 24 1 22 25
M  V30 25 2 25 26
M  V30 26 1 18 27
M  V30 27 2 27 28
M  V30 28 2 11 29
M  V30 29 1 29 7
M  V30 30 1 28 12
M  V30 31 1 27 15
M  V30 32 1 26 19
M  V30 33 1 1 30
M  V30 34 1 1 31
M  V30 35 1 1 32
M  V30 36 1 3 33
M  V30 37 1 3 34
M  V30 38 1 3 35
M  V30 39 1 4 36
M  V30 40 1 4 37
M  V30 41 1 5 38
M  V30 42 1 5 39
M  V30 43 1 6 40
M  V30 44 1 8 41
M  V30 45 1 10 42
M  V30 46 1 13 43
M  V30 47 1 14 44
M  V30 48 1 16 45
M  V30 49 1 17 46
M  V30 50 1 20 47
M  V30 51 1 21 48
M  V30 52 1 25 49
M  V30 53 1 26 50
M  V30 54 1 28 51
M  V30 END BOND
M  V30 END CTAB
M  END
>  <Dataset>  (77) 
ChEMBL_Kinases

>  <Ligand_Instance>  (77) 
nan

>  <PDB_ID>  (77) 
nan

>  <Standardized_SMILES>  (77) 
CN(C)CCNc1cncc(-c2ccc3[nH]cc(-c4ccc(C#N)cc4)c3c2)n1

>  <Name>  (77) 
nan

>  <Pocket>  (77) 
nan

>  <ATP_Site>  (77) 
nan

>  <Peripheral>  (77) 
nan

>  <Num_H_Atoms_ProtBoundConf>  (77) 
nan

>  <Num_Resolved_Atoms>  (77) 
nan

>  <Num_Not_Resolved_Atoms>  (77) 
nan

$$$$
CHEMBL4126778
     RDKit          3D

  0  0  0  0  0  0  0  0  0  0999 V3000
M  V30 BEGIN CTAB
M  V30 COUNTS 53 56 0 0 0
M  V30 BEGIN ATOM
M  V30 1 C 3.766337 0.932946 2.946235 0
M  V30 2 N 3.563667 -0.346604 2.287843 0
M  V30 3 C 2.689480 -1.148793 3.131553 0
M  V30 4 C 2.982395 -0.171804 0.965701 0
M  V30 5 C 4.005841 0.479044 0.080650 0
M  V30 6 N 3.466112 0.686144 -1.276158 0
M  V30 7 C 2.358190 1.579352 -1.244615 0
M  V30 8 C 2.625042 2.888929 -1.577736 0
M  V30 9 N 1.588199 3.776839 -1.550311 0
M  V30 10 C 0.350153 3.372072 -1.206399 0
M  V30 11 C 0.059019 2.068083 -0.868925 0
M  V30 12 C -1.259042 1.588456 -0.469490 0
M  V30 13 C -2.359816 2.406704 -0.415306 0
M  V30 14 C -3.613186 1.996750 -0.027612 0
M  V30 15 C -3.785982 0.669844 0.334646 0
M  V30 16 N -4.808656 -0.091436 0.756707 0
M  V30 17 C -4.379438 -1.342575 0.964094 0
M  V30 18 C -3.016152 -1.448605 0.675755 0
M  V30 19 C -2.297853 -2.705240 0.822122 0
M  V30 20 C -1.059430 -2.818817 1.429450 0
M  V30 21 C -0.420044 -4.042229 1.547362 0
M  V30 22 C -1.056941 -5.145112 1.040109 0
M  V30 23 F -0.512706 -6.364877 1.109288 0
M  V30 24 C -2.296993 -5.082257 0.423652 0
M  V30 25 C -2.967164 -6.297586 -0.114016 0
M  V30 26 F -4.188717 -5.975272 -0.691711 0
M  V30 27 F -2.197288 -6.894451 -1.085571 0
M  V30 28 F -3.151404 -7.196194 0.927196 0
M  V30 29 C -2.909486 -3.850446 0.320498 0
M  V30 30 C -2.669317 -0.172562 0.282572 0
M  V30 31 C -1.433819 0.283246 -0.112500 0
M  V30 32 N 1.113438 1.236972 -0.913019 0
M  V30 33 H 3.410083 0.880737 3.989571 0
M  V30 34 H 4.831558 1.214333 2.964424 0
M  V30 35 H 3.173661 1.725790 2.438588 0
M  V30 36 H 2.496120 -2.139190 2.716652 0
M  V30 37 H 3.092627 -1.183349 4.163177 0
M  V30 38 H 1.716515 -0.578471 3.202810 0
M  V30 39 H 2.712193 -1.197378 0.609794 0
M  V30 40 H 2.036706 0.371229 1.067162 0
M  V30 41 H 4.254551 1.471356 0.537705 0
M  V30 42 H 4.917022 -0.114521 0.072952 0
M  V30 43 H 3.737354 0.311217 -2.225229 0
M  V30 44 H 3.573601 3.326766 -1.869104 0
M  V30 45 H -0.450036 4.102343 -1.193697 0
M  V30 46 H -2.302122 3.446760 -0.681627 0
M  V30 47 H -4.494822 2.619852 0.024497 0
M  V30 48 H -5.788903 0.230050 0.904323 0
M  V30 49 H -5.029282 -2.144392 1.310508 0
M  V30 50 H -0.579256 -1.932714 1.821370 0
M  V30 51 H 0.544281 -4.127517 2.022054 0
M  V30 52 H -3.867993 -3.781893 -0.155026 0
M  V30 53 H -0.582232 -0.385511 -0.145365 0
M  V30 END ATOM
M  V30 BEGIN BOND
M  V30 1 1 1 2
M  V30 2 1 2 3
M  V30 3 1 2 4
M  V30 4 1 4 5
M  V30 5 1 5 6
M  V30 6 1 6 7
M  V30 7 2 7 8
M  V30 8 1 8 9
M  V30 9 2 9 10
M  V30 10 1 10 11
M  V30 11 1 11 12
M  V30 12 2 12 13
M  V30 13 1 13 14
M  V30 14 2 14 15
M  V30 15 1 15 16
M  V30 16 1 16 17
M  V30 17 2 17 18
M  V30 18 1 18 19
M  V30 19 2 19 20
M  V30 20 1 20 21
M  V30 21 2 21 22
M  V30 22 1 22 23
M  V30 23 1 22 24
M  V30 24 1 24 25
M  V30 25 1 25 26
M  V30 26 1 25 27
M  V30 27 1 25 28
M  V30 28 2 24 29
M  V30 29 1 18 30
M  V30 30 2 30 31
M  V30 31 2 11 32
M  V30 32 1 32 7
M  V30 33 1 31 12
M  V30 34 1 30 15
M  V30 35 1 29 19
M  V30 36 1 1 33
M  V30 37 1 1 34
M  V30 38 1 1 35
M  V30 39 1 3 36
M  V30 40 1 3 37
M  V30 41 1 3 38
M  V30 42 1 4 39
M  V30 43 1 4 40
M  V30 44 1 5 41
M  V30 45 1 5 42
M  V30 46 1 6 43
M  V30 47 1 8 44
M  V30 48 1 10 45
M  V30 49 1 13 46
M  V30 50 1 14 47
M  V30 51 1 16 48
M  V30 52 1 17 49
M  V30 53 1 20 50
M  V30 54 1 21 51
M  V30 55 1 29 52
M  V30 56 1 31 53
M  V30 END BOND
M  V30 END CTAB
M  END
>  <Dataset>  (78) 
ChEMBL_Kinases

>  <Ligand_Instance>  (78) 
nan

>  <PDB_ID>  (78) 
nan

>  <Standardized_SMILES>  (78) 
CN(C)CCNc1cncc(-c2ccc3[nH]cc(-c4ccc(F)c(C(F)(F)F)c4)c3c2)n1

>  <Name>  (78) 
nan

>  <Pocket>  (78) 
nan

>  <ATP_Site>  (78) 
nan

>  <Peripheral>  (78) 
nan

>  <Num_H_Atoms_ProtBoundConf>  (78) 
nan

>  <Num_Resolved_Atoms>  (78) 
nan

>  <Num_Not_Resolved_Atoms>  (78) 
nan

$$$$
CHEMBL4786673
     RDKit          3D

  0  0  0  0  0  0  0  0  0  0999 V3000
M  V30 BEGIN CTAB
M  V30 COUNTS 55 60 0 0 0
M  V30 BEGIN ATOM
M  V30 1 C 5.545946 -2.406547 5.133573 0
M  V30 2 C 5.023055 -1.260750 4.318237 0
M  V30 3 C 5.251421 -1.442274 2.837592 0
M  V30 4 C 4.689309 -0.241843 2.140500 0
M  V30 5 O 4.250023 0.434146 3.107493 0
M  V30 6 N 4.734455 -0.085142 0.736700 0
M  V30 7 C 4.139705 1.128674 0.323778 0
M  V30 8 C 4.907733 2.268789 0.218425 0
M  V30 9 N 4.281291 3.391876 -0.179804 0
M  V30 10 C 2.946189 3.410693 -0.468495 0
M  V30 11 C 2.147828 2.290671 -0.374338 0
M  V30 12 C 0.735974 2.427517 -0.707179 0
M  V30 13 C -0.162411 1.386568 -0.652950 0
M  V30 14 C -1.493864 1.533577 -0.971043 0
M  V30 15 C -2.521346 0.643099 -0.979757 0
M  V30 16 C -2.609650 -0.771444 -0.664864 0
M  V30 17 N -3.771736 -1.441155 -0.754027 0
M  V30 18 C -3.622742 -2.719962 -0.420573 0
M  V30 19 C -4.507877 -3.789566 -0.356396 0
M  V30 20 C -5.907355 -3.598197 -0.699012 0
M  V30 21 C -6.624765 -2.533516 -0.246159 0
M  V30 22 C -7.958302 -2.352526 -0.573791 0
M  V30 23 S -8.348635 -3.790522 -1.639399 0
M  V30 24 C -6.636326 -4.515431 -1.538999 0
M  V30 25 C -4.089215 -5.045578 0.029100 0
M  V30 26 N -2.780376 -5.191087 0.341830 0
M  V30 27 C -1.913857 -4.168788 0.284859 0
M  V30 28 C -2.305797 -2.913974 -0.094666 0
M  V30 29 N -1.762978 -1.710582 -0.263162 0
M  V30 30 N -3.563439 1.416533 -1.383975 0
M  V30 31 N -3.178490 2.655059 -1.594103 0
M  V30 32 C -1.865451 2.801379 -1.349113 0
M  V30 33 C -0.991380 3.860639 -1.412840 0
M  V30 34 N 0.308580 3.633853 -1.082633 0
M  V30 35 C 2.787977 1.140314 0.033243 0
M  V30 36 H 5.803926 -2.035113 6.157627 0
M  V30 37 H 4.773020 -3.185480 5.304826 0
M  V30 38 H 6.465169 -2.841451 4.712940 0
M  V30 39 H 5.388153 -0.277049 4.646090 0
M  V30 40 H 3.906787 -1.266070 4.473795 0
M  V30 41 H 6.319783 -1.599161 2.627513 0
M  V30 42 H 4.642987 -2.307622 2.473246 0
M  V30 43 H 5.189106 -0.866860 0.209429 0
M  V30 44 H 5.968696 2.277236 0.442306 0
M  V30 45 H 2.589243 4.391054 -0.775694 0
M  V30 46 H 0.223405 0.443159 -0.348343 0
M  V30 47 H -6.246441 -1.750237 0.389599 0
M  V30 48 H -8.698480 -1.647392 -0.362372 0
M  V30 49 H -6.075383 -5.447658 -1.957928 0
M  V30 50 H -4.786763 -5.886424 0.079220 0
M  V30 51 H -0.852488 -4.265258 0.533402 0
M  V30 52 H -0.754119 -1.569350 -0.081911 0
M  V30 53 H -3.858976 3.386751 -1.911502 0
M  V30 54 H -1.371185 4.814482 -1.718619 0
M  V30 55 H 2.185151 0.247004 0.115568 0
M  V30 END ATOM
M  V30 BEGIN BOND
M  V30 1 1 1 2
M  V30 2 1 2 3
M  V30 3 1 3 4
M  V30 4 2 4 5
M  V30 5 1 4 6
M  V30 6 1 6 7
M  V30 7 2 7 8
M  V30 8 1 8 9
M  V30 9 2 9 10
M  V30 10 1 10 11
M  V30 11 1 11 12
M  V30 12 2 12 13
M  V30 13 1 13 14
M  V30 14 1 14 15
M  V30 15 1 15 16
M  V30 16 2 16 17
M  V30 17 1 17 18
M  V30 18 2 18 19
M  V30 19 1 19 20
M  V30 20 1 20 21
M  V30 21 2 21 22
M  V30 22 1 22 23
M  V30 23 1 23 24
M  V30 24 1 19 25
M  V30 25 2 25 26
M  V30 26 1 26 27
M  V30 27 2 27 28
M  V30 28 1 28 29
M  V30 29 2 15 30
M  V30 30 1 30 31
M  V30 31 1 31 32
M  V30 32 1 32 33
M  V30 33 2 33 34
M  V30 34 2 11 35
M  V30 35 1 35 7
M  V30 36 1 34 12
M  V30 37 2 32 14
M  V30 38 1 29 16
M  V30 39 1 28 18
M  V30 40 2 24 20
M  V30 41 1 1 36
M  V30 42 1 1 37
M  V30 43 1 1 38
M  V30 44 1 2 39
M  V30 45 1 2 40
M  V30 46 1 3 41
M  V30 47 1 3 42
M  V30 48 1 6 43
M  V30 49 1 8 44
M  V30 50 1 10 45
M  V30 51 1 13 46
M  V30 52 1 21 47
M  V30 53 1 22 48
M  V30 54 1 24 49
M  V30 55 1 25 50
M  V30 56 1 27 51
M  V30 57 1 29 52
M  V30 58 1 31 53
M  V30 59 1 33 54
M  V30 60 1 35 55
M  V30 END BOND
M  V30 END CTAB
M  END
>  <Dataset>  (79) 
ChEMBL_Kinases

>  <Ligand_Instance>  (79) 
nan

>  <PDB_ID>  (79) 
nan

>  <Standardized_SMILES>  (79) 
CCCC(=O)Nc1cncc(-c2cc3c(-c4nc5c(-c6ccsc6)cncc5[nH]4)n[nH]c3cn2)c1

>  <Name>  (79) 
nan

>  <Pocket>  (79) 
nan

>  <ATP_Site>  (79) 
nan

>  <Peripheral>  (79) 
nan

>  <Num_H_Atoms_ProtBoundConf>  (79) 
nan

>  <Num_Resolved_Atoms>  (79) 
nan

>  <Num_Not_Resolved_Atoms>  (79) 
nan

$$$$
CHEMBL4126750
     RDKit          3D

  0  0  0  0  0  0  0  0  0  0999 V3000
M  V30 BEGIN CTAB
M  V30 COUNTS 53 56 0 0 0
M  V30 BEGIN ATOM
M  V30 1 C 4.592284 -3.026827 2.167862 0
M  V30 2 N 5.026784 -1.615567 2.136873 0
M  V30 3 C 6.366587 -1.558597 2.677134 0
M  V30 4 C 4.094720 -0.810639 2.864955 0
M  V30 5 C 4.409119 0.652127 2.819998 0
M  V30 6 N 4.388811 1.071075 1.408654 0
M  V30 7 C 3.153816 0.619785 0.888007 0
M  V30 8 C 3.382392 -0.371369 -0.053830 0
M  V30 9 N 2.379342 -1.013358 -0.715218 0
M  V30 10 C 1.096464 -0.647409 -0.422199 0
M  V30 11 C 0.845247 0.340209 0.514186 0
M  V30 12 C -0.489577 0.788085 0.899610 0
M  V30 13 C -0.618412 1.768022 1.856924 0
M  V30 14 C -1.919800 2.157763 2.195768 0
M  V30 15 C -3.044809 1.609074 1.621022 0
M  V30 16 N -4.350847 1.860468 1.829124 0
M  V30 17 C -5.062528 1.043154 1.007749 0
M  V30 18 C -4.194336 0.274196 0.279022 0
M  V30 19 C -4.466531 -0.758140 -0.745077 0
M  V30 20 C -5.422973 -0.417656 -1.703250 0
M  V30 21 C -5.750276 -1.316888 -2.726205 0
M  V30 22 C -5.088563 -2.551361 -2.746616 0
M  V30 23 N -5.415268 -3.479707 -3.796491 0
M  V30 24 C -4.144704 -2.884873 -1.798004 0
M  V30 25 C -3.453145 -4.140042 -1.809284 0
M  V30 26 N -2.897477 -5.132095 -1.835134 0
M  V30 27 C -3.840186 -1.981639 -0.800053 0
M  V30 28 C -2.897323 0.633992 0.669260 0
M  V30 29 C -1.616675 0.245170 0.329549 0
M  V30 30 N 1.868510 0.956338 1.152089 0
M  V30 31 H 5.323770 -3.603741 1.593340 0
M  V30 32 H 3.600996 -3.059421 1.706976 0
M  V30 33 H 4.582463 -3.350074 3.245437 0
M  V30 34 H 6.655975 -0.501440 2.782761 0
M  V30 35 H 6.462410 -2.140980 3.633690 0
M  V30 36 H 7.068560 -2.019647 1.944403 0
M  V30 37 H 4.015319 -1.100354 3.940168 0
M  V30 38 H 3.084060 -1.027103 2.430600 0
M  V30 39 H 3.561807 1.206935 3.317097 0
M  V30 40 H 5.336596 0.902280 3.335039 0
M  V30 41 H 5.014417 1.580818 0.749716 0
M  V30 42 H 4.334706 -0.778555 -0.410212 0
M  V30 43 H 0.283062 -1.128762 -0.919309 0
M  V30 44 H 0.197650 2.252077 2.358237 0
M  V30 45 H -2.049479 2.926869 2.946043 0
M  V30 46 H -4.762194 2.551172 2.494748 0
M  V30 47 H -6.139372 0.997413 0.932012 0
M  V30 48 H -5.973659 0.522907 -1.746055 0
M  V30 49 H -6.475636 -1.120498 -3.494476 0
M  V30 50 H -4.504392 -3.769598 -4.265527 0
M  V30 51 H -6.284397 -3.908811 -4.180987 0
M  V30 52 H -3.120528 -2.238748 -0.062987 0
M  V30 53 H -1.556713 -0.520013 -0.429533 0
M  V30 END ATOM
M  V30 BEGIN BOND
M  V30 1 1 1 2
M  V30 2 1 2 3
M  V30 3 1 2 4
M  V30 4 1 4 5
M  V30 5 1 5 6
M  V30 6 1 6 7
M  V30 7 2 7 8
M  V30 8 1 8 9
M  V30 9 2 9 10
M  V30 10 1 10 11
M  V30 11 1 11 12
M  V30 12 2 12 13
M  V30 13 1 13 14
M  V30 14 2 14 15
M  V30 15 1 15 16
M  V30 16 1 16 17
M  V30 17 2 17 18
M  V30 18 1 18 19
M  V30 19 2 19 20
M  V30 20 1 20 21
M  V30 21 2 21 22
M  V30 22 1 22 23
M  V30 23 1 22 24
M  V30 24 1 24 25
M  V30 25 3 25 26
M  V30 26 2 24 27
M  V30 27 1 18 28
M  V30 28 2 28 29
M  V30 29 2 11 30
M  V30 30 1 30 7
M  V30 31 1 29 12
M  V30 32 1 28 15
M  V30 33 1 27 19
M  V30 34 1 1 31
M  V30 35 1 1 32
M  V30 36 1 1 33
M  V30 37 1 3 34
M  V30 38 1 3 35
M  V30 39 1 3 36
M  V30 40 1 4 37
M  V30 41 1 4 38
M  V30 42 1 5 39
M  V30 43 1 5 40
M  V30 44 1 6 41
M  V30 45 1 8 42
M  V30 46 1 10 43
M  V30 47 1 13 44
M  V30 48 1 14 45
M  V30 49 1 16 46
M  V30 50 1 17 47
M  V30 51 1 20 48
M  V30 52 1 21 49
M  V30 53 1 23 50
M  V30 54 1 23 51
M  V30 55 1 27 52
M  V30 56 1 29 53
M  V30 END BOND
M  V30 END CTAB
M  END
>  <Dataset>  (80) 
ChEMBL_Kinases

>  <Ligand_Instance>  (80) 
nan

>  <PDB_ID>  (80) 
nan

>  <Standardized_SMILES>  (80) 
CN(C)CCNc1cncc(-c2ccc3[nH]cc(-c4ccc(N)c(C#N)c4)c3c2)n1

>  <Name>  (80) 
nan

>  <Pocket>  (80) 
nan

>  <ATP_Site>  (80) 
nan

>  <Peripheral>  (80) 
nan

>  <Num_H_Atoms_ProtBoundConf>  (80) 
nan

>  <Num_Resolved_Atoms>  (80) 
nan

>  <Num_Not_Resolved_Atoms>  (80) 
nan

$$$$
CHEMBL4126740
     RDKit          3D

  0  0  0  0  0  0  0  0  0  0999 V3000
M  V30 BEGIN CTAB
M  V30 COUNTS 60 63 0 0 0
M  V30 BEGIN ATOM
M  V30 1 C 5.638437 -1.965243 0.969847 0
M  V30 2 N 6.423522 -1.110679 0.138832 0
M  V30 3 C 7.713836 -1.734153 -0.071086 0
M  V30 4 C 5.836035 -0.716386 -1.097165 0
M  V30 5 C 4.646878 0.218728 -0.911549 0
M  V30 6 C 4.113293 0.562054 -2.242391 0
M  V30 7 N 2.992559 1.434452 -2.322238 0
M  V30 8 C 1.782734 1.018474 -1.676577 0
M  V30 9 O 1.844499 -0.097728 -1.094659 0
M  V30 10 C 0.552294 1.800402 -1.672238 0
M  V30 11 C 0.364562 3.032674 -2.262461 0
M  V30 12 C -0.839529 3.703654 -2.209447 0
M  V30 13 C -1.928492 3.160896 -1.551084 0
M  V30 14 C -1.747533 1.918259 -0.952801 0
M  V30 15 C -2.895318 1.340767 -0.255496 0
M  V30 16 C -2.877664 0.107828 0.385511 0
M  V30 17 C -4.156719 -0.004507 0.880885 0
M  V30 18 C -4.799890 -0.980427 1.613980 0
M  V30 19 C -4.160748 -2.207831 2.031276 0
M  V30 20 C -3.423832 -2.927309 1.118341 0
M  V30 21 C -2.832363 -4.102427 1.587250 0
M  V30 22 C -2.983648 -4.511069 2.892953 0
M  V30 23 C -2.348365 -5.752678 3.349991 0
M  V30 24 N -2.497058 -6.189833 4.693853 0
M  V30 25 O -1.657359 -6.466537 2.578416 0
M  V30 26 C -3.723854 -3.785322 3.803577 0
M  V30 27 C -4.310272 -2.622458 3.343876 0
M  V30 28 C -6.112166 -0.824199 1.981150 0
M  V30 29 C -6.843365 0.315097 1.632090 0
M  V30 30 N -6.214426 1.265412 0.917353 0
M  V30 31 C -4.928187 1.093443 0.567751 0
M  V30 32 N -4.110849 1.911040 -0.140199 0
M  V30 33 C -0.548587 1.283500 -1.023477 0
M  V30 34 H 6.351593 -2.530607 1.638990 0
M  V30 35 H 4.945212 -1.442698 1.643402 0
M  V30 36 H 5.177780 -2.738090 0.331437 0
M  V30 37 H 8.077450 -1.606905 -1.107847 0
M  V30 38 H 8.461274 -1.355720 0.678423 0
M  V30 39 H 7.654393 -2.825495 0.111692 0
M  V30 40 H 5.523076 -1.647476 -1.638445 0
M  V30 41 H 6.619745 -0.263691 -1.738114 0
M  V30 42 H 5.086665 1.161615 -0.471633 0
M  V30 43 H 3.969763 -0.166567 -0.160073 0
M  V30 44 H 4.959386 1.043262 -2.809922 0
M  V30 45 H 3.953707 -0.410974 -2.793852 0
M  V30 46 H 2.908401 2.363225 -2.797377 0
M  V30 47 H 1.202609 3.462143 -2.776987 0
M  V30 48 H -0.916930 4.669569 -2.696385 0
M  V30 49 H -2.851543 3.719815 -1.534280 0
M  V30 50 H -2.107170 -0.618818 0.505654 0
M  V30 51 H -3.269299 -2.662334 0.085493 0
M  V30 52 H -2.222600 -4.753785 0.947995 0
M  V30 53 H -3.368272 -6.679146 5.040440 0
M  V30 54 H -2.010635 -6.222439 5.612040 0
M  V30 55 H -3.818528 -4.134812 4.809561 0
M  V30 56 H -4.892633 -2.030134 4.020728 0
M  V30 57 H -6.711646 -1.542350 2.563792 0
M  V30 58 H -7.872582 0.540802 1.865813 0
M  V30 59 H -4.395984 2.835428 -0.527556 0
M  V30 60 H -0.464987 0.323328 -0.542187 0
M  V30 END ATOM
M  V30 BEGIN BOND
M  V30 1 1 1 2
M  V30 2 1 2 3
M  V30 3 1 2 4
M  V30 4 1 4 5
M  V30 5 1 5 6
M  V30 6 1 6 7
M  V30 7 1 7 8
M  V30 8 2 8 9
M  V30 9 1 8 10
M  V30 10 2 10 11
M  V30 11 1 11 12
M  V30 12 2 12 13
M  V30 13 1 13 14
M  V30 14 1 14 15
M  V30 15 2 15 16
M  V30 16 1 16 17
M  V30 17 2 17 18
M  V30 18 1 18 19
M  V30 19 2 19 20
M  V30 20 1 20 21
M  V30 21 2 21 22
M  V30 22 1 22 23
M  V30 23 1 23 24
M  V30 24 2 23 25
M  V30 25 1 22 26
M  V30 26 2 26 27
M  V30 27 1 18 28
M  V30 28 2 28 29
M  V30 29 1 29 30
M  V30 30 2 30 31
M  V30 31 1 31 32
M  V30 32 2 14 33
M  V30 33 1 33 10
M  V30 34 1 32 15
M  V30 35 1 31 17
M  V30 36 1 27 19
M  V30 37 1 1 34
M  V30 38 1 1 35
M  V30 39 1 1 36
M  V30 40 1 3 37
M  V30 41 1 3 38
M  V30 42 1 3 39
M  V30 43 1 4 40
M  V30 44 1 4 41
M  V30 45 1 5 42
M  V30 46 1 5 43
M  V30 47 1 6 44
M  V30 48 1 6 45
M  V30 49 1 7 46
M  V30 50 1 11 47
M  V30 51 1 12 48
M  V30 52 1 13 49
M  V30 53 1 16 50
M  V30 54 1 20 51
M  V30 55 1 21 52
M  V30 56 1 24 53
M  V30 57 1 24 54
M  V30 58 1 26 55
M  V30 59 1 27 56
M  V30 60 1 28 57
M  V30 61 1 29 58
M  V30 62 1 32 59
M  V30 63 1 33 60
M  V30 END BOND
M  V30 END CTAB
M  END
>  <Dataset>  (81) 
ChEMBL_Kinases

>  <Ligand_Instance>  (81) 
nan

>  <PDB_ID>  (81) 
nan

>  <Standardized_SMILES>  (81) 
CN(C)CCCNC(=O)c1cccc(-c2cc3c(-c4ccc(C(N)=O)cc4)ccnc3[nH]2)c1

>  <Name>  (81) 
nan

>  <Pocket>  (81) 
nan

>  <ATP_Site>  (81) 
nan

>  <Peripheral>  (81) 
nan

>  <Num_H_Atoms_ProtBoundConf>  (81) 
nan

>  <Num_Resolved_Atoms>  (81) 
nan

>  <Num_Not_Resolved_Atoms>  (81) 
nan

$$$$
CHEMBL4168834
     RDKit          3D

  0  0  0  0  0  0  0  0  0  0999 V3000
M  V30 BEGIN CTAB
M  V30 COUNTS 62 65 0 0 0
M  V30 BEGIN ATOM
M  V30 1 C 7.393335 3.062017 2.118540 0
M  V30 2 C 7.001007 2.229350 0.943373 0
M  V30 3 C 5.740124 2.780151 0.266868 0
M  V30 4 N 5.455754 1.925942 -0.828316 0
M  V30 5 S 4.093520 2.302980 -1.767286 0
M  V30 6 O 4.178711 3.721938 -2.279682 0
M  V30 7 O 3.960332 1.439370 -2.983344 0
M  V30 8 C 2.644721 2.225943 -0.779075 0
M  V30 9 C 2.107373 0.952944 -0.666021 0
M  V30 10 C 0.953702 0.823083 0.087877 0
M  V30 11 C 0.345948 1.899178 0.709585 0
M  V30 12 N -0.844120 1.694934 1.472901 0
M  V30 13 C -1.267970 0.355539 1.689174 0
M  V30 14 N -0.843491 -0.034917 2.927506 0
M  V30 15 C -1.114579 -1.292021 3.386420 0
M  V30 16 C -1.830821 -2.146746 2.551400 0
M  V30 17 C -2.251250 -1.715165 1.286341 0
M  V30 18 N -1.960738 -0.447297 0.861406 0
M  V30 19 N -2.976268 -2.607894 0.450585 0
M  V30 20 C -3.906127 -2.108016 -0.502283 0
M  V30 21 C -4.266963 -0.809492 -0.662330 0
M  V30 22 C -5.197757 -0.750509 -1.706577 0
M  V30 23 N -5.376366 -2.019301 -2.152099 0
M  V30 24 C -6.248798 -2.487086 -3.230782 0
M  V30 25 N -4.604041 -2.788606 -1.423637 0
M  V30 26 C -2.705955 -4.016688 0.643529 0
M  V30 27 C -3.541820 -4.925546 -0.218350 0
M  V30 28 C -3.147927 -6.356731 0.095769 0
M  V30 29 C -2.868213 -4.304190 2.085587 0
M  V30 30 O -3.594164 -5.207715 2.623910 0
M  V30 31 N -2.134718 -3.485362 2.998510 0
M  V30 32 C -1.697482 -3.934518 4.331709 0
M  V30 33 C 0.941961 3.140340 0.551162 0
M  V30 34 C 2.090392 3.348990 -0.183557 0
M  V30 35 H 7.499212 4.119136 1.779946 0
M  V30 36 H 8.367962 2.686879 2.503447 0
M  V30 37 H 6.648183 2.933064 2.925535 0
M  V30 38 H 7.843748 2.190052 0.228765 0
M  V30 39 H 6.797221 1.174375 1.291314 0
M  V30 40 H 6.055824 3.780564 -0.140415 0
M  V30 41 H 4.929615 2.918059 0.979133 0
M  V30 42 H 6.253744 1.670589 -1.432539 0
M  V30 43 H 2.539284 0.077613 -1.130154 0
M  V30 44 H 0.520897 -0.183072 0.182477 0
M  V30 45 H -1.317952 2.558860 1.818425 0
M  V30 46 H -0.825106 -1.686198 4.338831 0
M  V30 47 H -3.993625 0.095022 -0.176377 0
M  V30 48 H -5.744285 0.058563 -2.171219 0
M  V30 49 H -6.502171 -1.666183 -3.927204 0
M  V30 50 H -5.666027 -3.278275 -3.785989 0
M  V30 51 H -7.136598 -3.014589 -2.814220 0
M  V30 52 H -1.607733 -4.165005 0.418462 0
M  V30 53 H -4.607331 -4.782274 0.036547 0
M  V30 54 H -3.326257 -4.775507 -1.298047 0
M  V30 55 H -2.218419 -6.356092 0.713658 0
M  V30 56 H -3.012614 -6.980098 -0.816445 0
M  V30 57 H -3.925797 -6.782162 0.773892 0
M  V30 58 H -0.642092 -3.741921 4.526418 0
M  V30 59 H -1.935992 -5.016085 4.387374 0
M  V30 60 H -2.375871 -3.436624 5.060478 0
M  V30 61 H 0.496787 4.004603 1.022858 0
M  V30 62 H 2.556901 4.309570 -0.310057 0
M  V30 END ATOM
M  V30 BEGIN BOND
M  V30 1 1 1 2
M  V30 2 1 2 3
M  V30 3 1 3 4
M  V30 4 1 4 5
M  V30 5 2 5 6
M  V30 6 2 5 7
M  V30 7 1 5 8
M  V30 8 2 8 9
M  V30 9 1 9 10
M  V30 10 2 10 11
M  V30 11 1 11 12
M  V30 12 1 12 13
M  V30 13 2 13 14
M  V30 14 1 14 15
M  V30 15 2 15 16
M  V30 16 1 16 17
M  V30 17 2 17 18
M  V30 18 1 17 19
M  V30 19 1 19 20
M  V30 20 1 20 21
M  V30 21 2 21 22
M  V30 22 1 22 23
M  V30 23 1 23 24
M  V30 24 1 23 25
M  V30 25 1 19 26
M  V30 26 1 26 27
M  V30 27 1 27 28
M  V30 28 1 26 29
M  V30 29 2 29 30
M  V30 30 1 29 31
M  V30 31 1 31 32
M  V30 32 1 11 33
M  V30 33 2 33 34
M  V30 34 1 34 8
M  V30 35 1 18 13
M  V30 36 2 25 20
M  V30 37 1 31 16
M  V30 38 1 1 35
M  V30 39 1 1 36
M  V30 40 1 1 37
M  V30 41 1 2 38
M  V30 42 1 2 39
M  V30 43 1 3 40
M  V30 44 1 3 41
M  V30 45 1 4 42
M  V30 46 1 9 43
M  V30 47 1 10 44
M  V30 48 1 12 45
M  V30 49 1 15 46
M  V30 50 1 21 47
M  V30 51 1 22 48
M  V30 52 1 24 49
M  V30 53 1 24 50
M  V30 54 1 24 51
M  V30 55 1 26 52
M  V30 56 1 27 53
M  V30 57 1 27 54
M  V30 58 1 28 55
M  V30 59 1 28 56
M  V30 60 1 28 57
M  V30 61 1 32 58
M  V30 62 1 32 59
M  V30 63 1 32 60
M  V30 64 1 33 61
M  V30 65 1 34 62
M  V30 END BOND
M  V30 END CTAB
M  END
>  <Dataset>  (82) 
ChEMBL_Kinases

>  <Ligand_Instance>  (82) 
nan

>  <PDB_ID>  (82) 
nan

>  <Standardized_SMILES>  (82) 
CCCNS(=O)(=O)c1ccc(Nc2ncc3c(n2)N(c2ccn(C)n2)C(CC)C(=O)N3C)cc1

>  <Name>  (82) 
nan

>  <Pocket>  (82) 
nan

>  <ATP_Site>  (82) 
nan

>  <Peripheral>  (82) 
nan

>  <Num_H_Atoms_ProtBoundConf>  (82) 
nan

>  <Num_Resolved_Atoms>  (82) 
nan

>  <Num_Not_Resolved_Atoms>  (82) 
nan

$$$$
CHEMBL4786564
     RDKit          3D

  0  0  0  0  0  0  0  0  0  0999 V3000
M  V30 BEGIN CTAB
M  V30 COUNTS 59 65 0 0 0
M  V30 BEGIN ATOM
M  V30 1 O 2.370289 -1.098245 -2.725806 0
M  V30 2 C 2.806950 -1.656804 -1.746078 0
M  V30 3 N 1.927334 -2.307136 -0.795830 0
M  V30 4 C 0.720097 -1.969216 -1.526937 0
M  V30 5 C 0.369448 -2.819501 -2.594351 0
M  V30 6 N -0.751724 -2.580818 -3.436961 0
M  V30 7 C -1.400332 -1.380840 -3.010625 0
M  V30 8 C -1.218085 -0.534936 -2.103371 0
M  V30 9 C -1.592290 0.777306 -1.662182 0
M  V30 10 C -1.788030 1.879223 -2.419491 0
M  V30 11 C -2.140730 3.151661 -2.045154 0
M  V30 12 C -2.268174 3.113388 -0.632374 0
M  V30 13 N -2.510122 4.244826 0.105240 0
M  V30 14 N -2.501215 3.797770 1.276708 0
M  V30 15 C -2.344012 2.705528 1.806576 0
M  V30 16 C -2.161010 1.438025 2.424720 0
M  V30 17 N -2.097022 0.143230 2.504914 0
M  V30 18 C -1.907138 -0.449734 3.613330 0
M  V30 19 C -1.769314 -1.637246 4.234030 0
M  V30 20 C -1.919685 -2.800859 3.305286 0
M  V30 21 C -2.942883 -2.789658 2.397248 0
M  V30 22 C -3.027759 -3.918555 1.656454 0
M  V30 23 C -2.121551 -4.918969 1.871402 0
M  V30 24 N -1.084272 -4.972374 2.770696 0
M  V30 25 C -1.001995 -3.768182 3.549734 0
M  V30 26 C -1.548353 -1.903543 5.555225 0
M  V30 27 N -1.464223 -0.819531 6.327677 0
M  V30 28 C -1.577940 0.443363 5.920268 0
M  V30 29 C -1.801018 0.616933 4.545717 0
M  V30 30 N -1.970154 1.742308 3.770796 0
M  V30 31 C -2.153702 2.177106 0.445636 0
M  V30 32 C -1.792963 1.045794 -0.366605 0
M  V30 33 C -0.076410 -0.861040 -1.308526 0
M  V30 34 C 4.293877 -1.654859 -1.540772 0
M  V30 35 C 4.915109 -0.911082 -2.566004 0
M  V30 36 C 6.296496 -0.724551 -2.683562 0
M  V30 37 C 7.114385 -1.315875 -1.711345 0
M  V30 38 C 6.429402 -2.009023 -0.761860 0
M  V30 39 C 5.123040 -2.238264 -0.580834 0
M  V30 40 H 2.345963 -2.775777 0.039922 0
M  V30 41 H 0.880388 -3.710407 -2.855340 0
M  V30 42 H -2.315545 -1.051196 -3.567914 0
M  V30 43 H -1.638395 1.777589 -3.513679 0
M  V30 44 H -2.282610 4.046908 -2.567207 0
M  V30 45 H -2.699440 5.284970 -0.070593 0
M  V30 46 H -3.640000 -1.985816 2.269217 0
M  V30 47 H -3.809283 -3.978938 0.919417 0
M  V30 48 H -2.301425 -5.757813 1.203101 0
M  V30 49 H -0.169387 -3.896890 4.198942 0
M  V30 50 H -1.464482 -2.941360 5.830721 0
M  V30 51 H -1.527480 1.260078 6.594609 0
M  V30 52 H -1.916711 2.675322 4.338229 0
M  V30 53 H -1.630533 0.127818 0.239837 0
M  V30 54 H 0.360196 -0.343695 -0.433217 0
M  V30 55 H 4.444163 -0.360829 -3.422260 0
M  V30 56 H 6.785554 -0.161873 -3.467607 0
M  V30 57 H 8.188663 -1.230837 -1.744378 0
M  V30 58 H 7.077660 -2.463141 0.003177 0
M  V30 59 H 4.547255 -2.764669 0.151584 0
M  V30 END ATOM
M  V30 BEGIN BOND
M  V30 1 2 1 2
M  V30 2 1 2 3
M  V30 3 1 3 4
M  V30 4 2 4 5
M  V30 5 1 5 6
M  V30 6 2 6 7
M  V30 7 1 7 8
M  V30 8 1 8 9
M  V30 9 2 9 10
M  V30 10 1 10 11
M  V30 11 2 11 12
M  V30 12 1 12 13
M  V30 13 1 13 14
M  V30 14 2 14 15
M  V30 15 1 15 16
M  V30 16 2 16 17
M  V30 17 1 17 18
M  V30 18 2 18 19
M  V30 19 1 19 20
M  V30 20 2 20 21
M  V30 21 1 21 22
M  V30 22 2 22 23
M  V30 23 1 23 24
M  V30 24 2 24 25
M  V30 25 1 19 26
M  V30 26 2 26 27
M  V30 27 1 27 28
M  V30 28 2 28 29
M  V30 29 1 29 30
M  V30 30 1 15 31
M  V30 31 2 31 32
M  V30 32 2 8 33
M  V30 33 1 2 34
M  V30 34 2 34 35
M  V30 35 1 35 36
M  V30 36 2 36 37
M  V30 37 1 37 38
M  V30 38 2 38 39
M  V30 39 1 33 4
M  V30 40 1 39 34
M  V30 41 1 32 9
M  V30 42 1 31 12
M  V30 43 1 30 16
M  V30 44 1 29 18
M  V30 45 1 25 20
M  V30 46 1 3 40
M  V30 47 1 5 41
M  V30 48 1 7 42
M  V30 49 1 10 43
M  V30 50 1 11 44
M  V30 51 1 13 45
M  V30 52 1 21 46
M  V30 53 1 22 47
M  V30 54 1 23 48
M  V30 55 1 25 49
M  V30 56 1 26 50
M  V30 57 1 28 51
M  V30 58 1 30 52
M  V30 59 1 32 53
M  V30 60 1 33 54
M  V30 61 1 35 55
M  V30 62 1 36 56
M  V30 63 1 37 57
M  V30 64 1 38 58
M  V30 65 1 39 59
M  V30 END BOND
M  V30 END CTAB
M  END
>  <Dataset>  (83) 
ChEMBL_Kinases

>  <Ligand_Instance>  (83) 
nan

>  <PDB_ID>  (83) 
nan

>  <Standardized_SMILES>  (83) 
O=C(Nc1cncc(-c2ccc3[nH]nc(-c4nc5c(-c6cccnc6)cncc5[nH]4)c3c2)c1)c1ccccc1

>  <Name>  (83) 
nan

>  <Pocket>  (83) 
nan

>  <ATP_Site>  (83) 
nan

>  <Peripheral>  (83) 
nan

>  <Num_H_Atoms_ProtBoundConf>  (83) 
nan

>  <Num_Resolved_Atoms>  (83) 
nan

>  <Num_Not_Resolved_Atoms>  (83) 
nan

$$$$
CHEMBL4786522
     RDKit          3D

  0  0  0  0  0  0  0  0  0  0999 V3000
M  V30 BEGIN CTAB
M  V30 COUNTS 57 62 0 0 0
M  V30 BEGIN ATOM
M  V30 1 C 7.067101 0.489499 3.496235 0
M  V30 2 C 6.715980 -0.770181 2.690253 0
M  V30 3 C 6.863919 -1.920292 3.668412 0
M  V30 4 C 5.308569 -0.567018 2.279236 0
M  V30 5 O 4.773416 0.504229 2.656695 0
M  V30 6 N 4.550401 -1.468085 1.515210 0
M  V30 7 C 3.210752 -1.387089 1.063610 0
M  V30 8 C 2.702364 -2.426043 0.318085 0
M  V30 9 N 1.442580 -2.422250 -0.145447 0
M  V30 10 C 0.575989 -1.416691 0.074014 0
M  V30 11 C 1.037897 -0.350918 0.816752 0
M  V30 12 C 0.108763 0.745640 1.061753 0
M  V30 13 C 0.385824 1.889446 1.778020 0
M  V30 14 C -0.539992 2.892556 1.974044 0
M  V30 15 C -1.801321 2.788037 1.451601 0
M  V30 16 N -2.880351 3.552647 1.462874 0
M  V30 17 N -3.836493 2.925499 0.772723 0
M  V30 18 C -3.375413 1.755832 0.315562 0
M  V30 19 C -4.154569 0.811045 -0.479659 0
M  V30 20 N -3.767165 -0.379017 -0.974767 0
M  V30 21 C -4.800744 -0.944125 -1.660267 0
M  V30 22 C -4.949057 -2.131664 -2.352166 0
M  V30 23 C -3.801227 -3.014643 -2.401177 0
M  V30 24 C -3.111763 -3.223770 -1.222607 0
M  V30 25 C -2.021070 -4.076092 -1.319013 0
M  V30 26 C -1.613170 -4.698175 -2.495596 0
M  V30 27 N -2.348101 -4.435921 -3.603988 0
M  V30 28 C -3.416782 -3.619524 -3.579925 0
M  V30 29 C -6.171670 -2.397371 -2.946971 0
M  V30 30 C -7.180217 -1.473784 -2.824607 0
M  V30 31 N -7.011479 -0.316406 -2.141320 0
M  V30 32 C -5.832501 -0.031133 -1.552158 0
M  V30 33 N -5.433556 1.043504 -0.828085 0
M  V30 34 C -2.054575 1.634082 0.738690 0
M  V30 35 N -1.135028 0.657273 0.554467 0
M  V30 36 C 2.332054 -0.370182 1.284687 0
M  V30 37 H 6.370574 0.623776 4.349203 0
M  V30 38 H 6.891126 1.399735 2.851061 0
M  V30 39 H 8.101487 0.472622 3.835128 0
M  V30 40 H 7.422615 -0.814210 1.863033 0
M  V30 41 H 7.471224 -1.662504 4.551351 0
M  V30 42 H 7.310164 -2.826239 3.218565 0
M  V30 43 H 5.850285 -2.229716 4.043781 0
M  V30 44 H 5.116617 -2.316330 1.268928 0
M  V30 45 H 3.333511 -3.290108 0.087570 0
M  V30 46 H -0.415410 -1.518638 -0.347073 0
M  V30 47 H 1.354508 2.002550 2.196863 0
M  V30 48 H -0.267525 3.759476 2.540024 0
M  V30 49 H -2.961101 4.488090 1.935006 0
M  V30 50 H -3.369901 -2.774509 -0.269063 0
M  V30 51 H -1.469068 -4.251085 -0.403932 0
M  V30 52 H -0.748925 -5.342779 -2.456345 0
M  V30 53 H -3.954569 -3.458799 -4.508220 0
M  V30 54 H -6.266370 -3.327319 -3.480866 0
M  V30 55 H -8.141682 -1.659521 -3.279911 0
M  V30 56 H -6.053007 1.879995 -0.608520 0
M  V30 57 H 2.648100 0.482845 1.859341 0
M  V30 END ATOM
M  V30 BEGIN BOND
M  V30 1 1 1 2
M  V30 2 1 2 3
M  V30 3 1 2 4
M  V30 4 2 4 5
M  V30 5 1 4 6
M  V30 6 1 6 7
M  V30 7 2 7 8
M  V30 8 1 8 9
M  V30 9 2 9 10
M  V30 10 1 10 11
M  V30 11 1 11 12
M  V30 12 2 12 13
M  V30 13 1 13 14
M  V30 14 2 14 15
M  V30 15 1 15 16
M  V30 16 1 16 17
M  V30 17 2 17 18
M  V30 18 1 18 19
M  V30 19 2 19 20
M  V30 20 1 20 21
M  V30 21 2 21 22
M  V30 22 1 22 23
M  V30 23 2 23 24
M  V30 24 1 24 25
M  V30 25 2 25 26
M  V30 26 1 26 27
M  V30 27 2 27 28
M  V30 28 1 22 29
M  V30 29 2 29 30
M  V30 30 1 30 31
M  V30 31 2 31 32
M  V30 32 1 32 33
M  V30 33 1 18 34
M  V30 34 2 34 35
M  V30 35 2 11 36
M  V30 36 1 36 7
M  V30 37 1 35 12
M  V30 38 1 34 15
M  V30 39 1 33 19
M  V30 40 1 32 21
M  V30 41 1 28 23
M  V30 42 1 1 37
M  V30 43 1 1 38
M  V30 44 1 1 39
M  V30 45 1 2 40
M  V30 46 1 3 41
M  V30 47 1 3 42
M  V30 48 1 3 43
M  V30 49 1 6 44
M  V30 50 1 8 45
M  V30 51 1 10 46
M  V30 52 1 13 47
M  V30 53 1 14 48
M  V30 54 1 16 49
M  V30 55 1 24 50
M  V30 56 1 25 51
M  V30 57 1 26 52
M  V30 58 1 28 53
M  V30 59 1 29 54
M  V30 60 1 30 55
M  V30 61 1 33 56
M  V30 62 1 36 57
M  V30 END BOND
M  V30 END CTAB
M  END
>  <Dataset>  (84) 
ChEMBL_Kinases

>  <Ligand_Instance>  (84) 
nan

>  <PDB_ID>  (84) 
nan

>  <Standardized_SMILES>  (84) 
CC(C)C(=O)Nc1cncc(-c2ccc3[nH]nc(-c4nc5c(-c6cccnc6)ccnc5[nH]4)c3n2)c1

>  <Name>  (84) 
nan

>  <Pocket>  (84) 
nan

>  <ATP_Site>  (84) 
nan

>  <Peripheral>  (84) 
nan

>  <Num_H_Atoms_ProtBoundConf>  (84) 
nan

>  <Num_Resolved_Atoms>  (84) 
nan

>  <Num_Not_Resolved_Atoms>  (84) 
nan

$$$$
CHEMBL4166771
     RDKit          3D

  0  0  0  0  0  0  0  0  0  0999 V3000
M  V30 BEGIN CTAB
M  V30 COUNTS 59 62 0 0 0
M  V30 BEGIN ATOM
M  V30 1 C 1.978415 -0.895609 4.158469 0
M  V30 2 C 1.601854 -2.330603 3.990386 0
M  V30 3 C 2.072191 -2.981234 2.736023 0 CFG=2
M  V30 4 C 3.557219 -2.909879 2.711656 0
M  V30 5 O 4.364166 -3.817899 3.102581 0
M  V30 6 N 4.114245 -1.716264 2.204330 0
M  V30 7 C 5.464142 -1.301840 2.531396 0
M  V30 8 C 3.283330 -0.913520 1.338106 0
M  V30 9 C 3.824328 0.252636 0.845381 0
M  V30 10 N 3.063378 1.006427 0.043466 0
M  V30 11 C 1.804480 0.683243 -0.302739 0
M  V30 12 N 1.140720 1.588100 -1.179501 0
M  V30 13 C -0.225563 1.566883 -1.567407 0
M  V30 14 C -1.219559 0.862863 -0.918486 0
M  V30 15 C -2.532065 0.851711 -1.339698 0
M  V30 16 C -2.925996 1.556868 -2.451835 0
M  V30 17 S -4.603763 1.478365 -2.895647 0
M  V30 18 O -5.253573 0.218216 -2.371427 0
M  V30 19 O -4.770141 1.457707 -4.372533 0
M  V30 20 N -5.421636 2.800761 -2.133251 0
M  V30 21 C -5.275185 2.619898 -0.697791 0
M  V30 22 C -1.960500 2.270302 -3.122320 0
M  V30 23 C -0.659652 2.260859 -2.676200 0
M  V30 24 N 1.263643 -0.459746 0.174852 0
M  V30 25 C 1.987835 -1.235086 0.973335 0
M  V30 26 N 1.486319 -2.461222 1.517490 0
M  V30 27 C 0.450538 -3.178074 0.889526 0
M  V30 28 C -0.827203 -3.362442 1.659592 0
M  V30 29 C -1.924358 -3.517813 0.596626 0
M  V30 30 C -1.084099 -3.935245 -0.619813 0
M  V30 31 C 0.005143 -2.845527 -0.471921 0
M  V30 32 H 1.494441 -0.190547 3.483140 0
M  V30 33 H 1.639241 -0.587299 5.193901 0
M  V30 34 H 3.098224 -0.773712 4.211427 0
M  V30 35 H 2.104063 -2.885323 4.830645 0
M  V30 36 H 0.521570 -2.467527 4.191952 0
M  V30 37 H 1.792905 -4.061215 2.799851 0
M  V30 38 H 5.751081 -1.806644 3.493168 0
M  V30 39 H 5.549528 -0.215404 2.762412 0
M  V30 40 H 6.211661 -1.646051 1.790118 0
M  V30 41 H 4.825081 0.617258 1.051559 0
M  V30 42 H 1.692803 2.378475 -1.611045 0
M  V30 43 H -0.962884 0.303444 -0.035428 0
M  V30 44 H -3.250987 0.258490 -0.754156 0
M  V30 45 H -6.438600 2.658597 -2.356221 0
M  V30 46 H -5.685959 1.642521 -0.381459 0
M  V30 47 H -4.188810 2.698338 -0.408622 0
M  V30 48 H -5.764426 3.451144 -0.135458 0
M  V30 49 H -2.262351 2.827235 -3.995432 0
M  V30 50 H 0.062147 2.838879 -3.239531 0
M  V30 51 H 0.857962 -4.247298 0.799018 0
M  V30 52 H -0.876458 -4.334168 2.208225 0
M  V30 53 H -1.061405 -2.540232 2.337433 0
M  V30 54 H -2.668175 -4.271410 0.849471 0
M  V30 55 H -2.348984 -2.521999 0.447827 0
M  V30 56 H -0.692528 -4.936244 -0.430574 0
M  V30 57 H -1.673033 -3.804144 -1.532061 0
M  V30 58 H -0.570059 -1.939567 -0.636493 0
M  V30 59 H 0.734169 -3.073368 -1.276765 0
M  V30 END ATOM
M  V30 BEGIN BOND
M  V30 1 1 1 2
M  V30 2 1 2 3
M  V30 3 1 3 4
M  V30 4 2 4 5
M  V30 5 1 4 6
M  V30 6 1 6 7
M  V30 7 1 6 8
M  V30 8 2 8 9
M  V30 9 1 9 10
M  V30 10 2 10 11
M  V30 11 1 11 12
M  V30 12 1 12 13
M  V30 13 2 13 14
M  V30 14 1 14 15
M  V30 15 2 15 16
M  V30 16 1 16 17
M  V30 17 2 17 18
M  V30 18 2 17 19
M  V30 19 1 17 20
M  V30 20 1 20 21
M  V30 21 1 16 22
M  V30 22 2 22 23
M  V30 23 1 11 24
M  V30 24 2 24 25
M  V30 25 1 25 26
M  V30 26 1 26 27
M  V30 27 1 27 28
M  V30 28 1 28 29
M  V30 29 1 29 30
M  V30 30 1 30 31
M  V30 31 1 26 3
M  V30 32 1 31 27
M  V30 33 1 25 8
M  V30 34 1 23 13
M  V30 35 1 1 32
M  V30 36 1 1 33
M  V30 37 1 1 34
M  V30 38 1 2 35
M  V30 39 1 2 36
M  V30 40 1 3 37 CFG=1
M  V30 41 1 7 38
M  V30 42 1 7 39
M  V30 43 1 7 40
M  V30 44 1 9 41
M  V30 45 1 12 42
M  V30 46 1 14 43
M  V30 47 1 15 44
M  V30 48 1 20 45
M  V30 49 1 21 46
M  V30 50 1 21 47
M  V30 51 1 21 48
M  V30 52 1 22 49
M  V30 53 1 23 50
M  V30 54 1 27 51
M  V30 55 1 28 52
M  V30 56 1 28 53
M  V30 57 1 29 54
M  V30 58 1 29 55
M  V30 59 1 30 56
M  V30 60 1 30 57
M  V30 61 1 31 58
M  V30 62 1 31 59
M  V30 END BOND
M  V30 END CTAB
M  END
>  <Dataset>  (85) 
ChEMBL_Kinases

>  <Ligand_Instance>  (85) 
nan

>  <PDB_ID>  (85) 
nan

>  <Standardized_SMILES>  (85) 
CC[C@@H]1C(=O)N(C)c2cnc(Nc3ccc(S(=O)(=O)NC)cc3)nc2N1C1CCCC1

>  <Name>  (85) 
nan

>  <Pocket>  (85) 
nan

>  <ATP_Site>  (85) 
nan

>  <Peripheral>  (85) 
nan

>  <Num_H_Atoms_ProtBoundConf>  (85) 
nan

>  <Num_Resolved_Atoms>  (85) 
nan

>  <Num_Not_Resolved_Atoms>  (85) 
nan

$$$$
CHEMBL4130257
     RDKit          3D

  0  0  0  0  0  0  0  0  0  0999 V3000
M  V30 BEGIN CTAB
M  V30 COUNTS 53 56 0 0 0
M  V30 BEGIN ATOM
M  V30 1 C 2.694158 -4.598444 4.329988 0
M  V30 2 C 2.459954 -3.179853 3.957378 0
M  V30 3 C 1.670667 -2.354394 4.724138 0
M  V30 4 C 1.391912 -1.037098 4.464579 0
M  V30 5 C 1.966052 -0.487697 3.311557 0
M  V30 6 C 2.765383 -1.300613 2.524399 0
M  V30 7 C 3.338891 -0.667554 1.337162 0
M  V30 8 C 4.651181 -0.708430 0.927883 0
M  V30 9 N 4.865135 -0.004178 -0.211870 0
M  V30 10 C 3.661495 0.504551 -0.548474 0
M  V30 11 C 3.342705 1.304230 -1.644501 0
M  V30 12 C 2.016633 1.694252 -1.764352 0
M  V30 13 C 1.043319 1.323154 -0.859859 0
M  V30 14 C -0.352098 1.723137 -0.987533 0
M  V30 15 C -0.834156 2.498886 -2.025140 0
M  V30 16 N -2.110779 2.766043 -2.015699 0
M  V30 17 C -3.059667 2.425341 -1.179637 0
M  V30 18 C -2.578317 1.632931 -0.115790 0
M  V30 19 N -3.436264 1.106601 0.923168 0
M  V30 20 C -3.505577 -0.286083 0.533245 0
M  V30 21 C -4.062628 -0.534725 -0.818927 0
M  V30 22 N -4.123445 -1.885791 -1.250228 0
M  V30 23 C -5.015967 -2.752721 -0.581842 0
M  V30 24 C -2.984817 -2.439915 -1.873519 0
M  V30 25 N -1.273879 1.346756 -0.102931 0
M  V30 26 C 1.415545 0.532528 0.204840 0
M  V30 27 C 2.712416 0.110102 0.386854 0
M  V30 28 C 3.020916 -2.623254 2.821594 0
M  V30 29 H 2.523495 -4.766302 5.415179 0
M  V30 30 H 3.726341 -4.917500 4.086581 0
M  V30 31 H 1.956715 -5.223715 3.782145 0
M  V30 32 H 1.223979 -2.798368 5.625837 0
M  V30 33 H 0.766326 -0.446911 5.107207 0
M  V30 34 H 1.771160 0.557936 3.068610 0
M  V30 35 H 5.458903 -1.229763 1.424472 0
M  V30 36 H 5.750613 0.126545 -0.725034 0
M  V30 37 H 4.074789 1.619254 -2.385141 0
M  V30 38 H 1.784142 2.310156 -2.613883 0
M  V30 39 H -0.154599 2.848101 -2.787847 0
M  V30 40 H -4.113841 2.641599 -1.168161 0
M  V30 41 H -3.884240 1.590699 1.731252 0
M  V30 42 H -4.152602 -0.769978 1.324379 0
M  V30 43 H -2.505671 -0.730406 0.706395 0
M  V30 44 H -3.589690 0.094257 -1.615908 0
M  V30 45 H -5.134424 -0.167785 -0.804420 0
M  V30 46 H -4.478355 -3.648454 -0.161397 0
M  V30 47 H -5.716948 -3.177352 -1.355741 0
M  V30 48 H -5.620895 -2.296954 0.200523 0
M  V30 49 H -3.328165 -2.903387 -2.845262 0
M  V30 50 H -2.443010 -3.231931 -1.351198 0
M  V30 51 H -2.321946 -1.601740 -2.184490 0
M  V30 52 H 0.672012 0.214753 0.943504 0
M  V30 53 H 3.643208 -3.214496 2.183520 0
M  V30 END ATOM
M  V30 BEGIN BOND
M  V30 1 1 1 2
M  V30 2 2 2 3
M  V30 3 1 3 4
M  V30 4 2 4 5
M  V30 5 1 5 6
M  V30 6 1 6 7
M  V30 7 2 7 8
M  V30 8 1 8 9
M  V30 9 1 9 10
M  V30 10 2 10 11
M  V30 11 1 11 12
M  V30 12 2 12 13
M  V30 13 1 13 14
M  V30 14 2 14 15
M  V30 15 1 15 16
M  V30 16 2 16 17
M  V30 17 1 17 18
M  V30 18 1 18 19
M  V30 19 1 19 20
M  V30 20 1 20 21
M  V30 21 1 21 22
M  V30 22 1 22 23
M  V30 23 1 22 24
M  V30 24 2 18 25
M  V30 25 1 13 26
M  V30 26 2 26 27
M  V30 27 2 6 28
M  V30 28 1 28 2
M  V30 29 1 27 7
M  V30 30 1 27 10
M  V30 31 1 25 14
M  V30 32 1 1 29
M  V30 33 1 1 30
M  V30 34 1 1 31
M  V30 35 1 3 32
M  V30 36 1 4 33
M  V30 37 1 5 34
M  V30 38 1 8 35
M  V30 39 1 9 36
M  V30 40 1 11 37
M  V30 41 1 12 38
M  V30 42 1 15 39
M  V30 43 1 17 40
M  V30 44 1 19 41
M  V30 45 1 20 42
M  V30 46 1 20 43
M  V30 47 1 21 44
M  V30 48 1 21 45
M  V30 49 1 23 46
M  V30 50 1 23 47
M  V30 51 1 23 48
M  V30 52 1 24 49
M  V30 53 1 24 50
M  V30 54 1 24 51
M  V30 55 1 26 52
M  V30 56 1 28 53
M  V30 END BOND
M  V30 END CTAB
M  END
>  <Dataset>  (86) 
ChEMBL_Kinases

>  <Ligand_Instance>  (86) 
nan

>  <PDB_ID>  (86) 
nan

>  <Standardized_SMILES>  (86) 
Cc1cccc(-c2c[nH]c3ccc(-c4cncc(NCCN(C)C)n4)cc23)c1

>  <Name>  (86) 
nan

>  <Pocket>  (86) 
nan

>  <ATP_Site>  (86) 
nan

>  <Peripheral>  (86) 
nan

>  <Num_H_Atoms_ProtBoundConf>  (86) 
nan

>  <Num_Resolved_Atoms>  (86) 
nan

>  <Num_Not_Resolved_Atoms>  (86) 
nan

$$$$
CHEMBL1683440
     RDKit          3D

  0  0  0  0  0  0  0  0  0  0999 V3000
M  V30 BEGIN CTAB
M  V30 COUNTS 58 61 0 0 0
M  V30 BEGIN ATOM
M  V30 1 C 7.561578 -1.170754 5.430234 0
M  V30 2 C 7.637454 0.238045 4.828458 0 CFG=2
M  V30 3 C 7.436448 1.240981 5.841211 0
M  V30 4 N 7.287960 2.050286 6.660829 0
M  V30 5 N 6.627946 0.270229 3.780355 0
M  V30 6 C 6.860992 0.409015 2.402931 0
M  V30 7 O 8.037753 0.522741 1.948510 0
M  V30 8 C 5.795463 0.432323 1.415929 0
M  V30 9 C 6.107675 0.571502 0.079131 0
M  V30 10 C 5.150645 0.603531 -0.930326 0
M  V30 11 C 3.822244 0.488380 -0.554202 0
M  V30 12 C 3.448286 0.346587 0.769329 0
M  V30 13 C 2.052995 0.222315 1.198099 0
M  V30 14 C 0.963356 0.231506 0.345255 0
M  V30 15 C -0.145926 0.090433 1.155827 0
M  V30 16 C -1.545884 0.041995 0.731754 0
M  V30 17 C -2.527033 -0.104193 1.691468 0
M  V30 18 C -3.839115 -0.142240 1.207093 0
M  V30 19 C -4.220576 -0.047234 -0.124758 0
M  V30 20 C -5.692215 -0.113080 -0.389156 0
M  V30 21 N -6.171525 -1.444553 -0.592380 0
M  V30 22 C -5.589508 -2.090189 -1.737370 0
M  V30 23 C -6.095560 -3.522753 -1.871259 0
M  V30 24 C -5.122235 -4.184535 -2.854558 0
M  V30 25 O -4.821780 -3.328130 -3.891127 0
M  V30 26 C -5.817518 -2.388047 -4.157123 0
M  V30 27 C -6.023572 -1.402502 -3.035331 0
M  V30 28 C -3.197890 0.097376 -1.037275 0
M  V30 29 C -1.889287 0.139479 -0.601187 0
M  V30 30 O 0.255098 0.003720 2.400130 0
M  V30 31 N 1.565424 0.079526 2.456249 0
M  V30 32 C 4.454406 0.322444 1.724505 0
M  V30 33 H 6.508671 -1.534560 5.347235 0
M  V30 34 H 8.164865 -1.847840 4.807250 0
M  V30 35 H 7.886675 -1.178581 6.490506 0
M  V30 36 H 8.660188 0.339520 4.411299 0
M  V30 37 H 5.671297 0.177013 4.157085 0
M  V30 38 H 7.114027 0.663962 -0.264240 0
M  V30 39 H 5.401204 0.713113 -1.979298 0
M  V30 40 H 2.991944 0.502071 -1.271548 0
M  V30 41 H 0.918309 0.324811 -0.726612 0
M  V30 42 H -2.320548 -0.183966 2.732309 0
M  V30 43 H -4.600494 -0.259236 1.991916 0
M  V30 44 H -5.944562 0.505023 -1.294735 0
M  V30 45 H -6.231461 0.320784 0.478490 0
M  V30 46 H -6.107119 -2.044917 0.238822 0
M  V30 47 H -4.496353 -2.138536 -1.629991 0
M  V30 48 H -6.056010 -4.058754 -0.909398 0
M  V30 49 H -7.109157 -3.485949 -2.321212 0
M  V30 50 H -4.182913 -4.351763 -2.252706 0
M  V30 51 H -5.469372 -5.188995 -3.170465 0
M  V30 52 H -5.496832 -1.818974 -5.046195 0
M  V30 53 H -6.780929 -2.893500 -4.437072 0
M  V30 54 H -5.532380 -0.430861 -3.191546 0
M  V30 55 H -7.137425 -1.267883 -2.901488 0
M  V30 56 H -3.518174 0.169885 -2.066258 0
M  V30 57 H -1.117907 0.254447 -1.356179 0
M  V30 58 H 4.162962 0.211630 2.760054 0
M  V30 END ATOM
M  V30 BEGIN BOND
M  V30 1 1 1 2
M  V30 2 1 2 3
M  V30 3 3 3 4
M  V30 4 1 2 5
M  V30 5 1 5 6
M  V30 6 2 6 7
M  V30 7 1 6 8
M  V30 8 2 8 9
M  V30 9 1 9 10
M  V30 10 2 10 11
M  V30 11 1 11 12
M  V30 12 1 12 13
M  V30 13 1 13 14
M  V30 14 2 14 15
M  V30 15 1 15 16
M  V30 16 2 16 17
M  V30 17 1 17 18
M  V30 18 2 18 19
M  V30 19 1 19 20
M  V30 20 1 20 21
M  V30 21 1 21 22
M  V30 22 1 22 23
M  V30 23 1 23 24
M  V30 24 1 24 25
M  V30 25 1 25 26
M  V30 26 1 26 27
M  V30 27 1 19 28
M  V30 28 2 28 29
M  V30 29 1 15 30
M  V30 30 1 30 31
M  V30 31 2 12 32
M  V30 32 1 32 8
M  V30 33 2 31 13
M  V30 34 1 29 16
M  V30 35 1 27 22
M  V30 36 1 1 33
M  V30 37 1 1 34
M  V30 38 1 1 35
M  V30 39 1 2 36 CFG=3
M  V30 40 1 5 37
M  V30 41 1 9 38
M  V30 42 1 10 39
M  V30 43 1 11 40
M  V30 44 1 14 41
M  V30 45 1 17 42
M  V30 46 1 18 43
M  V30 47 1 20 44
M  V30 48 1 20 45
M  V30 49 1 21 46
M  V30 50 1 22 47
M  V30 51 1 23 48
M  V30 52 1 23 49
M  V30 53 1 24 50
M  V30 54 1 24 51
M  V30 55 1 26 52
M  V30 56 1 26 53
M  V30 57 1 27 54
M  V30 58 1 27 55
M  V30 59 1 28 56
M  V30 60 1 29 57
M  V30 61 1 32 58
M  V30 END BOND
M  V30 END CTAB
M  END
>  <Dataset>  (87) 
ChEMBL_Kinases

>  <Ligand_Instance>  (87) 
nan

>  <PDB_ID>  (87) 
nan

>  <Standardized_SMILES>  (87) 
C[C@H](C#N)NC(=O)c1cccc(-c2cc(-c3ccc(CNC4CCOCC4)cc3)on2)c1

>  <Name>  (87) 
nan

>  <Pocket>  (87) 
nan

>  <ATP_Site>  (87) 
nan

>  <Peripheral>  (87) 
nan

>  <Num_H_Atoms_ProtBoundConf>  (87) 
nan

>  <Num_Resolved_Atoms>  (87) 
nan

>  <Num_Not_Resolved_Atoms>  (87) 
nan

$$$$
CHEMBL4793214
     RDKit          3D

  0  0  0  0  0  0  0  0  0  0999 V3000
M  V30 BEGIN CTAB
M  V30 COUNTS 78 84 0 0 0
M  V30 BEGIN ATOM
M  V30 1 C 0.696698 3.396726 5.677393 0
M  V30 2 S 1.851799 3.462350 4.328324 0
M  V30 3 O 3.014957 2.588662 4.735500 0
M  V30 4 O 2.268124 4.866583 4.122761 0
M  V30 5 N 1.144403 2.763560 2.918888 0
M  V30 6 C -0.040117 3.487340 2.498580 0
M  V30 7 C -0.674291 2.910805 1.284922 0
M  V30 8 C -1.611120 1.928517 1.530701 0
M  V30 9 C -2.263132 1.327377 0.497000 0
M  V30 10 F -3.192870 0.357622 0.683578 0
M  V30 11 C -1.975379 1.712822 -0.794424 0
M  V30 12 C -1.048774 2.688614 -1.096154 0
M  V30 13 C -0.685440 3.151899 -2.426959 0
M  V30 14 N -0.612424 4.474271 -2.657648 0
M  V30 15 C -0.276903 4.976391 -3.883660 0
M  V30 16 C -0.008987 4.084799 -4.899322 0
M  V30 17 C -0.068701 2.719566 -4.717558 0
M  V30 18 N 0.127128 1.621743 -5.458983 0
M  V30 19 C -0.065496 0.471290 -4.767617 0
M  V30 20 C 0.109090 -0.800007 -5.433394 0
M  V30 21 N 0.454948 -0.976823 -6.718484 0
M  V30 22 N 0.541464 -2.232858 -7.043671 0
M  V30 23 C 0.255401 -3.003119 -5.984070 0
M  V30 24 C 0.207442 -4.368258 -5.802337 0
M  V30 25 N -0.126110 -4.811185 -4.556392 0
M  V30 26 C -0.397905 -3.970782 -3.544064 0
M  V30 27 C -0.737629 -4.561813 -2.253827 0
M  V30 28 C -0.754712 -5.936059 -2.160902 0
M  V30 29 N -1.052899 -6.613056 -1.014339 0
M  V30 30 C -1.356468 -5.949244 0.124451 0
M  V30 31 C -1.330898 -4.559997 -0.002047 0
M  V30 32 C -1.656780 -3.756400 1.231337 0
M  V30 33 N -0.380245 -3.528574 1.879076 0
M  V30 34 C -0.546474 -2.775072 3.086687 0
M  V30 35 C 0.737364 -2.497360 3.790026 0
M  V30 36 C 1.515055 -3.697259 4.216380 0
M  V30 37 C 2.530396 -3.055199 5.172970 0
M  V30 38 C 1.682998 -2.072385 5.949369 0
M  V30 39 C 0.417337 -1.861564 5.144321 0
M  V30 40 C -1.041010 -3.842173 -1.118210 0
M  V30 41 C -0.342028 -2.615421 -3.755594 0
M  V30 42 C -0.013208 -2.091497 -4.982601 0
M  V30 43 C -0.396596 0.916565 -3.539958 0
M  V30 44 C -0.412570 2.287456 -3.459434 0
M  V30 45 C -0.409305 3.273394 -0.018169 0
M  V30 46 H 1.101024 3.962647 6.546061 0
M  V30 47 H -0.266115 3.823103 5.325990 0
M  V30 48 H 0.518502 2.365473 6.043763 0
M  V30 49 H 0.984707 1.754578 3.012571 0
M  V30 50 H 0.298072 4.519125 2.194122 0
M  V30 51 H -0.763919 3.547588 3.318405 0
M  V30 52 H -1.865408 1.598310 2.523634 0
M  V30 53 H -2.486933 1.248360 -1.600088 0
M  V30 54 H -0.224782 6.048585 -4.040962 0
M  V30 55 H 0.256369 4.450899 -5.867655 0
M  V30 56 H 0.399844 1.787764 -6.463866 0
M  V30 57 H 0.801466 -2.527968 -8.009137 0
M  V30 58 H 0.426782 -5.043524 -6.621608 0
M  V30 59 H -0.529501 -6.596878 -3.000106 0
M  V30 60 H -1.601163 -6.425402 1.064252 0
M  V30 61 H -2.361123 -4.346438 1.828338 0
M  V30 62 H -2.136432 -2.798110 0.950353 0
M  V30 63 H 0.109510 -4.426679 1.963705 0
M  V30 64 H -0.982960 -1.800833 2.798457 0
M  V30 65 H -1.208768 -3.362442 3.743966 0
M  V30 66 H 1.368213 -1.780118 3.195113 0
M  V30 67 H 0.858172 -4.397029 4.736267 0
M  V30 68 H 2.058980 -4.131399 3.341926 0
M  V30 69 H 3.234243 -2.485392 4.523156 0
M  V30 70 H 3.020921 -3.802868 5.812443 0
M  V30 71 H 2.152111 -1.079511 6.055461 0
M  V30 72 H 1.424310 -2.461677 6.945958 0
M  V30 73 H 0.149418 -0.803347 5.041284 0
M  V30 74 H -0.397652 -2.473396 5.584541 0
M  V30 75 H -1.036117 -2.781657 -1.157864 0
M  V30 76 H -0.558428 -1.960962 -2.949599 0
M  V30 77 H -0.622433 0.287906 -2.708341 0
M  V30 78 H 0.337810 4.048576 -0.091072 0
M  V30 END ATOM
M  V30 BEGIN BOND
M  V30 1 1 1 2
M  V30 2 2 2 3
M  V30 3 2 2 4
M  V30 4 1 2 5
M  V30 5 1 5 6
M  V30 6 1 6 7
M  V30 7 2 7 8
M  V30 8 1 8 9
M  V30 9 1 9 10
M  V30 10 2 9 11
M  V30 11 1 11 12
M  V30 12 1 12 13
M  V30 13 2 13 14
M  V30 14 1 14 15
M  V30 15 2 15 16
M  V30 16 1 16 17
M  V30 17 1 17 18
M  V30 18 1 18 19
M  V30 19 1 19 20
M  V30 20 2 20 21
M  V30 21 1 21 22
M  V30 22 1 22 23
M  V30 23 2 23 24
M  V30 24 1 24 25
M  V30 25 2 25 26
M  V30 26 1 26 27
M  V30 27 2 27 28
M  V30 28 1 28 29
M  V30 29 2 29 30
M  V30 30 1 30 31
M  V30 31 1 31 32
M  V30 32 1 32 33
M  V30 33 1 33 34
M  V30 34 1 34 35
M  V30 35 1 35 36
M  V30 36 1 36 37
M  V30 37 1 37 38
M  V30 38 1 38 39
M  V30 39 2 31 40
M  V30 40 1 26 41
M  V30 41 2 41 42
M  V30 42 2 19 43
M  V30 43 1 43 44
M  V30 44 2 12 45
M  V30 45 1 45 7
M  V30 46 1 44 13
M  V30 47 2 44 17
M  V30 48 1 42 20
M  V30 49 1 42 23
M  V30 50 1 40 27
M  V30 51 1 39 35
M  V30 52 1 1 46
M  V30 53 1 1 47
M  V30 54 1 1 48
M  V30 55 1 5 49
M  V30 56 1 6 50
M  V30 57 1 6 51
M  V30 58 1 8 52
M  V30 59 1 11 53
M  V30 60 1 15 54
M  V30 61 1 16 55
M  V30 62 1 18 56
M  V30 63 1 22 57
M  V30 64 1 24 58
M  V30 65 1 28 59
M  V30 66 1 30 60
M  V30 67 1 32 61
M  V30 68 1 32 62
M  V30 69 1 33 63
M  V30 70 1 34 64
M  V30 71 1 34 65
M  V30 72 1 35 66
M  V30 73 1 36 67
M  V30 74 1 36 68
M  V30 75 1 37 69
M  V30 76 1 37 70
M  V30 77 1 38 71
M  V30 78 1 38 72
M  V30 79 1 39 73
M  V30 80 1 39 74
M  V30 81 1 40 75
M  V30 82 1 41 76
M  V30 83 1 43 77
M  V30 84 1 45 78
M  V30 END BOND
M  V30 END CTAB
M  END
>  <Dataset>  (88) 
ChEMBL_Kinases

>  <Ligand_Instance>  (88) 
nan

>  <PDB_ID>  (88) 
nan

>  <Standardized_SMILES>  (88) 
CS(=O)(=O)NCc1cc(F)cc(-c2nccc3[nH]c(-c4n[nH]c5cnc(-c6cncc(CNCC7CCCC7)c6)cc45)cc23)c1

>  <Name>  (88) 
nan

>  <Pocket>  (88) 
nan

>  <ATP_Site>  (88) 
nan

>  <Peripheral>  (88) 
nan

>  <Num_H_Atoms_ProtBoundConf>  (88) 
nan

>  <Num_Resolved_Atoms>  (88) 
nan

>  <Num_Not_Resolved_Atoms>  (88) 
nan

$$$$
CHEMBL4786493
     RDKit          3D

  0  0  0  0  0  0  0  0  0  0999 V3000
M  V30 BEGIN CTAB
M  V30 COUNTS 63 69 0 0 0
M  V30 BEGIN ATOM
M  V30 1 O 4.199905 1.787263 2.487520 0
M  V30 2 C 4.067873 0.668757 3.092815 0
M  V30 3 N 4.141861 -0.475870 2.240519 0
M  V30 4 C 4.350901 -0.068947 0.884529 0
M  V30 5 C 5.577699 0.120604 0.273446 0
M  V30 6 N 5.616956 0.506378 -1.017528 0
M  V30 7 C 4.489123 0.713687 -1.733613 0
M  V30 8 C 3.243337 0.538429 -1.170886 0
M  V30 9 C 1.988981 0.748490 -1.899980 0
M  V30 10 C 1.996621 1.721068 -2.880244 0
M  V30 11 C 0.823739 1.928486 -3.573567 0
M  V30 12 C -0.300645 1.184868 -3.285339 0
M  V30 13 N -1.553266 1.150874 -3.767651 0
M  V30 14 N -2.265963 0.240596 -3.141231 0
M  V30 15 C -1.546971 -0.401424 -2.195603 0
M  V30 16 C -2.030225 -1.454051 -1.330928 0
M  V30 17 C -3.333592 -1.919989 -1.397014 0
M  V30 18 C -3.571723 -2.918733 -0.485361 0
M  V30 19 C -4.653253 -3.699515 -0.144575 0
M  V30 20 C -5.921858 -3.537256 -0.834411 0
M  V30 21 C -6.615058 -2.411682 -1.147860 0
M  V30 22 C -7.815079 -2.456201 -1.819667 0
M  V30 23 N -8.328003 -3.646313 -2.182457 0
M  V30 24 C -7.690477 -4.814556 -1.902315 0
M  V30 25 C -6.487184 -4.756777 -1.228051 0
M  V30 26 N -4.527601 -4.614281 0.828304 0
M  V30 27 C -3.391286 -4.809029 1.492887 0
M  V30 28 C -2.296038 -4.036049 1.166132 0
M  V30 29 C -2.378894 -3.090659 0.179733 0
M  V30 30 N -1.529330 -2.213815 -0.356471 0
M  V30 31 C -0.323229 0.210953 -2.309966 0
M  V30 32 C 0.857280 0.021406 -1.631496 0
M  V30 33 C 3.192363 0.140934 0.159352 0
M  V30 34 C 3.860231 0.644488 4.547571 0
M  V30 35 C 3.863469 2.104882 5.003976 0
M  V30 36 C 2.506423 2.646807 4.612458 0
M  V30 37 C 1.605225 1.471124 4.809410 0
M  V30 38 C 2.454615 0.234448 4.928300 0
M  V30 39 H 4.036573 -1.400088 2.715563 0
M  V30 40 H 6.430665 -0.064019 0.908345 0
M  V30 41 H 4.541689 1.023427 -2.769248 0
M  V30 42 H 2.833513 2.344054 -3.164907 0
M  V30 43 H 0.702098 2.673078 -4.376466 0
M  V30 44 H -1.959451 1.737751 -4.528594 0
M  V30 45 H -4.129678 -1.585942 -2.066673 0
M  V30 46 H -6.156501 -1.503340 -0.829280 0
M  V30 47 H -8.263538 -1.493333 -2.007592 0
M  V30 48 H -8.186569 -5.697529 -2.235770 0
M  V30 49 H -6.082984 -5.758104 -1.067229 0
M  V30 50 H -3.240299 -5.521637 2.272898 0
M  V30 51 H -1.357606 -4.159242 1.677466 0
M  V30 52 H -0.556350 -2.158284 -0.011673 0
M  V30 53 H 0.937936 -0.701813 -0.866811 0
M  V30 54 H 2.199875 0.004714 0.596106 0
M  V30 55 H 4.632025 0.127586 5.122601 0
M  V30 56 H 4.628921 2.647978 4.440009 0
M  V30 57 H 3.994058 2.181817 6.094339 0
M  V30 58 H 2.229954 3.497724 5.270092 0
M  V30 59 H 2.531736 3.035224 3.573353 0
M  V30 60 H 0.820469 1.384033 4.014205 0
M  V30 61 H 1.013687 1.648262 5.753706 0
M  V30 62 H 2.033292 -0.546576 4.273344 0
M  V30 63 H 2.434091 -0.107705 5.961771 0
M  V30 END ATOM
M  V30 BEGIN BOND
M  V30 1 2 1 2
M  V30 2 1 2 3
M  V30 3 1 3 4
M  V30 4 2 4 5
M  V30 5 1 5 6
M  V30 6 2 6 7
M  V30 7 1 7 8
M  V30 8 1 8 9
M  V30 9 2 9 10
M  V30 10 1 10 11
M  V30 11 2 11 12
M  V30 12 1 12 13
M  V30 13 1 13 14
M  V30 14 2 14 15
M  V30 15 1 15 16
M  V30 16 2 16 17
M  V30 17 1 17 18
M  V30 18 2 18 19
M  V30 19 1 19 20
M  V30 20 2 20 21
M  V30 21 1 21 22
M  V30 22 2 22 23
M  V30 23 1 23 24
M  V30 24 2 24 25
M  V30 25 1 19 26
M  V30 26 2 26 27
M  V30 27 1 27 28
M  V30 28 2 28 29
M  V30 29 1 29 30
M  V30 30 1 15 31
M  V30 31 2 31 32
M  V30 32 2 8 33
M  V30 33 1 2 34
M  V30 34 1 34 35
M  V30 35 1 35 36
M  V30 36 1 36 37
M  V30 37 1 37 38
M  V30 38 1 33 4
M  V30 39 1 38 34
M  V30 40 1 32 9
M  V30 41 1 31 12
M  V30 42 1 30 16
M  V30 43 1 29 18
M  V30 44 1 25 20
M  V30 45 1 3 39
M  V30 46 1 5 40
M  V30 47 1 7 41
M  V30 48 1 10 42
M  V30 49 1 11 43
M  V30 50 1 13 44
M  V30 51 1 17 45
M  V30 52 1 21 46
M  V30 53 1 22 47
M  V30 54 1 24 48
M  V30 55 1 25 49
M  V30 56 1 27 50
M  V30 57 1 28 51
M  V30 58 1 30 52
M  V30 59 1 32 53
M  V30 60 1 33 54
M  V30 61 1 34 55
M  V30 62 1 35 56
M  V30 63 1 35 57
M  V30 64 1 36 58
M  V30 65 1 36 59
M  V30 66 1 37 60
M  V30 67 1 37 61
M  V30 68 1 38 62
M  V30 69 1 38 63
M  V30 END BOND
M  V30 END CTAB
M  END
>  <Dataset>  (89) 
ChEMBL_Kinases

>  <Ligand_Instance>  (89) 
nan

>  <PDB_ID>  (89) 
nan

>  <Standardized_SMILES>  (89) 
O=C(Nc1cncc(-c2ccc3[nH]nc(-c4cc5c(-c6ccncc6)nccc5[nH]4)c3c2)c1)C1CCCC1

>  <Name>  (89) 
nan

>  <Pocket>  (89) 
nan

>  <ATP_Site>  (89) 
nan

>  <Peripheral>  (89) 
nan

>  <Num_H_Atoms_ProtBoundConf>  (89) 
nan

>  <Num_Resolved_Atoms>  (89) 
nan

>  <Num_Not_Resolved_Atoms>  (89) 
nan

$$$$
CHEMBL4130159
     RDKit          3D

  0  0  0  0  0  0  0  0  0  0999 V3000
M  V30 BEGIN CTAB
M  V30 COUNTS 53 56 0 0 0
M  V30 BEGIN ATOM
M  V30 1 C 0.821170 -1.377214 3.251089 0
M  V30 2 N 1.953522 -1.296200 2.340764 0
M  V30 3 C 2.670887 -2.553849 2.279734 0
M  V30 4 C 2.805554 -0.180370 2.640185 0
M  V30 5 C 3.954707 -0.129084 1.668558 0
M  V30 6 N 3.553870 0.021741 0.299000 0
M  V30 7 C 2.786259 1.238257 0.185097 0
M  V30 8 C 3.334032 2.522663 0.103563 0
M  V30 9 N 2.478044 3.531821 -0.006710 0
M  V30 10 C 1.154221 3.396134 -0.044316 0
M  V30 11 C 0.596679 2.136081 0.033910 0
M  V30 12 C -0.860018 1.920974 -0.019797 0
M  V30 13 C -1.771794 2.946477 -0.127789 0
M  V30 14 C -3.113765 2.631390 -0.185374 0
M  V30 15 C -3.546266 1.318113 -0.136409 0
M  V30 16 N -4.784786 0.799688 -0.178617 0
M  V30 17 C -4.743171 -0.540929 -0.102662 0
M  V30 18 C -3.414505 -0.890603 -0.007810 0
M  V30 19 C -2.666776 -2.152774 0.100755 0
M  V30 20 C -2.298192 -2.696557 -1.116261 0
M  V30 21 C -1.583492 -3.874844 -1.084974 0
M  V30 22 C -1.180860 -4.470542 -2.354104 0
M  V30 23 O -1.497177 -3.900334 -3.427428 0
M  V30 24 O -0.454990 -5.652277 -2.447774 0
M  V30 25 C -1.278638 -4.439782 0.127622 0
M  V30 26 C -1.653044 -3.886925 1.352716 0
M  V30 27 C -2.374192 -2.698099 1.316467 0
M  V30 28 F -2.771836 -2.104925 2.486053 0
M  V30 29 C -2.649357 0.266720 -0.027382 0
M  V30 30 C -1.307356 0.619643 0.028172 0
M  V30 31 N 1.457780 1.118673 0.145977 0
M  V30 32 H -0.096777 -1.539402 2.652411 0
M  V30 33 H 0.915276 -2.153478 4.016004 0
M  V30 34 H 0.701374 -0.381360 3.770308 0
M  V30 35 H 3.637520 -2.462444 2.778431 0
M  V30 36 H 2.855586 -2.832745 1.221865 0
M  V30 37 H 2.133576 -3.396024 2.761613 0
M  V30 38 H 2.208963 0.739463 2.468370 0
M  V30 39 H 3.183031 -0.186073 3.680638 0
M  V30 40 H 4.593460 0.759242 1.922478 0
M  V30 41 H 4.621112 -1.023696 1.725112 0
M  V30 42 H 3.671188 -0.506703 -0.613372 0
M  V30 43 H 4.408875 2.552967 0.140138 0
M  V30 44 H 0.557595 4.271805 -0.134509 0
M  V30 45 H -1.438232 3.972290 -0.167697 0
M  V30 46 H -3.882154 3.410660 -0.271891 0
M  V30 47 H -5.703070 1.317128 -0.259479 0
M  V30 48 H -5.477391 -1.323056 -0.101427 0
M  V30 49 H -2.540657 -2.251849 -2.057455 0
M  V30 50 H 0.332980 -5.710080 -3.077383 0
M  V30 51 H -0.717330 -5.363817 0.113492 0
M  V30 52 H -1.400927 -4.350322 2.295008 0
M  V30 53 H -0.594442 -0.179557 0.112689 0
M  V30 END ATOM
M  V30 BEGIN BOND
M  V30 1 1 1 2
M  V30 2 1 2 3
M  V30 3 1 2 4
M  V30 4 1 4 5
M  V30 5 1 5 6
M  V30 6 1 6 7
M  V30 7 2 7 8
M  V30 8 1 8 9
M  V30 9 2 9 10
M  V30 10 1 10 11
M  V30 11 1 11 12
M  V30 12 2 12 13
M  V30 13 1 13 14
M  V30 14 2 14 15
M  V30 15 1 15 16
M  V30 16 1 16 17
M  V30 17 2 17 18
M  V30 18 1 18 19
M  V30 19 2 19 20
M  V30 20 1 20 21
M  V30 21 1 21 22
M  V30 22 2 22 23
M  V30 23 1 22 24
M  V30 24 2 21 25
M  V30 25 1 25 26
M  V30 26 2 26 27
M  V30 27 1 27 28
M  V30 28 1 18 29
M  V30 29 2 29 30
M  V30 30 2 11 31
M  V30 31 1 31 7
M  V30 32 1 30 12
M  V30 33 1 29 15
M  V30 34 1 27 19
M  V30 35 1 1 32
M  V30 36 1 1 33
M  V30 37 1 1 34
M  V30 38 1 3 35
M  V30 39 1 3 36
M  V30 40 1 3 37
M  V30 41 1 4 38
M  V30 42 1 4 39
M  V30 43 1 5 40
M  V30 44 1 5 41
M  V30 45 1 6 42
M  V30 46 1 8 43
M  V30 47 1 10 44
M  V30 48 1 13 45
M  V30 49 1 14 46
M  V30 50 1 16 47
M  V30 51 1 17 48
M  V30 52 1 20 49
M  V30 53 1 24 50
M  V30 54 1 25 51
M  V30 55 1 26 52
M  V30 56 1 30 53
M  V30 END BOND
M  V30 END CTAB
M  END
>  <Dataset>  (90) 
ChEMBL_Kinases

>  <Ligand_Instance>  (90) 
nan

>  <PDB_ID>  (90) 
nan

>  <Standardized_SMILES>  (90) 
CN(C)CCNc1cncc(-c2ccc3[nH]cc(-c4cc(C(=O)O)ccc4F)c3c2)n1

>  <Name>  (90) 
nan

>  <Pocket>  (90) 
nan

>  <ATP_Site>  (90) 
nan

>  <Peripheral>  (90) 
nan

>  <Num_H_Atoms_ProtBoundConf>  (90) 
nan

>  <Num_Resolved_Atoms>  (90) 
nan

>  <Num_Not_Resolved_Atoms>  (90) 
nan

$$$$
CHEMBL4786418
     RDKit          3D

  0  0  0  0  0  0  0  0  0  0999 V3000
M  V30 BEGIN CTAB
M  V30 COUNTS 58 63 0 0 0
M  V30 BEGIN ATOM
M  V30 1 C 0.816610 -4.623361 -0.488475 0
M  V30 2 C 2.260850 -4.875799 -0.101396 0
M  V30 3 C 3.274642 -4.552455 -1.119688 0
M  V30 4 C 3.363735 -3.188752 -1.679874 0
M  V30 5 C 3.665621 -2.096618 -0.722109 0
M  V30 6 O 3.640491 -3.163787 -0.084441 0
M  V30 7 N 3.857879 -0.728639 -0.579505 0
M  V30 8 C 4.069589 -0.578842 0.853578 0
M  V30 9 C 5.346086 -0.744122 1.273075 0
M  V30 10 N 5.393831 -0.587492 2.653266 0
M  V30 11 C 4.257262 -0.322377 3.274231 0
M  V30 12 C 3.033526 -0.117869 3.267104 0
M  V30 13 C 1.590102 0.123341 3.253245 0
M  V30 14 C 1.377775 0.032728 4.648136 0
M  V30 15 C 0.098313 0.141274 5.230390 0
M  V30 16 C -0.967078 0.349030 4.331843 0
M  V30 17 N -2.300026 0.510155 4.352936 0
M  V30 18 N -2.808566 0.678646 3.120405 0
M  V30 19 C -1.818789 0.635309 2.216307 0
M  V30 20 C -1.959509 0.788650 0.776783 0
M  V30 21 N -3.161796 0.989546 0.154932 0
M  V30 22 C -2.973925 1.090153 -1.183429 0
M  V30 23 C -3.973172 1.293612 -2.134487 0
M  V30 24 C -5.353683 1.409947 -1.718035 0
M  V30 25 C -6.438678 2.193323 -2.024274 0
M  V30 26 C -7.480582 1.755510 -1.206131 0
M  V30 27 O -7.057685 0.779917 -0.460442 0
M  V30 28 C -5.806132 0.535136 -0.723217 0
M  V30 29 C -3.474366 1.351535 -3.417040 0
M  V30 30 N -2.185752 1.231403 -3.763110 0
M  V30 31 C -1.280542 1.033791 -2.770336 0
M  V30 32 C -1.603275 0.950593 -1.439436 0
M  V30 33 N -1.088800 0.777833 -0.232117 0
M  V30 34 C -0.715679 0.431074 2.995985 0
M  V30 35 N 0.514832 0.319784 2.504479 0
M  V30 36 C 2.971126 -0.287180 1.750813 0
M  V30 37 H 0.127029 -5.409116 -0.161987 0
M  V30 38 H 0.662564 -4.432621 -1.558452 0
M  V30 39 H 0.554144 -3.633593 0.004970 0
M  V30 40 H 2.449575 -4.561466 0.925918 0
M  V30 41 H 2.294710 -6.028457 -0.017629 0
M  V30 42 H 3.131031 -5.249079 -1.992664 0
M  V30 43 H 4.264437 -4.873199 -0.682519 0
M  V30 44 H 2.394569 -2.975534 -2.221847 0
M  V30 45 H 4.128602 -3.163184 -2.475057 0
M  V30 46 H 3.772276 -0.344002 -1.521581 0
M  V30 47 H 6.255603 -0.959687 0.787422 0
M  V30 48 H 4.203869 -0.166119 4.411112 0
M  V30 49 H 1.980750 -0.117705 5.552694 0
M  V30 50 H -0.286408 0.104199 6.227039 0
M  V30 51 H -2.844662 0.497405 5.266812 0
M  V30 52 H -6.361032 2.955416 -2.765270 0
M  V30 53 H -8.483130 2.213902 -1.239350 0
M  V30 54 H -5.257500 -0.256627 -0.200706 0
M  V30 55 H -4.219947 1.513409 -4.211646 0
M  V30 56 H -0.192031 0.914064 -2.897837 0
M  V30 57 H -0.063011 0.643167 -0.094684 0
M  V30 58 H 2.148936 -0.244022 0.942560 0
M  V30 END ATOM
M  V30 BEGIN BOND
M  V30 1 1 1 2
M  V30 2 1 2 3
M  V30 3 1 3 4
M  V30 4 1 4 5
M  V30 5 2 5 6
M  V30 6 1 5 7
M  V30 7 1 7 8
M  V30 8 2 8 9
M  V30 9 1 9 10
M  V30 10 2 10 11
M  V30 11 1 11 12
M  V30 12 1 12 13
M  V30 13 2 13 14
M  V30 14 1 14 15
M  V30 15 2 15 16
M  V30 16 1 16 17
M  V30 17 1 17 18
M  V30 18 2 18 19
M  V30 19 1 19 20
M  V30 20 2 20 21
M  V30 21 1 21 22
M  V30 22 2 22 23
M  V30 23 1 23 24
M  V30 24 1 24 25
M  V30 25 2 25 26
M  V30 26 1 26 27
M  V30 27 1 27 28
M  V30 28 1 23 29
M  V30 29 2 29 30
M  V30 30 1 30 31
M  V30 31 2 31 32
M  V30 32 1 32 33
M  V30 33 1 19 34
M  V30 34 2 34 35
M  V30 35 2 12 36
M  V30 36 1 36 8
M  V30 37 1 35 13
M  V30 38 1 34 16
M  V30 39 1 33 20
M  V30 40 1 32 22
M  V30 41 2 28 24
M  V30 42 1 1 37
M  V30 43 1 1 38
M  V30 44 1 1 39
M  V30 45 1 2 40
M  V30 46 1 2 41
M  V30 47 1 3 42
M  V30 48 1 3 43
M  V30 49 1 4 44
M  V30 50 1 4 45
M  V30 51 1 7 46
M  V30 52 1 9 47
M  V30 53 1 11 48
M  V30 54 1 14 49
M  V30 55 1 15 50
M  V30 56 1 17 51
M  V30 57 1 25 52
M  V30 58 1 26 53
M  V30 59 1 28 54
M  V30 60 1 29 55
M  V30 61 1 31 56
M  V30 62 1 33 57
M  V30 63 1 36 58
M  V30 END BOND
M  V30 END CTAB
M  END
>  <Dataset>  (91) 
ChEMBL_Kinases

>  <Ligand_Instance>  (91) 
nan

>  <PDB_ID>  (91) 
nan

>  <Standardized_SMILES>  (91) 
CCCCC(=O)Nc1cncc(-c2ccc3[nH]nc(-c4nc5c(-c6ccoc6)cncc5[nH]4)c3n2)c1

>  <Name>  (91) 
nan

>  <Pocket>  (91) 
nan

>  <ATP_Site>  (91) 
nan

>  <Peripheral>  (91) 
nan

>  <Num_H_Atoms_ProtBoundConf>  (91) 
nan

>  <Num_Resolved_Atoms>  (91) 
nan

>  <Num_Not_Resolved_Atoms>  (91) 
nan

$$$$
CHEMBL4786429
     RDKit          3D

  0  0  0  0  0  0  0  0  0  0999 V3000
M  V30 BEGIN CTAB
M  V30 COUNTS 63 65 0 0 0
M  V30 BEGIN ATOM
M  V30 1 C -1.244885 1.651202 5.900899 0
M  V30 2 N -0.105396 1.987683 6.712075 0
M  V30 3 C 0.657750 0.854627 7.129060 0
M  V30 4 C 0.663392 3.083501 6.180839 0
M  V30 5 C 1.363121 2.762438 4.925841 0
M  V30 6 C 1.194366 3.364078 3.771782 0
M  V30 7 C 1.966089 2.929272 2.612323 0
M  V30 8 O 2.771432 1.983442 2.787056 0
M  V30 9 N 1.846487 3.517356 1.324472 0
M  V30 10 C 2.757437 2.835200 0.432074 0
M  V30 11 C 4.044152 3.361677 0.310356 0
M  V30 12 C 4.977226 2.770422 -0.517391 0
M  V30 13 C 4.626005 1.643772 -1.231062 0
M  V30 14 C 3.342843 1.117996 -1.110400 0
M  V30 15 C 3.030717 -0.076057 -1.891448 0
M  V30 16 O 3.904661 -0.562840 -2.653625 0
M  V30 17 N 1.777884 -0.725889 -1.836304 0
M  V30 18 C 1.449847 -1.897609 -2.593746 0
M  V30 19 N 1.559303 -3.146367 -2.379499 0
M  V30 20 C 1.128827 -3.954728 -3.355416 0
M  V30 21 C 0.588708 -3.519807 -4.546319 0
M  V30 22 S 0.029343 -4.503138 -5.822188 0
M  V30 23 C -1.683030 -5.017341 -5.791956 0
M  V30 24 C -2.571769 -3.840513 -5.957348 0
M  V30 25 N -3.020199 -3.340856 -7.142176 0
M  V30 26 C -3.784358 -2.285838 -6.764699 0
M  V30 27 C -3.779810 -2.174608 -5.380622 0
M  V30 28 C -4.505496 -1.137219 -4.586880 0
M  V30 29 C -5.907607 -1.619435 -4.238455 0
M  V30 30 C -3.744146 -1.001037 -3.269895 0
M  V30 31 C -4.620964 0.168354 -5.306018 0
M  V30 32 O -3.019393 -3.154315 -4.934399 0
M  V30 33 S 0.725662 -1.675804 -4.198812 0
M  V30 34 C 2.410512 1.706343 -0.285352 0
M  V30 35 H -1.048690 0.747252 5.261564 0
M  V30 36 H -2.069423 1.362809 6.591626 0
M  V30 37 H -1.604039 2.467338 5.273202 0
M  V30 38 H 0.050685 0.293439 7.886094 0
M  V30 39 H 0.778505 0.183601 6.233748 0
M  V30 40 H 1.665681 1.078167 7.469618 0
M  V30 41 H -0.051846 3.927343 6.067884 0
M  V30 42 H 1.370239 3.397168 6.998012 0
M  V30 43 H 2.048360 1.943933 5.100371 0
M  V30 44 H 0.462803 4.148219 3.848374 0
M  V30 45 H 1.167571 4.310227 1.189028 0
M  V30 46 H 4.322342 4.256913 0.877686 0
M  V30 47 H 5.990565 3.192646 -0.607484 0
M  V30 48 H 5.406634 1.216465 -1.872662 0
M  V30 49 H 1.026404 -0.378907 -1.235628 0
M  V30 50 H 1.265620 -5.012082 -3.075277 0
M  V30 51 H -1.817215 -5.754744 -6.636592 0
M  V30 52 H -1.954129 -5.580486 -4.857072 0
M  V30 53 H -4.320894 -1.626116 -7.450269 0
M  V30 54 H -6.205975 -1.137238 -3.288156 0
M  V30 55 H -6.642844 -1.302266 -5.006458 0
M  V30 56 H -5.938542 -2.715135 -4.186510 0
M  V30 57 H -4.392984 -0.526096 -2.483887 0
M  V30 58 H -2.898316 -0.323210 -3.410972 0
M  V30 59 H -3.368285 -1.993919 -2.931482 0
M  V30 60 H -4.134730 0.182256 -6.302153 0
M  V30 61 H -4.157113 0.987755 -4.696799 0
M  V30 62 H -5.695386 0.449807 -5.492336 0
M  V30 63 H 1.418502 1.316442 -0.179205 0
M  V30 END ATOM
M  V30 BEGIN BOND
M  V30 1 1 1 2
M  V30 2 1 2 3
M  V30 3 1 2 4
M  V30 4 1 4 5
M  V30 5 2 5 6
M  V30 6 1 6 7
M  V30 7 2 7 8
M  V30 8 1 7 9
M  V30 9 1 9 10
M  V30 10 2 10 11
M  V30 11 1 11 12
M  V30 12 2 12 13
M  V30 13 1 13 14
M  V30 14 1 14 15
M  V30 15 2 15 16
M  V30 16 1 15 17
M  V30 17 1 17 18
M  V30 18 2 18 19
M  V30 19 1 19 20
M  V30 20 2 20 21
M  V30 21 1 21 22
M  V30 22 1 22 23
M  V30 23 1 23 24
M  V30 24 2 24 25
M  V30 25 1 25 26
M  V30 26 2 26 27
M  V30 27 1 27 28
M  V30 28 1 28 29
M  V30 29 1 28 30
M  V30 30 1 28 31
M  V30 31 1 27 32
M  V30 32 1 21 33
M  V30 33 2 14 34
M  V30 34 1 34 10
M  V30 35 1 33 18
M  V30 36 1 32 24
M  V30 37 1 1 35
M  V30 38 1 1 36
M  V30 39 1 1 37
M  V30 40 1 3 38
M  V30 41 1 3 39
M  V30 42 1 3 40
M  V30 43 1 4 41
M  V30 44 1 4 42
M  V30 45 1 5 43
M  V30 46 1 6 44
M  V30 47 1 9 45
M  V30 48 1 11 46
M  V30 49 1 12 47
M  V30 50 1 13 48
M  V30 51 1 17 49
M  V30 52 1 20 50
M  V30 53 1 23 51
M  V30 54 1 23 52
M  V30 55 1 26 53
M  V30 56 1 29 54
M  V30 57 1 29 55
M  V30 58 1 29 56
M  V30 59 1 30 57
M  V30 60 1 30 58
M  V30 61 1 30 59
M  V30 62 1 31 60
M  V30 63 1 31 61
M  V30 64 1 31 62
M  V30 65 1 34 63
M  V30 END BOND
M  V30 END CTAB
M  END
>  <Dataset>  (92) 
ChEMBL_Kinases

>  <Ligand_Instance>  (92) 
nan

>  <PDB_ID>  (92) 
nan

>  <Standardized_SMILES>  (92) 
CN(C)C/C=C/C(=O)Nc1cccc(C(=O)Nc2ncc(SCc3ncc(C(C)(C)C)o3)s2)c1

>  <Name>  (92) 
nan

>  <Pocket>  (92) 
nan

>  <ATP_Site>  (92) 
nan

>  <Peripheral>  (92) 
nan

>  <Num_H_Atoms_ProtBoundConf>  (92) 
nan

>  <Num_Resolved_Atoms>  (92) 
nan

>  <Num_Not_Resolved_Atoms>  (92) 
nan

$$$$
CHEMBL4169129
     RDKit          3D

  0  0  0  0  0  0  0  0  0  0999 V3000
M  V30 BEGIN CTAB
M  V30 COUNTS 66 69 0 0 0
M  V30 BEGIN ATOM
M  V30 1 C 3.480870 -0.073828 5.866871 0
M  V30 2 C 2.600285 0.897924 5.069400 0
M  V30 3 C 2.482085 0.452696 3.655695 0 CFG=2
M  V30 4 C 3.857953 0.402445 3.029538 0
M  V30 5 O 4.939619 0.688629 3.607863 0
M  V30 6 N 3.963099 -0.006802 1.649569 0
M  V30 7 C 5.145810 -0.674525 1.111511 0
M  V30 8 C 2.857794 0.262509 0.785625 0
M  V30 9 C 2.851623 -0.087471 -0.526428 0
M  V30 10 N 1.732840 0.228535 -1.207188 0
M  V30 11 C 0.666338 0.846911 -0.678922 0
M  V30 12 N -0.333352 1.018972 -1.668949 0
M  V30 13 C -1.402689 0.116685 -1.770210 0
M  V30 14 C -1.573769 -0.843582 -0.801696 0
M  V30 15 C -2.597914 -1.752248 -0.852292 0
M  V30 16 C -3.540769 -1.766224 -1.892995 0
M  V30 17 S -4.781409 -2.987277 -1.781667 0
M  V30 18 O -5.101766 -3.213606 -0.345176 0
M  V30 19 O -5.981462 -2.589920 -2.598992 0
M  V30 20 N -4.125923 -4.467898 -2.438402 0
M  V30 21 C -3.794072 -4.232570 -3.826384 0
M  V30 22 C -3.213167 -5.523933 -4.420353 0
M  V30 23 C -1.958076 -5.954260 -3.672648 0
M  V30 24 O -1.503792 -7.136116 -4.290756 0
M  V30 25 C -3.358246 -0.799159 -2.858401 0
M  V30 26 C -2.328259 0.096050 -2.784809 0
M  V30 27 N 0.683999 1.188468 0.621118 0
M  V30 28 C 1.779888 0.906536 1.392543 0
M  V30 29 N 1.722775 1.296999 2.774549 0
M  V30 30 C 0.979892 2.400243 3.265728 0
M  V30 31 C -0.180996 1.906965 4.081410 0
M  V30 32 C -1.439689 2.343451 3.375403 0
M  V30 33 C -1.032654 3.246222 2.246628 0
M  V30 34 C 0.473295 3.394383 2.285689 0
M  V30 35 H 3.060726 -0.285241 6.870263 0
M  V30 36 H 3.411929 -1.051010 5.311927 0
M  V30 37 H 4.518684 0.251124 5.890314 0
M  V30 38 H 1.694933 0.984040 5.653788 0
M  V30 39 H 3.175554 1.869913 5.084110 0
M  V30 40 H 2.137758 -0.603450 3.655366 0
M  V30 41 H 5.787416 -0.932644 1.989749 0
M  V30 42 H 4.909246 -1.634895 0.611828 0
M  V30 43 H 5.715945 0.005718 0.439095 0
M  V30 44 H 3.719417 -0.584220 -0.935040 0
M  V30 45 H -0.310085 1.808303 -2.345596 0
M  V30 46 H -0.853183 -0.855979 0.023432 0
M  V30 47 H -2.645991 -2.473279 -0.034696 0
M  V30 48 H -3.236458 -4.626964 -1.889985 0
M  V30 49 H -3.083750 -3.419990 -3.998386 0
M  V30 50 H -4.767930 -4.087167 -4.377850 0
M  V30 51 H -3.962914 -6.340266 -4.400683 0
M  V30 52 H -2.921495 -5.375402 -5.487139 0
M  V30 53 H -1.196809 -5.159844 -3.751253 0
M  V30 54 H -2.162985 -6.163032 -2.599865 0
M  V30 55 H -0.803861 -6.887670 -4.940308 0
M  V30 56 H -4.100248 -0.839816 -3.640554 0
M  V30 57 H -2.247514 0.827549 -3.580672 0
M  V30 58 H 1.623038 3.011970 3.984543 0
M  V30 59 H -0.190906 2.323696 5.091287 0
M  V30 60 H -0.150903 0.786680 4.175641 0
M  V30 61 H -2.142714 2.824268 4.091326 0
M  V30 62 H -2.005096 1.443562 3.002597 0
M  V30 63 H -1.398417 2.932130 1.255176 0
M  V30 64 H -1.570183 4.224573 2.429941 0
M  V30 65 H 0.953504 3.402702 1.295549 0
M  V30 66 H 0.629911 4.465134 2.640460 0
M  V30 END ATOM
M  V30 BEGIN BOND
M  V30 1 1 1 2
M  V30 2 1 2 3
M  V30 3 1 3 4
M  V30 4 2 4 5
M  V30 5 1 4 6
M  V30 6 1 6 7
M  V30 7 1 6 8
M  V30 8 2 8 9
M  V30 9 1 9 10
M  V30 10 2 10 11
M  V30 11 1 11 12
M  V30 12 1 12 13
M  V30 13 2 13 14
M  V30 14 1 14 15
M  V30 15 2 15 16
M  V30 16 1 16 17
M  V30 17 2 17 18
M  V30 18 2 17 19
M  V30 19 1 17 20
M  V30 20 1 20 21
M  V30 21 1 21 22
M  V30 22 1 22 23
M  V30 23 1 23 24
M  V30 24 1 16 25
M  V30 25 2 25 26
M  V30 26 1 11 27
M  V30 27 2 27 28
M  V30 28 1 28 29
M  V30 29 1 29 30
M  V30 30 1 30 31
M  V30 31 1 31 32
M  V30 32 1 32 33
M  V30 33 1 33 34
M  V30 34 1 29 3
M  V30 35 1 34 30
M  V30 36 1 28 8
M  V30 37 1 26 13
M  V30 38 1 1 35
M  V30 39 1 1 36
M  V30 40 1 1 37
M  V30 41 1 2 38
M  V30 42 1 2 39
M  V30 43 1 3 40 CFG=1
M  V30 44 1 7 41
M  V30 45 1 7 42
M  V30 46 1 7 43
M  V30 47 1 9 44
M  V30 48 1 12 45
M  V30 49 1 14 46
M  V30 50 1 15 47
M  V30 51 1 20 48
M  V30 52 1 21 49
M  V30 53 1 21 50
M  V30 54 1 22 51
M  V30 55 1 22 52
M  V30 56 1 23 53
M  V30 57 1 23 54
M  V30 58 1 24 55
M  V30 59 1 25 56
M  V30 60 1 26 57
M  V30 61 1 30 58
M  V30 62 1 31 59
M  V30 63 1 31 60
M  V30 64 1 32 61
M  V30 65 1 32 62
M  V30 66 1 33 63
M  V30 67 1 33 64
M  V30 68 1 34 65
M  V30 69 1 34 66
M  V30 END BOND
M  V30 END CTAB
M  END
>  <Dataset>  (93) 
ChEMBL_Kinases

>  <Ligand_Instance>  (93) 
nan

>  <PDB_ID>  (93) 
nan

>  <Standardized_SMILES>  (93) 
CC[C@@H]1C(=O)N(C)c2cnc(Nc3ccc(S(=O)(=O)NCCCO)cc3)nc2N1C1CCCC1

>  <Name>  (93) 
nan

>  <Pocket>  (93) 
nan

>  <ATP_Site>  (93) 
nan

>  <Peripheral>  (93) 
nan

>  <Num_H_Atoms_ProtBoundConf>  (93) 
nan

>  <Num_Resolved_Atoms>  (93) 
nan

>  <Num_Not_Resolved_Atoms>  (93) 
nan

$$$$
CHEMBL4786449
     RDKit          3D

  0  0  0  0  0  0  0  0  0  0999 V3000
M  V30 BEGIN CTAB
M  V30 COUNTS 50 54 0 0 0
M  V30 BEGIN ATOM
M  V30 1 C 4.499778 -6.201692 -0.156236 0
M  V30 2 N 3.818014 -6.279746 -1.434938 0
M  V30 3 C 4.381172 -5.311659 -2.358810 0
M  V30 4 C 3.564147 -4.086955 -2.136471 0
M  V30 5 C 3.871056 -2.788771 -2.470690 0
M  V30 6 C 2.937479 -1.813211 -2.156187 0
M  V30 7 C 1.757859 -2.132537 -1.537511 0
M  V30 8 C 0.722241 -1.156915 -1.173430 0
M  V30 9 O -0.372137 -1.469854 -0.597138 0
M  V30 10 N 0.824575 0.239854 -1.422231 0
M  V30 11 C -0.379545 0.870874 -0.927163 0
M  V30 12 C -0.410981 1.320811 0.395233 0
M  V30 13 C -1.587986 1.923801 0.837556 0
M  V30 14 C -1.694537 2.391060 2.124307 0
M  V30 15 C -2.864530 2.994400 2.575954 0
M  V30 16 C -3.055451 3.514971 3.924940 0
M  V30 17 C -3.602537 4.699228 4.376270 0
M  V30 18 N -3.562871 4.737337 5.720439 0
M  V30 19 C -2.984851 3.563250 6.100241 0
M  V30 20 N -2.677396 2.822973 5.016449 0
M  V30 21 C -2.050811 1.520450 5.097057 0
M  V30 22 C -3.925929 3.106859 1.671877 0
M  V30 23 C -3.795280 2.625339 0.370279 0
M  V30 24 C -2.643200 2.037410 -0.055794 0
M  V30 25 C -2.592429 1.583787 -1.366671 0
M  V30 26 N -1.428257 0.998814 -1.769604 0
M  V30 27 C 1.480389 -3.446100 -1.215406 0
M  V30 28 C 2.386082 -4.442921 -1.513327 0
M  V30 29 C 2.415293 -5.932093 -1.315167 0
M  V30 30 H 5.561983 -5.952327 -0.356698 0
M  V30 31 H 4.038926 -5.414402 0.485810 0
M  V30 32 H 4.478294 -7.148851 0.401692 0
M  V30 33 H 4.246797 -5.692749 -3.384309 0
M  V30 34 H 5.434784 -5.135908 -2.066891 0
M  V30 35 H 4.790713 -2.495612 -2.959326 0
M  V30 36 H 3.116701 -0.772334 -2.391673 0
M  V30 37 H 1.686880 0.600597 -1.892580 0
M  V30 38 H 0.434491 1.213977 1.063236 0
M  V30 39 H -0.894747 2.314027 2.828839 0
M  V30 40 H -3.969964 5.399760 3.626310 0
M  V30 41 H -2.854366 3.386561 7.167279 0
M  V30 42 H -2.341320 0.851105 4.282154 0
M  V30 43 H -2.368384 1.002982 6.049544 0
M  V30 44 H -0.936689 1.611962 5.229852 0
M  V30 45 H -4.841240 3.564233 1.980993 0
M  V30 46 H -4.643698 2.740344 -0.276518 0
M  V30 47 H -3.447133 1.694617 -2.033425 0
M  V30 48 H 0.547105 -3.723522 -0.722392 0
M  V30 49 H 1.973600 -6.170371 -0.338590 0
M  V30 50 H 1.859433 -6.404292 -2.127873 0
M  V30 END ATOM
M  V30 BEGIN BOND
M  V30 1 1 1 2
M  V30 2 1 2 3
M  V30 3 1 3 4
M  V30 4 2 4 5
M  V30 5 1 5 6
M  V30 6 2 6 7
M  V30 7 1 7 8
M  V30 8 2 8 9
M  V30 9 1 8 10
M  V30 10 1 10 11
M  V30 11 2 11 12
M  V30 12 1 12 13
M  V30 13 2 13 14
M  V30 14 1 14 15
M  V30 15 1 15 16
M  V30 16 2 16 17
M  V30 17 1 17 18
M  V30 18 2 18 19
M  V30 19 1 19 20
M  V30 20 1 20 21
M  V30 21 2 15 22
M  V30 22 1 22 23
M  V30 23 2 23 24
M  V30 24 1 24 25
M  V30 25 2 25 26
M  V30 26 1 7 27
M  V30 27 2 27 28
M  V30 28 1 28 29
M  V30 29 1 29 2
M  V30 30 1 28 4
M  V30 31 1 26 11
M  V30 32 1 24 13
M  V30 33 1 20 16
M  V30 34 1 1 30
M  V30 35 1 1 31
M  V30 36 1 1 32
M  V30 37 1 3 33
M  V30 38 1 3 34
M  V30 39 1 5 35
M  V30 40 1 6 36
M  V30 41 1 10 37
M  V30 42 1 12 38
M  V30 43 1 14 39
M  V30 44 1 17 40
M  V30 45 1 19 41
M  V30 46 1 21 42
M  V30 47 1 21 43
M  V30 48 1 21 44
M  V30 49 1 22 45
M  V30 50 1 23 46
M  V30 51 1 25 47
M  V30 52 1 27 48
M  V30 53 1 29 49
M  V30 54 1 29 50
M  V30 END BOND
M  V30 END CTAB
M  END
>  <Dataset>  (94) 
ChEMBL_Kinases

>  <Ligand_Instance>  (94) 
nan

>  <PDB_ID>  (94) 
nan

>  <Standardized_SMILES>  (94) 
CN1Cc2ccc(C(=O)Nc3cc4cc(-c5cncn5C)ccc4cn3)cc2C1

>  <Name>  (94) 
nan

>  <Pocket>  (94) 
nan

>  <ATP_Site>  (94) 
nan

>  <Peripheral>  (94) 
nan

>  <Num_H_Atoms_ProtBoundConf>  (94) 
nan

>  <Num_Resolved_Atoms>  (94) 
nan

>  <Num_Not_Resolved_Atoms>  (94) 
nan

$$$$
CHEMBL4793215
     RDKit          3D

  0  0  0  0  0  0  0  0  0  0999 V3000
M  V30 BEGIN CTAB
M  V30 COUNTS 64 69 0 0 0
M  V30 BEGIN ATOM
M  V30 1 C 4.600637 -2.026133 2.218998 0
M  V30 2 N 4.336290 -0.616730 1.996293 0
M  V30 3 C 3.425652 -0.175238 3.035988 0
M  V30 4 C 3.801332 -0.444830 0.680301 0
M  V30 5 C 3.503811 0.990378 0.382310 0
M  V30 6 C 4.405979 1.866318 -0.164528 0
M  V30 7 N 4.066431 3.152524 -0.406433 0
M  V30 8 C 2.846073 3.662355 -0.136228 0
M  V30 9 C 1.888944 2.839210 0.414370 0
M  V30 10 C 0.517753 3.217641 0.782774 0
M  V30 11 C 0.245327 4.509446 1.232323 0
M  V30 12 C -1.060369 4.850680 1.577758 0
M  V30 13 C -2.055373 3.902225 1.466964 0
M  V30 14 N -3.376586 3.913683 1.716173 0
M  V30 15 N -3.882691 2.734826 1.445329 0
M  V30 16 C -2.958013 1.866949 1.004410 0
M  V30 17 C -3.233431 0.500944 0.632306 0
M  V30 18 C -2.510887 -0.555290 0.154377 0
M  V30 19 C -3.269751 -1.683823 -0.058788 0
M  V30 20 C -2.976707 -2.949597 -0.522600 0
M  V30 21 N -1.612585 -3.245075 -0.890349 0
M  V30 22 C -0.417716 -3.236685 -0.083723 0
M  V30 23 C 0.401090 -4.477966 -0.144876 0
M  V30 24 C 0.348300 -5.264302 -1.407882 0
M  V30 25 C -0.853770 -5.021995 -2.261269 0
M  V30 26 C -1.328789 -3.607318 -2.273097 0
M  V30 27 C -3.982801 -3.884830 -0.626968 0
M  V30 28 C -5.280438 -3.520214 -0.257355 0
M  V30 29 C -5.537200 -2.245864 0.201424 0
M  V30 30 C -4.538589 -1.296243 0.311928 0
M  V30 31 N -4.472890 -0.016143 0.708229 0
M  V30 32 C -1.808802 2.614288 1.022883 0
M  V30 33 C -0.523550 2.322727 0.696872 0
M  V30 34 C 2.234926 1.510553 0.665850 0
M  V30 35 H 5.255881 -2.096658 3.133991 0
M  V30 36 H 5.178253 -2.483029 1.387893 0
M  V30 37 H 3.666018 -2.609686 2.445677 0
M  V30 38 H 2.466692 -0.740069 2.910320 0
M  V30 39 H 3.841628 -0.388064 4.035682 0
M  V30 40 H 3.228961 0.919241 2.990698 0
M  V30 41 H 4.527665 -0.797088 -0.060350 0
M  V30 42 H 2.856449 -1.055822 0.606446 0
M  V30 43 H 5.402858 1.487307 -0.395410 0
M  V30 44 H 2.548079 4.674022 -0.316274 0
M  V30 45 H 1.009122 5.250331 1.321369 0
M  V30 46 H -1.351172 5.845950 1.938799 0
M  V30 47 H -3.950981 4.709235 2.069315 0
M  V30 48 H -1.455525 -0.538891 -0.045482 0
M  V30 49 H 0.175912 -2.331927 -0.408816 0
M  V30 50 H -0.725301 -3.014928 0.969516 0
M  V30 51 H 0.164634 -5.102714 0.743913 0
M  V30 52 H 1.474009 -4.170910 0.014835 0
M  V30 53 H 0.361396 -6.342942 -1.143326 0
M  V30 54 H 1.243851 -5.094329 -2.050746 0
M  V30 55 H -1.706537 -5.659799 -1.958148 0
M  V30 56 H -0.620593 -5.314091 -3.322816 0
M  V30 57 H -0.560910 -2.886592 -2.626987 0
M  V30 58 H -2.243941 -3.545078 -2.860674 0
M  V30 59 H -3.764495 -4.885359 -0.990447 0
M  V30 60 H -6.096900 -4.224206 -0.324170 0
M  V30 61 H -6.539577 -1.975383 0.483120 0
M  V30 62 H -5.376300 0.433058 1.027848 0
M  V30 63 H -0.276973 1.351088 0.350001 0
M  V30 64 H 1.536654 0.815483 1.094178 0
M  V30 END ATOM
M  V30 BEGIN BOND
M  V30 1 1 1 2
M  V30 2 1 2 3
M  V30 3 1 2 4
M  V30 4 1 4 5
M  V30 5 2 5 6
M  V30 6 1 6 7
M  V30 7 2 7 8
M  V30 8 1 8 9
M  V30 9 1 9 10
M  V30 10 2 10 11
M  V30 11 1 11 12
M  V30 12 2 12 13
M  V30 13 1 13 14
M  V30 14 1 14 15
M  V30 15 2 15 16
M  V30 16 1 16 17
M  V30 17 2 17 18
M  V30 18 1 18 19
M  V30 19 2 19 20
M  V30 20 1 20 21
M  V30 21 1 21 22
M  V30 22 1 22 23
M  V30 23 1 23 24
M  V30 24 1 24 25
M  V30 25 1 25 26
M  V30 26 1 20 27
M  V30 27 2 27 28
M  V30 28 1 28 29
M  V30 29 2 29 30
M  V30 30 1 30 31
M  V30 31 1 16 32
M  V30 32 2 32 33
M  V30 33 2 9 34
M  V30 34 1 34 5
M  V30 35 1 33 10
M  V30 36 1 32 13
M  V30 37 1 31 17
M  V30 38 1 30 19
M  V30 39 1 26 21
M  V30 40 1 1 35
M  V30 41 1 1 36
M  V30 42 1 1 37
M  V30 43 1 3 38
M  V30 44 1 3 39
M  V30 45 1 3 40
M  V30 46 1 4 41
M  V30 47 1 4 42
M  V30 48 1 6 43
M  V30 49 1 8 44
M  V30 50 1 11 45
M  V30 51 1 12 46
M  V30 52 1 14 47
M  V30 53 1 18 48
M  V30 54 1 22 49
M  V30 55 1 22 50
M  V30 56 1 23 51
M  V30 57 1 23 52
M  V30 58 1 24 53
M  V30 59 1 24 54
M  V30 60 1 25 55
M  V30 61 1 25 56
M  V30 62 1 26 57
M  V30 63 1 26 58
M  V30 64 1 27 59
M  V30 65 1 28 60
M  V30 66 1 29 61
M  V30 67 1 31 62
M  V30 68 1 33 63
M  V30 69 1 34 64
M  V30 END BOND
M  V30 END CTAB
M  END
>  <Dataset>  (95) 
ChEMBL_Kinases

>  <Ligand_Instance>  (95) 
nan

>  <PDB_ID>  (95) 
nan

>  <Standardized_SMILES>  (95) 
CN(C)Cc1cncc(-c2ccc3[nH]nc(-c4cc5c(N6CCCCC6)cccc5[nH]4)c3c2)c1

>  <Name>  (95) 
nan

>  <Pocket>  (95) 
nan

>  <ATP_Site>  (95) 
nan

>  <Peripheral>  (95) 
nan

>  <Num_H_Atoms_ProtBoundConf>  (95) 
nan

>  <Num_Resolved_Atoms>  (95) 
nan

>  <Num_Not_Resolved_Atoms>  (95) 
nan

$$$$
CHEMBL4130297
     RDKit          3D

  0  0  0  0  0  0  0  0  0  0999 V3000
M  V30 BEGIN CTAB
M  V30 COUNTS 60 64 0 0 0
M  V30 BEGIN ATOM
M  V30 1 C 5.364610 1.488128 2.864803 0
M  V30 2 N 6.693866 1.568007 2.306438 0
M  V30 3 C 7.551822 0.681331 3.064505 0
M  V30 4 C 6.770063 1.170995 0.915090 0
M  V30 5 C 6.090033 2.114614 -0.026429 0
M  V30 6 N 4.680570 2.297189 0.187890 0
M  V30 7 C 3.648195 1.347628 -0.000382 0
M  V30 8 C 3.844218 0.087744 -0.517128 0
M  V30 9 N 2.878857 -0.830924 -0.697243 0
M  V30 10 C 1.603848 -0.513347 -0.350044 0
M  V30 11 C 1.368037 0.737094 0.169664 0
M  V30 12 C 0.040325 1.178676 0.571189 0
M  V30 13 C -0.157641 2.440674 1.087736 0
M  V30 14 C -1.414501 2.904725 1.480162 0
M  V30 15 C -2.522831 2.076221 1.352141 0
M  V30 16 N -3.822534 2.260008 1.642824 0
M  V30 17 C -4.543995 1.141163 1.336675 0
M  V30 18 C -3.620169 0.240244 0.835511 0
M  V30 19 C -3.927123 -1.111729 0.370463 0
M  V30 20 C -5.038179 -1.248431 -0.465777 0
M  V30 21 C -5.393297 -2.504853 -0.949675 0
M  V30 22 C -4.667299 -3.636658 -0.621605 0
M  V30 23 C -5.033394 -4.937249 -1.123303 0
M  V30 24 C -6.300492 -5.397495 -1.409529 0
M  V30 25 C -6.558019 -6.651497 -1.884894 0
M  V30 26 C -5.519568 -7.551813 -2.109556 0
M  V30 27 C -4.232937 -7.111267 -1.828484 0
M  V30 28 C -3.991633 -5.835614 -1.346993 0
M  V30 29 C -3.570937 -3.494171 0.204815 0
M  V30 30 C -3.204415 -2.240700 0.696696 0
M  V30 31 C -2.363246 0.810596 0.840853 0
M  V30 32 C -1.098111 0.409225 0.471387 0
M  V30 33 N 2.381108 1.603927 0.321708 0
M  V30 34 H 5.471617 1.318636 3.978195 0
M  V30 35 H 4.794429 2.422958 2.717157 0
M  V30 36 H 4.873299 0.575648 2.497980 0
M  V30 37 H 8.311124 0.214748 2.404294 0
M  V30 38 H 8.020391 1.214545 3.934049 0
M  V30 39 H 6.921695 -0.124437 3.492357 0
M  V30 40 H 6.481536 0.105280 0.784975 0
M  V30 41 H 7.867007 1.210520 0.636689 0
M  V30 42 H 6.603011 3.106828 0.113044 0
M  V30 43 H 6.299990 1.859865 -1.094998 0
M  V30 44 H 4.349537 3.251667 0.524857 0
M  V30 45 H 4.823119 -0.240020 -0.826553 0
M  V30 46 H 0.814016 -1.232294 -0.485661 0
M  V30 47 H 0.643325 3.133080 1.214545 0
M  V30 48 H -1.545868 3.896979 1.882842 0
M  V30 49 H -4.214082 3.159116 2.052767 0
M  V30 50 H -5.617132 1.016005 1.470536 0
M  V30 51 H -5.684628 -0.423626 -0.790807 0
M  V30 52 H -6.251218 -2.676549 -1.605977 0
M  V30 53 H -7.112641 -4.684720 -1.231632 0
M  V30 54 H -7.545934 -7.003216 -2.105999 0
M  V30 55 H -5.619774 -8.556478 -2.480674 0
M  V30 56 H -3.375999 -7.779393 -1.986607 0
M  V30 57 H -2.964666 -5.562881 -1.151699 0
M  V30 58 H -2.940033 -4.315237 0.519247 0
M  V30 59 H -2.357596 -2.130964 1.337010 0
M  V30 60 H -1.023082 -0.593459 0.075424 0
M  V30 END ATOM
M  V30 BEGIN BOND
M  V30 1 1 1 2
M  V30 2 1 2 3
M  V30 3 1 2 4
M  V30 4 1 4 5
M  V30 5 1 5 6
M  V30 6 1 6 7
M  V30 7 2 7 8
M  V30 8 1 8 9
M  V30 9 2 9 10
M  V30 10 1 10 11
M  V30 11 1 11 12
M  V30 12 2 12 13
M  V30 13 1 13 14
M  V30 14 2 14 15
M  V30 15 1 15 16
M  V30 16 1 16 17
M  V30 17 2 17 18
M  V30 18 1 18 19
M  V30 19 2 19 20
M  V30 20 1 20 21
M  V30 21 2 21 22
M  V30 22 1 22 23
M  V30 23 2 23 24
M  V30 24 1 24 25
M  V30 25 2 25 26
M  V30 26 1 26 27
M  V30 27 2 27 28
M  V30 28 1 22 29
M  V30 29 2 29 30
M  V30 30 1 18 31
M  V30 31 2 31 32
M  V30 32 2 11 33
M  V30 33 1 33 7
M  V30 34 1 32 12
M  V30 35 1 31 15
M  V30 36 1 30 19
M  V30 37 1 28 23
M  V30 38 1 1 34
M  V30 39 1 1 35
M  V30 40 1 1 36
M  V30 41 1 3 37
M  V30 42 1 3 38
M  V30 43 1 3 39
M  V30 44 1 4 40
M  V30 45 1 4 41
M  V30 46 1 5 42
M  V30 47 1 5 43
M  V30 48 1 6 44
M  V30 49 1 8 45
M  V30 50 1 10 46
M  V30 51 1 13 47
M  V30 52 1 14 48
M  V30 53 1 16 49
M  V30 54 1 17 50
M  V30 55 1 20 51
M  V30 56 1 21 52
M  V30 57 1 24 53
M  V30 58 1 25 54
M  V30 59 1 26 55
M  V30 60 1 27 56
M  V30 61 1 28 57
M  V30 62 1 29 58
M  V30 63 1 30 59
M  V30 64 1 32 60
M  V30 END BOND
M  V30 END CTAB
M  END
>  <Dataset>  (96) 
ChEMBL_Kinases

>  <Ligand_Instance>  (96) 
nan

>  <PDB_ID>  (96) 
nan

>  <Standardized_SMILES>  (96) 
CN(C)CCNc1cncc(-c2ccc3[nH]cc(-c4ccc(-c5ccccc5)cc4)c3c2)n1

>  <Name>  (96) 
nan

>  <Pocket>  (96) 
nan

>  <ATP_Site>  (96) 
nan

>  <Peripheral>  (96) 
nan

>  <Num_H_Atoms_ProtBoundConf>  (96) 
nan

>  <Num_Resolved_Atoms>  (96) 
nan

>  <Num_Not_Resolved_Atoms>  (96) 
nan

$$$$
CHEMBL4790121
     RDKit          3D

  0  0  0  0  0  0  0  0  0  0999 V3000
M  V30 BEGIN CTAB
M  V30 COUNTS 54 58 0 0 0
M  V30 BEGIN ATOM
M  V30 1 O 5.164186 2.763004 1.485231 0
M  V30 2 C 4.027609 2.205618 1.498538 0
M  V30 3 N 4.152040 1.144353 2.416683 0
M  V30 4 C 5.426719 0.982795 3.045586 0
M  V30 5 C 6.350671 0.156044 2.399980 0
M  V30 6 C 7.574392 0.038241 3.061801 0
M  V30 7 C 7.878799 0.667239 4.248363 0
M  V30 8 N 6.932962 1.451249 4.812486 0
M  V30 9 C 5.729989 1.615021 4.236324 0
M  V30 10 C 2.986355 2.737575 0.656565 0
M  V30 11 N 3.303114 3.817059 -0.092358 0
M  V30 12 N 2.246862 4.181618 -0.805067 0
M  V30 13 C 1.184642 3.392006 -0.585548 0
M  V30 14 C -0.117183 3.293914 -1.021201 0
M  V30 15 C -0.900427 2.283186 -0.513044 0
M  V30 16 C -0.404176 1.368992 0.423198 0
M  V30 17 C -1.239980 0.296894 0.958227 0
M  V30 18 C -0.992911 -0.126406 2.247730 0
M  V30 19 N -1.747540 -1.112889 2.761540 0
M  V30 20 C -2.728130 -1.675035 2.023133 0
M  V30 21 C -2.986904 -1.252623 0.713464 0
M  V30 22 N -4.049547 -1.897950 -0.021511 0
M  V30 23 C -3.515985 -2.993327 -0.718268 0
M  V30 24 O -2.260216 -3.137072 -0.530881 0
M  V30 25 N -4.251583 -3.881827 -1.558325 0
M  V30 26 C -5.673016 -3.898499 -1.901896 0
M  V30 27 C -6.132883 -5.338327 -1.637479 0
M  V30 28 O -5.213014 -6.027829 -0.831420 0
M  V30 29 C -4.064572 -6.258077 -1.596127 0
M  V30 30 C -3.530570 -4.964675 -2.206675 0
M  V30 31 C -2.233154 -0.241428 0.149953 0
M  V30 32 C 0.891669 1.490198 0.837864 0
M  V30 33 C 1.675976 2.497093 0.333286 0
M  V30 34 H 3.271252 0.601746 2.518750 0
M  V30 35 H 6.146559 -0.353112 1.468608 0
M  V30 36 H 8.343760 -0.587724 2.620832 0
M  V30 37 H 8.855352 0.522082 4.697217 0
M  V30 38 H 4.943195 2.235144 4.655911 0
M  V30 39 H 2.258012 4.994447 -1.458959 0
M  V30 40 H -0.452876 4.023682 -1.744612 0
M  V30 41 H -1.922661 2.214395 -0.862101 0
M  V30 42 H -0.237567 0.272885 2.882553 0
M  V30 43 H -3.332245 -2.463951 2.432510 0
M  V30 44 H -5.090756 -1.710164 -0.125886 0
M  V30 45 H -6.269526 -3.176516 -1.328209 0
M  V30 46 H -5.745025 -3.746631 -2.995286 0
M  V30 47 H -7.096671 -5.336750 -1.070056 0
M  V30 48 H -6.213719 -5.923232 -2.576729 0
M  V30 49 H -4.345663 -6.997301 -2.364811 0
M  V30 50 H -3.266577 -6.715428 -0.980191 0
M  V30 51 H -2.454133 -4.855241 -2.061169 0
M  V30 52 H -3.816975 -4.971939 -3.285100 0
M  V30 53 H -2.425467 0.091554 -0.860217 0
M  V30 54 H 1.258494 0.782466 1.555491 0
M  V30 END ATOM
M  V30 BEGIN BOND
M  V30 1 2 1 2
M  V30 2 1 2 3
M  V30 3 1 3 4
M  V30 4 2 4 5
M  V30 5 1 5 6
M  V30 6 2 6 7
M  V30 7 1 7 8
M  V30 8 2 8 9
M  V30 9 1 2 10
M  V30 10 2 10 11
M  V30 11 1 11 12
M  V30 12 1 12 13
M  V30 13 2 13 14
M  V30 14 1 14 15
M  V30 15 2 15 16
M  V30 16 1 16 17
M  V30 17 2 17 18
M  V30 18 1 18 19
M  V30 19 2 19 20
M  V30 20 1 20 21
M  V30 21 1 21 22
M  V30 22 1 22 23
M  V30 23 2 23 24
M  V30 24 1 23 25
M  V30 25 1 25 26
M  V30 26 1 26 27
M  V30 27 1 27 28
M  V30 28 1 28 29
M  V30 29 1 29 30
M  V30 30 2 21 31
M  V30 31 1 16 32
M  V30 32 2 32 33
M  V30 33 1 9 4
M  V30 34 1 33 10
M  V30 35 1 33 13
M  V30 36 1 31 17
M  V30 37 1 30 25
M  V30 38 1 3 34
M  V30 39 1 5 35
M  V30 40 1 6 36
M  V30 41 1 7 37
M  V30 42 1 9 38
M  V30 43 1 12 39
M  V30 44 1 14 40
M  V30 45 1 15 41
M  V30 46 1 18 42
M  V30 47 1 20 43
M  V30 48 1 22 44
M  V30 49 1 26 45
M  V30 50 1 26 46
M  V30 51 1 27 47
M  V30 52 1 27 48
M  V30 53 1 29 49
M  V30 54 1 29 50
M  V30 55 1 30 51
M  V30 56 1 30 52
M  V30 57 1 31 53
M  V30 58 1 32 54
M  V30 END BOND
M  V30 END CTAB
M  END
>  <Dataset>  (97) 
ChEMBL_Kinases

>  <Ligand_Instance>  (97) 
nan

>  <PDB_ID>  (97) 
nan

>  <Standardized_SMILES>  (97) 
O=C(Nc1cccnc1)c1n[nH]c2ccc(-c3cncc(NC(=O)N4CCOCC4)c3)cc12

>  <Name>  (97) 
nan

>  <Pocket>  (97) 
nan

>  <ATP_Site>  (97) 
nan

>  <Peripheral>  (97) 
nan

>  <Num_H_Atoms_ProtBoundConf>  (97) 
nan

>  <Num_Resolved_Atoms>  (97) 
nan

>  <Num_Not_Resolved_Atoms>  (97) 
nan

$$$$
CHEMBL4793420
     RDKit          3D

  0  0  0  0  0  0  0  0  0  0999 V3000
M  V30 BEGIN CTAB
M  V30 COUNTS 73 78 0 0 0
M  V30 BEGIN ATOM
M  V30 1 C 5.173104 -8.667501 -0.408181 0
M  V30 2 C 5.079897 -7.165393 -0.568660 0
M  V30 3 C 6.086960 -6.527544 0.333375 0
M  V30 4 C 3.678850 -6.651018 -0.348047 0
M  V30 5 C 3.631857 -5.154599 -0.519461 0
M  V30 6 O 4.518704 -4.296882 -0.767896 0
M  V30 7 N 2.280745 -4.748606 -0.347423 0
M  V30 8 C 1.697002 -3.456305 -0.408689 0
M  V30 9 C 1.258304 -2.875501 -1.586451 0
M  V30 10 N 0.691331 -1.659405 -1.659574 0
M  V30 11 C 0.512432 -0.914356 -0.553859 0
M  V30 12 C 0.928513 -1.437274 0.651874 0
M  V30 13 C 0.821934 -0.824816 1.997339 0
M  V30 14 C 1.697554 -1.019584 3.036791 0
M  V30 15 C 1.445739 -0.396342 4.236409 0
M  V30 16 C 0.339360 0.394101 4.361252 0
M  V30 17 N -0.118025 1.083017 5.409701 0
M  V30 18 N -1.224419 1.681523 5.049425 0
M  V30 19 C -1.538358 1.419779 3.773481 0
M  V30 20 C -2.711127 1.926549 3.097741 0
M  V30 21 N -3.138984 1.774921 1.832430 0
M  V30 22 C -4.288052 2.457729 1.675233 0
M  V30 23 C -5.131208 2.633277 0.610567 0
M  V30 24 C -4.879347 2.079227 -0.712306 0
M  V30 25 C -5.703915 1.337578 -1.521129 0
M  V30 26 C -5.246409 0.955026 -2.762741 0
M  V30 27 F -6.108670 0.218520 -3.525514 0
M  V30 28 C -4.003142 1.276451 -3.239662 0
M  V30 29 C -3.134208 2.025875 -2.455891 0
M  V30 30 C -1.782495 2.424570 -2.923420 0
M  V30 31 N -0.777213 1.445147 -2.605971 0
M  V30 32 S 0.757565 1.995178 -3.183861 0
M  V30 33 C 1.157031 3.518842 -2.352151 0
M  V30 34 O 0.722706 2.273303 -4.649910 0
M  V30 35 O 1.822730 1.008106 -2.857079 0
M  V30 36 C -3.608962 2.408978 -1.195022 0
M  V30 37 C -6.284739 3.403015 0.732149 0
M  V30 38 N -6.574622 3.980905 1.902837 0
M  V30 39 C -5.749762 3.814387 2.954758 0
M  V30 40 C -4.600546 3.060587 2.874311 0
M  V30 41 N -3.625867 2.718177 3.708575 0
M  V30 42 C -0.535495 0.592144 3.329194 0
M  V30 43 C -0.315506 -0.014877 2.114877 0
M  V30 44 C 1.520377 -2.697400 0.752339 0
M  V30 45 H 6.175481 -8.931449 0.037966 0
M  V30 46 H 5.005436 -9.228224 -1.334398 0
M  V30 47 H 4.440947 -9.049028 0.340821 0
M  V30 48 H 5.402954 -6.930761 -1.617034 0
M  V30 49 H 7.000894 -6.192735 -0.195869 0
M  V30 50 H 5.589245 -5.710191 0.883407 0
M  V30 51 H 6.386057 -7.264774 1.106366 0
M  V30 52 H 2.988951 -7.177809 -1.014842 0
M  V30 53 H 3.403838 -6.878170 0.691082 0
M  V30 54 H 1.409209 -5.282087 -0.139205 0
M  V30 55 H 1.368029 -3.411616 -2.518247 0
M  V30 56 H 0.095931 0.061576 -0.351468 0
M  V30 57 H 2.545162 -1.662219 2.844426 0
M  V30 58 H 2.150796 -0.567264 5.034603 0
M  V30 59 H 0.298262 1.156607 6.353935 0
M  V30 60 H -6.664169 1.126626 -1.075130 0
M  V30 61 H -3.686053 0.951216 -4.229886 0
M  V30 62 H -1.558592 3.422301 -2.476946 0
M  V30 63 H -1.877047 2.597200 -4.021026 0
M  V30 64 H -1.048226 0.577590 -3.137299 0
M  V30 65 H 1.132294 4.370093 -3.033360 0
M  V30 66 H 2.173924 3.478066 -1.894359 0
M  V30 67 H 0.450283 3.688228 -1.517495 0
M  V30 68 H -2.877241 2.995390 -0.622805 0
M  V30 69 H -7.014345 3.603544 -0.038078 0
M  V30 70 H -5.983224 4.287795 3.920670 0
M  V30 71 H -3.643992 3.063092 4.696800 0
M  V30 72 H -1.037788 0.176687 1.334263 0
M  V30 73 H 1.872096 -3.174819 1.654474 0
M  V30 END ATOM
M  V30 BEGIN BOND
M  V30 1 1 1 2
M  V30 2 1 2 3
M  V30 3 1 2 4
M  V30 4 1 4 5
M  V30 5 2 5 6
M  V30 6 1 5 7
M  V30 7 1 7 8
M  V30 8 2 8 9
M  V30 9 1 9 10
M  V30 10 2 10 11
M  V30 11 1 11 12
M  V30 12 1 12 13
M  V30 13 2 13 14
M  V30 14 1 14 15
M  V30 15 2 15 16
M  V30 16 1 16 17
M  V30 17 1 17 18
M  V30 18 2 18 19
M  V30 19 1 19 20
M  V30 20 2 20 21
M  V30 21 1 21 22
M  V30 22 2 22 23
M  V30 23 1 23 24
M  V30 24 2 24 25
M  V30 25 1 25 26
M  V30 26 1 26 27
M  V30 27 2 26 28
M  V30 28 1 28 29
M  V30 29 1 29 30
M  V30 30 1 30 31
M  V30 31 1 31 32
M  V30 32 1 32 33
M  V30 33 2 32 34
M  V30 34 2 32 35
M  V30 35 2 29 36
M  V30 36 1 23 37
M  V30 37 2 37 38
M  V30 38 1 38 39
M  V30 39 2 39 40
M  V30 40 1 40 41
M  V30 41 1 19 42
M  V30 42 2 42 43
M  V30 43 2 12 44
M  V30 44 1 44 8
M  V30 45 1 43 13
M  V30 46 1 42 16
M  V30 47 1 41 20
M  V30 48 1 40 22
M  V30 49 1 36 24
M  V30 50 1 1 45
M  V30 51 1 1 46
M  V30 52 1 1 47
M  V30 53 1 2 48
M  V30 54 1 3 49
M  V30 55 1 3 50
M  V30 56 1 3 51
M  V30 57 1 4 52
M  V30 58 1 4 53
M  V30 59 1 7 54
M  V30 60 1 9 55
M  V30 61 1 11 56
M  V30 62 1 14 57
M  V30 63 1 15 58
M  V30 64 1 17 59
M  V30 65 1 25 60
M  V30 66 1 28 61
M  V30 67 1 30 62
M  V30 68 1 30 63
M  V30 69 1 31 64
M  V30 70 1 33 65
M  V30 71 1 33 66
M  V30 72 1 33 67
M  V30 73 1 36 68
M  V30 74 1 37 69
M  V30 75 1 39 70
M  V30 76 1 41 71
M  V30 77 1 43 72
M  V30 78 1 44 73
M  V30 END BOND
M  V30 END CTAB
M  END
>  <Dataset>  (98) 
ChEMBL_Kinases

>  <Ligand_Instance>  (98) 
nan

>  <PDB_ID>  (98) 
nan

>  <Standardized_SMILES>  (98) 
CC(C)CC(=O)Nc1cncc(-c2ccc3[nH]nc(-c4nc5c(-c6cc(F)cc(CNS(C)(=O)=O)c6)cncc5[nH]4)c3c2)c1

>  <Name>  (98) 
nan

>  <Pocket>  (98) 
nan

>  <ATP_Site>  (98) 
nan

>  <Peripheral>  (98) 
nan

>  <Num_H_Atoms_ProtBoundConf>  (98) 
nan

>  <Num_Resolved_Atoms>  (98) 
nan

>  <Num_Not_Resolved_Atoms>  (98) 
nan

$$$$
CHEMBL4126344
     RDKit          3D

  0  0  0  0  0  0  0  0  0  0999 V3000
M  V30 BEGIN CTAB
M  V30 COUNTS 53 56 0 0 0
M  V30 BEGIN ATOM
M  V30 1 C 3.767221 0.478796 3.097113 0
M  V30 2 N 3.414741 -0.809037 2.495716 0
M  V30 3 C 2.373553 -1.384257 3.338767 0
M  V30 4 C 2.877452 -0.610742 1.151015 0
M  V30 5 C 3.978454 -0.133983 0.269402 0
M  V30 6 N 3.554162 0.092867 -1.098687 0
M  V30 7 C 2.569484 1.109585 -1.029894 0
M  V30 8 C 3.081160 2.375944 -1.274196 0
M  V30 9 N 2.228492 3.441876 -1.225842 0
M  V30 10 C 0.918910 3.249265 -0.945177 0
M  V30 11 C 0.385688 2.003228 -0.699128 0
M  V30 12 C -1.012794 1.753855 -0.387136 0
M  V30 13 C -1.907204 2.796461 -0.327267 0
M  V30 14 C -3.250432 2.555895 -0.026874 0
M  V30 15 C -3.607627 1.226711 0.199784 0
M  V30 16 N -4.830187 0.703765 0.509835 0
M  V30 17 C -4.778055 -0.628643 0.654300 0
M  V30 18 C -3.451145 -1.005396 0.428410 0
M  V30 19 C -2.869154 -2.341804 0.466507 0
M  V30 20 C -3.635152 -3.303448 -0.166931 0
M  V30 21 C -3.242564 -4.644307 -0.236029 0
M  V30 22 C -2.021890 -4.941681 0.380693 0
M  V30 23 C -1.491671 -6.335394 0.385653 0
M  V30 24 F -2.399124 -7.134239 -0.283050 0
M  V30 25 F -1.403943 -6.815657 1.688896 0
M  V30 26 F -0.253705 -6.435507 -0.227687 0
M  V30 27 C -1.260890 -3.984860 1.009787 0
M  V30 28 F -0.086822 -4.254815 1.604957 0
M  V30 29 C -1.668254 -2.670578 1.065473 0
M  V30 30 C -2.747425 0.146737 0.150946 0
M  V30 31 C -1.439975 0.468405 -0.151008 0
M  V30 32 N 1.263215 1.004538 -0.759430 0
M  V30 33 H 2.885604 1.176678 2.997090 0
M  V30 34 H 3.960504 0.262807 4.188451 0
M  V30 35 H 4.672107 0.916704 2.665240 0
M  V30 36 H 2.317042 -2.468093 3.194786 0
M  V30 37 H 2.623223 -1.116730 4.376214 0
M  V30 38 H 1.429612 -0.876243 3.047154 0
M  V30 39 H 2.035561 0.093537 1.289089 0
M  V30 40 H 2.423543 -1.567517 0.806173 0
M  V30 41 H 4.737333 -0.965049 0.240341 0
M  V30 42 H 4.421075 0.785757 0.656035 0
M  V30 43 H 3.814318 -0.314473 -2.038730 0
M  V30 44 H 4.107124 2.628630 -1.506785 0
M  V30 45 H 0.288507 4.124221 -0.918751 0
M  V30 46 H -1.656229 3.817940 -0.496863 0
M  V30 47 H -4.000008 3.321166 0.037798 0
M  V30 48 H -5.718816 1.268394 0.623419 0
M  V30 49 H -5.596790 -1.293035 0.898015 0
M  V30 50 H -4.590087 -3.146109 -0.664433 0
M  V30 51 H -3.809343 -5.419838 -0.716552 0
M  V30 52 H -1.111210 -1.898762 1.539284 0
M  V30 53 H -0.701526 -0.317547 -0.208288 0
M  V30 END ATOM
M  V30 BEGIN BOND
M  V30 1 1 1 2
M  V30 2 1 2 3
M  V30 3 1 2 4
M  V30 4 1 4 5
M  V30 5 1 5 6
M  V30 6 1 6 7
M  V30 7 2 7 8
M  V30 8 1 8 9
M  V30 9 2 9 10
M  V30 10 1 10 11
M  V30 11 1 11 12
M  V30 12 2 12 13
M  V30 13 1 13 14
M  V30 14 2 14 15
M  V30 15 1 15 16
M  V30 16 1 16 17
M  V30 17 2 17 18
M  V30 18 1 18 19
M  V30 19 2 19 20
M  V30 20 1 20 21
M  V30 21 2 21 22
M  V30 22 1 22 23
M  V30 23 1 23 24
M  V30 24 1 23 25
M  V30 25 1 23 26
M  V30 26 1 22 27
M  V30 27 1 27 28
M  V30 28 2 27 29
M  V30 29 1 18 30
M  V30 30 2 30 31
M  V30 31 2 11 32
M  V30 32 1 32 7
M  V30 33 1 31 12
M  V30 34 1 30 15
M  V30 35 1 29 19
M  V30 36 1 1 33
M  V30 37 1 1 34
M  V30 38 1 1 35
M  V30 39 1 3 36
M  V30 40 1 3 37
M  V30 41 1 3 38
M  V30 42 1 4 39
M  V30 43 1 4 40
M  V30 44 1 5 41
M  V30 45 1 5 42
M  V30 46 1 6 43
M  V30 47 1 8 44
M  V30 48 1 10 45
M  V30 49 1 13 46
M  V30 50 1 14 47
M  V30 51 1 16 48
M  V30 52 1 17 49
M  V30 53 1 20 50
M  V30 54 1 21 51
M  V30 55 1 29 52
M  V30 56 1 31 53
M  V30 END BOND
M  V30 END CTAB
M  END
>  <Dataset>  (99) 
ChEMBL_Kinases

>  <Ligand_Instance>  (99) 
nan

>  <PDB_ID>  (99) 
nan

>  <Standardized_SMILES>  (99) 
CN(C)CCNc1cncc(-c2ccc3[nH]cc(-c4ccc(C(F)(F)F)c(F)c4)c3c2)n1

>  <Name>  (99) 
nan

>  <Pocket>  (99) 
nan

>  <ATP_Site>  (99) 
nan

>  <Peripheral>  (99) 
nan

>  <Num_H_Atoms_ProtBoundConf>  (99) 
nan

>  <Num_Resolved_Atoms>  (99) 
nan

>  <Num_Not_Resolved_Atoms>  (99) 
nan

$$$$
CHEMBL4165706
     RDKit          3D

  0  0  0  0  0  0  0  0  0  0999 V3000
M  V30 BEGIN CTAB
M  V30 COUNTS 66 70 0 0 0
M  V30 BEGIN ATOM
M  V30 1 C 1.863173 -1.476168 5.029569 0
M  V30 2 C 3.151939 -1.599162 4.256774 0
M  V30 3 C 2.953382 -1.547146 2.793862 0 CFG=2
M  V30 4 C 4.346154 -1.704442 2.184439 0
M  V30 5 O 5.390637 -1.818506 2.887187 0
M  V30 6 N 4.478928 -1.723951 0.762688 0
M  V30 7 C 5.558297 -2.479389 0.116822 0
M  V30 8 C 3.494853 -0.960615 0.047229 0
M  V30 9 C 3.597447 -0.973498 -1.315896 0
M  V30 10 N 2.658717 -0.257001 -1.997792 0
M  V30 11 C 1.709068 0.405457 -1.315040 0
M  V30 12 N 0.677676 1.191386 -1.899175 0
M  V30 13 C -0.580233 0.655412 -2.337539 0
M  V30 14 C -1.549942 1.486004 -2.856773 0
M  V30 15 C -2.772996 0.985449 -3.292825 0
M  V30 16 C -3.031845 -0.382052 -3.206847 0
M  V30 17 S -4.559134 -1.062662 -3.744362 0
M  V30 18 O -5.081997 -0.096861 -4.799423 0
M  V30 19 O -4.383541 -2.384441 -4.427831 0
M  V30 20 N -5.685856 -1.109610 -2.449331 0
M  V30 21 C -5.467391 -1.853280 -1.276911 0
M  V30 22 C -5.685983 -1.407121 0.010410 0
M  V30 23 C -5.443311 -2.206743 1.091342 0
M  V30 24 C -4.965773 -3.499772 0.907870 0
M  V30 25 C -4.727687 -4.000534 -0.369736 0
M  V30 26 C -4.992972 -3.140627 -1.435987 0
M  V30 27 C -2.070359 -1.218142 -2.690158 0
M  V30 28 C -0.881268 -0.679551 -2.273452 0
M  V30 29 N 1.662771 0.378720 0.022707 0
M  V30 30 C 2.540185 -0.296308 0.790842 0
M  V30 31 N 2.451469 -0.305536 2.239716 0
M  V30 32 C 1.870909 0.877768 2.822007 0
M  V30 33 C 0.420054 0.740114 3.205341 0
M  V30 34 C -0.338503 1.868370 2.563410 0
M  V30 35 C 0.648568 2.679946 1.804460 0
M  V30 36 C 2.036576 2.139138 2.060863 0
M  V30 37 H 1.854681 -2.204793 5.905559 0
M  V30 38 H 0.982127 -1.791665 4.440720 0
M  V30 39 H 1.753902 -0.494830 5.519429 0
M  V30 40 H 3.933546 -0.906362 4.639672 0
M  V30 41 H 3.578893 -2.612945 4.520122 0
M  V30 42 H 2.397540 -2.439323 2.456569 0
M  V30 43 H 6.234790 -1.803643 -0.417894 0
M  V30 44 H 6.041989 -3.077663 0.891287 0
M  V30 45 H 5.045020 -3.214268 -0.560847 0
M  V30 46 H 4.375128 -1.518455 -1.811646 0
M  V30 47 H 0.857942 2.191885 -2.006143 0
M  V30 48 H -1.400841 2.570345 -2.947864 0
M  V30 49 H -3.536462 1.662694 -3.704249 0
M  V30 50 H -6.601701 -0.576426 -2.477767 0
M  V30 51 H -6.059253 -0.391928 0.132486 0
M  V30 52 H -5.608130 -1.877922 2.118353 0
M  V30 53 H -4.758790 -4.172200 1.755051 0
M  V30 54 H -4.354416 -5.010371 -0.528810 0
M  V30 55 H -4.803421 -3.544434 -2.419641 0
M  V30 56 H -2.276152 -2.275852 -2.626621 0
M  V30 57 H -0.166999 -1.382825 -1.877969 0
M  V30 58 H 2.383706 1.083588 3.830169 0
M  V30 59 H 0.223450 0.809900 4.292542 0
M  V30 60 H 0.038344 -0.256310 2.887006 0
M  V30 61 H -1.126076 1.409811 1.929405 0
M  V30 62 H -0.867440 2.483316 3.340091 0
M  V30 63 H 0.374922 2.728062 0.730021 0
M  V30 64 H 0.532167 3.754873 2.142633 0
M  V30 65 H 2.530706 2.956528 2.684866 0
M  V30 66 H 2.685598 2.102270 1.172248 0
M  V30 END ATOM
M  V30 BEGIN BOND
M  V30 1 1 1 2
M  V30 2 1 2 3
M  V30 3 1 3 4
M  V30 4 2 4 5
M  V30 5 1 4 6
M  V30 6 1 6 7
M  V30 7 1 6 8
M  V30 8 2 8 9
M  V30 9 1 9 10
M  V30 10 2 10 11
M  V30 11 1 11 12
M  V30 12 1 12 13
M  V30 13 2 13 14
M  V30 14 1 14 15
M  V30 15 2 15 16
M  V30 16 1 16 17
M  V30 17 2 17 18
M  V30 18 2 17 19
M  V30 19 1 17 20
M  V30 20 1 20 21
M  V30 21 2 21 22
M  V30 22 1 22 23
M  V30 23 2 23 24
M  V30 24 1 24 25
M  V30 25 2 25 26
M  V30 26 1 16 27
M  V30 27 2 27 28
M  V30 28 1 11 29
M  V30 29 2 29 30
M  V30 30 1 30 31
M  V30 31 1 31 32
M  V30 32 1 32 33
M  V30 33 1 33 34
M  V30 34 1 34 35
M  V30 35 1 35 36
M  V30 36 1 31 3
M  V30 37 1 36 32
M  V30 38 1 30 8
M  V30 39 1 28 13
M  V30 40 1 26 21
M  V30 41 1 1 37
M  V30 42 1 1 38
M  V30 43 1 1 39
M  V30 44 1 2 40
M  V30 45 1 2 41
M  V30 46 1 3 42 CFG=3
M  V30 47 1 7 43
M  V30 48 1 7 44
M  V30 49 1 7 45
M  V30 50 1 9 46
M  V30 51 1 12 47
M  V30 52 1 14 48
M  V30 53 1 15 49
M  V30 54 1 20 50
M  V30 55 1 22 51
M  V30 56 1 23 52
M  V30 57 1 24 53
M  V30 58 1 25 54
M  V30 59 1 26 55
M  V30 60 1 27 56
M  V30 61 1 28 57
M  V30 62 1 32 58
M  V30 63 1 33 59
M  V30 64 1 33 60
M  V30 65 1 34 61
M  V30 66 1 34 62
M  V30 67 1 35 63
M  V30 68 1 35 64
M  V30 69 1 36 65
M  V30 70 1 36 66
M  V30 END BOND
M  V30 END CTAB
M  END
>  <Dataset>  (100) 
ChEMBL_Kinases

>  <Ligand_Instance>  (100) 
nan

>  <PDB_ID>  (100) 
nan

>  <Standardized_SMILES>  (100) 
CC[C@@H]1C(=O)N(C)c2cnc(Nc3ccc(S(=O)(=O)Nc4ccccc4)cc3)nc2N1C1CCCC1

>  <Name>  (100) 
nan

>  <Pocket>  (100) 
nan

>  <ATP_Site>  (100) 
nan

>  <Peripheral>  (100) 
nan

>  <Num_H_Atoms_ProtBoundConf>  (100) 
nan

>  <Num_Resolved_Atoms>  (100) 
nan

>  <Num_Not_Resolved_Atoms>  (100) 
nan

$$$$
CHEMBL4127644
     RDKit          3D

  0  0  0  0  0  0  0  0  0  0999 V3000
M  V30 BEGIN CTAB
M  V30 COUNTS 55 58 0 0 0
M  V30 BEGIN ATOM
M  V30 1 C 1.231423 -0.831570 2.977850 0
M  V30 2 N 2.262635 -1.192595 1.997084 0
M  V30 3 C 2.684711 -2.578230 2.236618 0
M  V30 4 C 3.394811 -0.292575 2.130585 0
M  V30 5 C 4.467004 -0.602197 1.139517 0
M  V30 6 N 4.077436 -0.499837 -0.239465 0
M  V30 7 C 3.625510 0.868047 -0.251163 0
M  V30 8 C 4.403772 2.000691 -0.326575 0
M  V30 9 N 3.793982 3.200877 -0.325586 0
M  V30 10 C 2.433271 3.232545 -0.250165 0
M  V30 11 C 1.619033 2.124703 -0.174297 0
M  V30 12 C 0.168493 2.242607 -0.119673 0
M  V30 13 C -0.503262 3.439329 -0.100816 0
M  V30 14 C -1.880225 3.557365 -0.067787 0
M  V30 15 C -2.640532 2.412750 -0.052089 0
M  V30 16 N -3.986809 2.226804 -0.022991 0
M  V30 17 C -4.231783 0.919877 -0.022251 0
M  V30 18 C -3.039676 0.231688 -0.051045 0
M  V30 19 C -2.863069 -1.213766 -0.071351 0
M  V30 20 C -3.723728 -1.828567 -0.987224 0
M  V30 21 C -3.718719 -3.212715 -1.171588 0
M  V30 22 C -2.851155 -4.029190 -0.444295 0
M  V30 23 S -2.874735 -5.737681 -0.702988 0
M  V30 24 N -3.985739 -6.590788 0.270399 0
M  V30 25 O -1.513352 -6.343860 -0.469322 0
M  V30 26 O -3.209678 -6.011713 -2.142653 0
M  V30 27 C -2.020708 -3.384737 0.446821 0
M  V30 28 C -2.009229 -2.021122 0.644197 0
M  V30 29 C -2.025213 1.171247 -0.069491 0
M  V30 30 C -0.638430 1.125250 -0.102562 0
M  V30 31 N 2.288354 0.963939 -0.179259 0
M  V30 32 H 0.501520 -0.113019 2.513390 0
M  V30 33 H 0.670363 -1.723714 3.269080 0
M  V30 34 H 1.731047 -0.337898 3.833342 0
M  V30 35 H 3.407654 -2.618278 3.079546 0
M  V30 36 H 3.110120 -2.957381 1.287024 0
M  V30 37 H 1.792181 -3.190164 2.476211 0
M  V30 38 H 3.859814 -0.410254 3.152711 0
M  V30 39 H 3.016575 0.736280 2.066622 0
M  V30 40 H 5.379690 -0.011454 1.321240 0
M  V30 41 H 4.713045 -1.698040 1.297435 0
M  V30 42 H 4.107009 -1.208637 -1.025138 0
M  V30 43 H 5.459336 1.798660 -0.381158 0
M  V30 44 H 2.046301 4.240076 -0.256248 0
M  V30 45 H 0.034618 4.367807 -0.111575 0
M  V30 46 H -2.372094 4.511214 -0.054382 0
M  V30 47 H -4.739875 2.949491 -0.003958 0
M  V30 48 H -5.193034 0.438980 -0.003075 0
M  V30 49 H -4.441670 -1.320877 -1.613583 0
M  V30 50 H -4.379763 -3.704111 -1.879604 0
M  V30 51 H -4.920192 -6.168214 0.147369 0
M  V30 52 H -3.697750 -6.572361 1.256608 0
M  V30 53 H -1.332737 -3.969545 1.031592 0
M  V30 54 H -1.387605 -1.472997 1.319168 0
M  V30 55 H -0.153862 0.146926 -0.113804 0
M  V30 END ATOM
M  V30 BEGIN BOND
M  V30 1 1 1 2
M  V30 2 1 2 3
M  V30 3 1 2 4
M  V30 4 1 4 5
M  V30 5 1 5 6
M  V30 6 1 6 7
M  V30 7 2 7 8
M  V30 8 1 8 9
M  V30 9 2 9 10
M  V30 10 1 10 11
M  V30 11 1 11 12
M  V30 12 2 12 13
M  V30 13 1 13 14
M  V30 14 2 14 15
M  V30 15 1 15 16
M  V30 16 1 16 17
M  V30 17 2 17 18
M  V30 18 1 18 19
M  V30 19 2 19 20
M  V30 20 1 20 21
M  V30 21 2 21 22
M  V30 22 1 22 23
M  V30 23 1 23 24
M  V30 24 2 23 25
M  V30 25 2 23 26
M  V30 26 1 22 27
M  V30 27 2 27 28
M  V30 28 1 18 29
M  V30 29 2 29 30
M  V30 30 2 11 31
M  V30 31 1 31 7
M  V30 32 1 30 12
M  V30 33 1 29 15
M  V30 34 1 28 19
M  V30 35 1 1 32
M  V30 36 1 1 33
M  V30 37 1 1 34
M  V30 38 1 3 35
M  V30 39 1 3 36
M  V30 40 1 3 37
M  V30 41 1 4 38
M  V30 42 1 4 39
M  V30 43 1 5 40
M  V30 44 1 5 41
M  V30 45 1 6 42
M  V30 46 1 8 43
M  V30 47 1 10 44
M  V30 48 1 13 45
M  V30 49 1 14 46
M  V30 50 1 16 47
M  V30 51 1 17 48
M  V30 52 1 20 49
M  V30 53 1 21 50
M  V30 54 1 24 51
M  V30 55 1 24 52
M  V30 56 1 27 53
M  V30 57 1 28 54
M  V30 58 1 30 55
M  V30 END BOND
M  V30 END CTAB
M  END
>  <Dataset>  (101) 
ChEMBL_Kinases

>  <Ligand_Instance>  (101) 
nan

>  <PDB_ID>  (101) 
nan

>  <Standardized_SMILES>  (101) 
CN(C)CCNc1cncc(-c2ccc3[nH]cc(-c4ccc(S(N)(=O)=O)cc4)c3c2)n1

>  <Name>  (101) 
nan

>  <Pocket>  (101) 
nan

>  <ATP_Site>  (101) 
nan

>  <Peripheral>  (101) 
nan

>  <Num_H_Atoms_ProtBoundConf>  (101) 
nan

>  <Num_Resolved_Atoms>  (101) 
nan

>  <Num_Not_Resolved_Atoms>  (101) 
nan

$$$$
CHEMBL4792964
     RDKit          3D

  0  0  0  0  0  0  0  0  0  0999 V3000
M  V30 BEGIN CTAB
M  V30 COUNTS 61 66 0 0 0
M  V30 BEGIN ATOM
M  V30 1 C 6.489506 -0.999979 7.408967 0
M  V30 2 C 5.192706 -1.334314 6.666267 0
M  V30 3 C 5.000714 -2.804731 6.508841 0
M  V30 4 C 3.717119 -3.117602 5.774530 0
M  V30 5 C 3.793928 -2.477287 4.412253 0
M  V30 6 O 4.571207 -1.782238 3.709219 0
M  V30 7 N 2.578167 -2.779882 3.737574 0
M  V30 8 C 2.152366 -2.411947 2.429775 0
M  V30 9 C 2.385557 -3.159375 1.275658 0
M  V30 10 N 1.942941 -2.729571 0.080157 0
M  V30 11 C 1.262272 -1.580383 -0.086429 0
M  V30 12 C 0.990546 -0.778358 1.022383 0
M  V30 13 C 0.256786 0.487460 0.937133 0
M  V30 14 C 0.578745 1.485998 1.848286 0
M  V30 15 N -0.108660 2.660763 1.762486 0
M  V30 16 C -1.056659 2.850296 0.839664 0
M  V30 17 N -1.867988 3.874391 0.534689 0
M  V30 18 N -2.642698 3.557935 -0.484425 0
M  V30 19 C -2.406300 2.315821 -0.926320 0
M  V30 20 C -3.093283 1.681867 -2.028610 0
M  V30 21 C -3.051857 0.471479 -2.664383 0
M  V30 22 C -3.960415 0.395619 -3.693602 0
M  V30 23 C -4.262531 -0.604539 -4.581969 0
M  V30 24 C -3.568230 -1.885041 -4.558241 0
M  V30 25 C -4.487894 -2.938316 -4.637407 0
M  V30 26 C -4.022796 -4.258401 -4.632637 0
M  V30 27 N -2.709147 -4.531744 -4.553394 0
M  V30 28 C -1.823070 -3.497541 -4.476818 0
M  V30 29 C -2.225668 -2.187652 -4.477842 0
M  V30 30 C -5.256209 -0.354387 -5.517085 0
M  V30 31 N -5.887328 0.831682 -5.534796 0
M  V30 32 C -5.571624 1.789488 -4.655785 0
M  V30 33 C -4.593491 1.613305 -3.695789 0
M  V30 34 N -4.056697 2.339824 -2.704422 0
M  V30 35 C -1.410734 1.891853 -0.083814 0
M  V30 36 C -0.724009 0.702654 -0.006893 0
M  V30 37 C 1.458863 -1.241828 2.257390 0
M  V30 38 H 7.316216 -1.536307 6.890849 0
M  V30 39 H 6.410199 -1.264887 8.482450 0
M  V30 40 H 6.669455 0.082960 7.247466 0
M  V30 41 H 5.283126 -0.794361 5.701928 0
M  V30 42 H 4.384406 -0.881047 7.276915 0
M  V30 43 H 4.985600 -3.288426 7.497642 0
M  V30 44 H 5.822550 -3.187367 5.859124 0
M  V30 45 H 2.880952 -2.687309 6.363960 0
M  V30 46 H 3.570540 -4.211023 5.680074 0
M  V30 47 H 1.702369 -3.320347 3.980755 0
M  V30 48 H 2.928024 -4.079508 1.393750 0
M  V30 49 H 0.894574 -1.206946 -1.023558 0
M  V30 50 H 1.325167 1.411108 2.616685 0
M  V30 51 H -1.927974 4.811133 0.996393 0
M  V30 52 H -2.403223 -0.322806 -2.404263 0
M  V30 53 H -5.579518 -2.853393 -4.705970 0
M  V30 54 H -4.718850 -5.095630 -4.693345 0
M  V30 55 H -0.755658 -3.662271 -4.411353 0
M  V30 56 H -1.620166 -1.315208 -4.425044 0
M  V30 57 H -5.553667 -1.088844 -6.250934 0
M  V30 58 H -6.083610 2.728760 -4.683177 0
M  V30 59 H -4.442616 3.306462 -2.579712 0
M  V30 60 H -0.944349 -0.085027 -0.689180 0
M  V30 61 H 1.244506 -0.615652 3.109362 0
M  V30 END ATOM
M  V30 BEGIN BOND
M  V30 1 1 1 2
M  V30 2 1 2 3
M  V30 3 1 3 4
M  V30 4 1 4 5
M  V30 5 2 5 6
M  V30 6 1 5 7
M  V30 7 1 7 8
M  V30 8 2 8 9
M  V30 9 1 9 10
M  V30 10 2 10 11
M  V30 11 1 11 12
M  V30 12 1 12 13
M  V30 13 2 13 14
M  V30 14 1 14 15
M  V30 15 2 15 16
M  V30 16 1 16 17
M  V30 17 1 17 18
M  V30 18 2 18 19
M  V30 19 1 19 20
M  V30 20 2 20 21
M  V30 21 1 21 22
M  V30 22 2 22 23
M  V30 23 1 23 24
M  V30 24 2 24 25
M  V30 25 1 25 26
M  V30 26 2 26 27
M  V30 27 1 27 28
M  V30 28 2 28 29
M  V30 29 1 23 30
M  V30 30 2 30 31
M  V30 31 1 31 32
M  V30 32 2 32 33
M  V30 33 1 33 34
M  V30 34 1 19 35
M  V30 35 2 35 36
M  V30 36 2 12 37
M  V30 37 1 37 8
M  V30 38 1 36 13
M  V30 39 1 35 16
M  V30 40 1 34 20
M  V30 41 1 33 22
M  V30 42 1 29 24
M  V30 43 1 1 38
M  V30 44 1 1 39
M  V30 45 1 1 40
M  V30 46 1 2 41
M  V30 47 1 2 42
M  V30 48 1 3 43
M  V30 49 1 3 44
M  V30 50 1 4 45
M  V30 51 1 4 46
M  V30 52 1 7 47
M  V30 53 1 9 48
M  V30 54 1 11 49
M  V30 55 1 14 50
M  V30 56 1 17 51
M  V30 57 1 21 52
M  V30 58 1 25 53
M  V30 59 1 26 54
M  V30 60 1 28 55
M  V30 61 1 29 56
M  V30 62 1 30 57
M  V30 63 1 32 58
M  V30 64 1 34 59
M  V30 65 1 36 60
M  V30 66 1 37 61
M  V30 END BOND
M  V30 END CTAB
M  END
>  <Dataset>  (102) 
ChEMBL_Kinases

>  <Ligand_Instance>  (102) 
nan

>  <PDB_ID>  (102) 
nan

>  <Standardized_SMILES>  (102) 
CCCCC(=O)Nc1cncc(-c2cnc3[nH]nc(-c4cc5c(-c6ccncc6)cncc5[nH]4)c3c2)c1

>  <Name>  (102) 
nan

>  <Pocket>  (102) 
nan

>  <ATP_Site>  (102) 
nan

>  <Peripheral>  (102) 
nan

>  <Num_H_Atoms_ProtBoundConf>  (102) 
nan

>  <Num_Resolved_Atoms>  (102) 
nan

>  <Num_Not_Resolved_Atoms>  (102) 
nan

$$$$
CHEMBL4786950
     RDKit          3D

  0  0  0  0  0  0  0  0  0  0999 V3000
M  V30 BEGIN CTAB
M  V30 COUNTS 60 66 0 0 0
M  V30 BEGIN ATOM
M  V30 1 O 2.581887 -1.790881 2.063826 0
M  V30 2 C 3.269306 -0.995836 2.729108 0
M  V30 3 N 3.856073 0.211699 2.241086 0
M  V30 4 C 3.571250 0.363647 0.829883 0
M  V30 5 C 4.600424 -0.444245 0.313641 0
M  V30 6 N 4.394518 -0.538959 -1.077880 0
M  V30 7 C 3.396502 0.048295 -1.681322 0
M  V30 8 C 2.381834 0.801269 -1.490953 0
M  V30 9 C 1.249991 1.617905 -1.291041 0
M  V30 10 C 1.387831 2.906589 -1.557788 0
M  V30 11 C 0.369227 3.861633 -1.476882 0
M  V30 12 C -0.783055 3.277068 -1.071145 0
M  V30 13 N -1.972166 3.856372 -0.997173 0
M  V30 14 N -2.788277 2.946210 -0.647434 0
M  V30 15 C -2.620442 1.753666 -0.391600 0
M  V30 16 C -2.685339 0.275020 -0.202611 0
M  V30 17 C -3.485441 -0.684883 -0.760064 0
M  V30 18 C -3.162452 -1.929709 -0.404387 0
M  V30 19 C -3.591188 -3.247918 -0.642959 0
M  V30 20 C -4.641299 -3.116579 -1.663387 0
M  V30 21 C -5.970185 -2.795443 -1.776676 0
M  V30 22 C -6.419606 -2.715019 -3.056752 0
M  V30 23 C -5.759058 -2.904277 -4.224189 0
M  V30 24 N -4.456836 -3.219372 -4.073527 0
M  V30 25 C -3.868943 -3.335361 -2.823096 0
M  V30 26 C -2.930509 -4.210114 0.007093 0
M  V30 27 N -1.931497 -4.032938 0.833236 0
M  V30 28 C -1.425879 -2.840631 1.122736 0
M  V30 29 C -2.065701 -1.773532 0.475430 0
M  V30 30 N -1.796606 -0.475894 0.582744 0
M  V30 31 C -1.192814 2.018861 -0.715701 0
M  V30 32 C -0.020853 1.209369 -0.875831 0
M  V30 33 C 2.543245 0.952689 0.026249 0
M  V30 34 C 3.467222 -1.418448 4.153122 0
M  V30 35 C 4.002586 -2.739916 4.054454 0
M  V30 36 C 4.402724 -3.579419 5.116587 0
M  V30 37 C 4.124184 -2.795534 6.214983 0
M  V30 38 C 3.656117 -1.648759 6.660506 0
M  V30 39 C 3.308809 -0.942492 5.451777 0
M  V30 40 H 4.392215 0.940923 2.774225 0
M  V30 41 H 5.430556 -0.983324 0.558884 0
M  V30 42 H 3.157555 0.031014 -2.793021 0
M  V30 43 H 2.334598 3.364013 -1.908633 0
M  V30 44 H 0.424562 4.915485 -1.702743 0
M  V30 45 H -2.241543 4.835116 -1.151935 0
M  V30 46 H -4.261729 -0.372652 -1.450478 0
M  V30 47 H -6.344585 -2.680340 -0.797833 0
M  V30 48 H -7.492301 -2.439720 -3.081548 0
M  V30 49 H -6.286372 -2.783984 -5.147131 0
M  V30 50 H -2.825692 -3.599214 -3.057913 0
M  V30 51 H -3.369992 -5.196267 -0.251192 0
M  V30 52 H -0.625791 -2.707317 1.803861 0
M  V30 53 H -1.046353 -0.052979 1.164221 0
M  V30 54 H 0.039435 0.144809 -0.735261 0
M  V30 55 H 2.061107 1.420976 0.909166 0
M  V30 56 H 4.180970 -3.289487 3.089423 0
M  V30 57 H 4.794009 -4.562051 5.154666 0
M  V30 58 H 4.407228 -3.311359 7.197763 0
M  V30 59 H 3.368142 -0.993059 7.457235 0
M  V30 60 H 2.865074 0.050318 5.259051 0
M  V30 END ATOM
M  V30 BEGIN BOND
M  V30 1 2 1 2
M  V30 2 1 2 3
M  V30 3 1 3 4
M  V30 4 2 4 5
M  V30 5 1 5 6
M  V30 6 2 6 7
M  V30 7 1 7 8
M  V30 8 1 8 9
M  V30 9 2 9 10
M  V30 10 1 10 11
M  V30 11 2 11 12
M  V30 12 1 12 13
M  V30 13 1 13 14
M  V30 14 2 14 15
M  V30 15 1 15 16
M  V30 16 2 16 17
M  V30 17 1 17 18
M  V30 18 2 18 19
M  V30 19 1 19 20
M  V30 20 2 20 21
M  V30 21 1 21 22
M  V30 22 2 22 23
M  V30 23 1 23 24
M  V30 24 2 24 25
M  V30 25 1 19 26
M  V30 26 2 26 27
M  V30 27 1 27 28
M  V30 28 2 28 29
M  V30 29 1 29 30
M  V30 30 1 15 31
M  V30 31 2 31 32
M  V30 32 2 8 33
M  V30 33 1 2 34
M  V30 34 2 34 35
M  V30 35 1 35 36
M  V30 36 2 36 37
M  V30 37 1 37 38
M  V30 38 2 38 39
M  V30 39 1 33 4
M  V30 40 1 39 34
M  V30 41 1 32 9
M  V30 42 1 31 12
M  V30 43 1 30 16
M  V30 44 1 29 18
M  V30 45 1 25 20
M  V30 46 1 3 40
M  V30 47 1 5 41
M  V30 48 1 7 42
M  V30 49 1 10 43
M  V30 50 1 11 44
M  V30 51 1 13 45
M  V30 52 1 17 46
M  V30 53 1 21 47
M  V30 54 1 22 48
M  V30 55 1 23 49
M  V30 56 1 25 50
M  V30 57 1 26 51
M  V30 58 1 28 52
M  V30 59 1 30 53
M  V30 60 1 32 54
M  V30 61 1 33 55
M  V30 62 1 35 56
M  V30 63 1 36 57
M  V30 64 1 37 58
M  V30 65 1 38 59
M  V30 66 1 39 60
M  V30 END BOND
M  V30 END CTAB
M  END
>  <Dataset>  (103) 
ChEMBL_Kinases

>  <Ligand_Instance>  (103) 
nan

>  <PDB_ID>  (103) 
nan

>  <Standardized_SMILES>  (103) 
O=C(Nc1cncc(-c2ccc3[nH]nc(-c4cc5c(-c6cccnc6)cncc5[nH]4)c3c2)c1)c1ccccc1

>  <Name>  (103) 
nan

>  <Pocket>  (103) 
nan

>  <ATP_Site>  (103) 
nan

>  <Peripheral>  (103) 
nan

>  <Num_H_Atoms_ProtBoundConf>  (103) 
nan

>  <Num_Resolved_Atoms>  (103) 
nan

>  <Num_Not_Resolved_Atoms>  (103) 
nan

$$$$
CHEMBL4126511
     RDKit          3D

  0  0  0  0  0  0  0  0  0  0999 V3000
M  V30 BEGIN CTAB
M  V30 COUNTS 71 75 0 0 0
M  V30 BEGIN ATOM
M  V30 1 C 0.149692 -0.511811 -0.748224 0
M  V30 2 C 0.904741 0.730504 -0.954269 0
M  V30 3 C 1.831586 0.734660 -1.972566 0
M  V30 4 C 2.633076 1.793602 -2.310399 0
M  V30 5 O 3.591814 1.998989 -3.254592 0
M  V30 6 C 4.098160 1.135911 -4.217479 0
M  V30 7 C 4.794646 -0.078391 -3.724845 0
M  V30 8 N 5.296144 -0.933670 -4.780888 0
M  V30 9 C 5.931062 -2.047777 -4.168520 0
M  V30 10 C 5.729982 -3.358221 -4.874068 0
M  V30 11 O 5.801214 -3.076745 -6.252421 0
M  V30 12 C 4.557944 -2.470802 -6.556049 0
M  V30 13 C 4.357429 -1.199546 -5.807324 0
M  V30 14 C 2.430942 2.925702 -1.506686 0
M  V30 15 C 1.509759 2.946433 -0.482712 0
M  V30 16 C 0.727220 1.849025 -0.185133 0
M  V30 17 C -0.232346 1.937103 0.894896 0
M  V30 18 C -1.185263 1.136484 1.448833 0
M  V30 19 C -1.846695 1.740502 2.492032 0
M  V30 20 C -2.859821 1.290854 3.309355 0
M  V30 21 C -3.467474 -0.008160 3.199503 0
M  V30 22 C -3.872453 -0.472521 1.971656 0
M  V30 23 C -4.438448 -1.717994 1.937060 0
M  V30 24 C -4.566130 -2.418588 3.112942 0
M  V30 25 C -5.184042 -3.731137 3.148504 0
M  V30 26 N -5.586756 -4.221105 1.841327 0
M  V30 27 O -5.662650 -4.829473 3.469166 0
M  V30 28 C -4.172433 -1.991238 4.368751 0
M  V30 29 C -4.276850 -2.738324 5.621167 0
M  V30 30 C -5.737888 -2.705584 6.072988 0
M  V30 31 C -3.811880 -4.146932 5.609463 0
M  V30 32 C -3.599005 -0.715787 4.369777 0
M  V30 33 C -3.350654 2.121747 4.302998 0
M  V30 34 C -2.753179 3.381685 4.387499 0
M  V30 35 N -1.773506 3.774146 3.572627 0
M  V30 36 C -1.282979 2.991013 2.606372 0
M  V30 37 N -0.361833 3.047558 1.663285 0
M  V30 38 H -0.909667 -0.439017 -0.997492 0
M  V30 39 H 0.581501 -1.327359 -1.420578 0
M  V30 40 H 0.399776 -0.897557 0.266405 0
M  V30 41 H 1.968483 -0.125766 -2.589213 0
M  V30 42 H 4.816682 1.764825 -4.832399 0
M  V30 43 H 3.223800 0.877845 -4.893217 0
M  V30 44 H 5.627575 0.187506 -3.030699 0
M  V30 45 H 4.110271 -0.700788 -3.136408 0
M  V30 46 H 7.029962 -1.889322 -4.065357 0
M  V30 47 H 5.558306 -2.178033 -3.123773 0
M  V30 48 H 4.711434 -3.801569 -4.671864 0
M  V30 49 H 6.524779 -4.080450 -4.655826 0
M  V30 50 H 3.796128 -3.245918 -6.340942 0
M  V30 51 H 4.525218 -2.325668 -7.673979 0
M  V30 52 H 3.324370 -1.238343 -5.350882 0
M  V30 53 H 4.321088 -0.381651 -6.554913 0
M  V30 54 H 2.997110 3.857864 -1.652045 0
M  V30 55 H 1.422979 3.879048 0.090093 0
M  V30 56 H -1.416415 0.152268 1.135344 0
M  V30 57 H -3.786411 0.060693 1.038963 0
M  V30 58 H -4.773522 -2.124151 0.999678 0
M  V30 59 H -5.297712 -4.802907 1.012127 0
M  V30 60 H -6.404344 -4.157080 1.165831 0
M  V30 61 H -3.656100 -2.160122 6.374995 0
M  V30 62 H -6.359302 -2.793781 5.162927 0
M  V30 63 H -5.954858 -1.790227 6.659238 0
M  V30 64 H -5.904790 -3.611070 6.690470 0
M  V30 65 H -2.986352 -4.259921 6.385436 0
M  V30 66 H -3.277209 -4.413307 4.663647 0
M  V30 67 H -4.557763 -4.903173 5.930723 0
M  V30 68 H -3.256796 -0.288810 5.320027 0
M  V30 69 H -4.130682 1.849466 4.974346 0
M  V30 70 H -3.126512 4.047048 5.163433 0
M  V30 71 H 0.173122 3.967883 1.621477 0
M  V30 END ATOM
M  V30 BEGIN BOND
M  V30 1 1 1 2
M  V30 2 2 2 3
M  V30 3 1 3 4
M  V30 4 1 4 5
M  V30 5 1 5 6
M  V30 6 1 6 7
M  V30 7 1 7 8
M  V30 8 1 8 9
M  V30 9 1 9 10
M  V30 10 1 10 11
M  V30 11 1 11 12
M  V30 12 1 12 13
M  V30 13 2 4 14
M  V30 14 1 14 15
M  V30 15 2 15 16
M  V30 16 1 16 17
M  V30 17 2 17 18
M  V30 18 1 18 19
M  V30 19 2 19 20
M  V30 20 1 20 21
M  V30 21 2 21 22
M  V30 22 1 22 23
M  V30 23 2 23 24
M  V30 24 1 24 25
M  V30 25 1 25 26
M  V30 26 2 25 27
M  V30 27 1 24 28
M  V30 28 1 28 29
M  V30 29 1 29 30
M  V30 30 1 29 31
M  V30 31 2 28 32
M  V30 32 1 20 33
M  V30 33 2 33 34
M  V30 34 1 34 35
M  V30 35 2 35 36
M  V30 36 1 36 37
M  V30 37 1 16 2
M  V30 38 1 37 17
M  V30 39 1 13 8
M  V30 40 1 36 19
M  V30 41 1 32 21
M  V30 42 1 1 38
M  V30 43 1 1 39
M  V30 44 1 1 40
M  V30 45 1 3 41
M  V30 46 1 6 42
M  V30 47 1 6 43
M  V30 48 1 7 44
M  V30 49 1 7 45
M  V30 50 1 9 46
M  V30 51 1 9 47
M  V30 52 1 10 48
M  V30 53 1 10 49
M  V30 54 1 12 50
M  V30 55 1 12 51
M  V30 56 1 13 52
M  V30 57 1 13 53
M  V30 58 1 14 54
M  V30 59 1 15 55
M  V30 60 1 18 56
M  V30 61 1 22 57
M  V30 62 1 23 58
M  V30 63 1 26 59
M  V30 64 1 26 60
M  V30 65 1 29 61
M  V30 66 1 30 62
M  V30 67 1 30 63
M  V30 68 1 30 64
M  V30 69 1 31 65
M  V30 70 1 31 66
M  V30 71 1 31 67
M  V30 72 1 32 68
M  V30 73 1 33 69
M  V30 74 1 34 70
M  V30 75 1 37 71
M  V30 END BOND
M  V30 END CTAB
M  END
>  <Dataset>  (104) 
ChEMBL_Kinases

>  <Ligand_Instance>  (104) 
nan

>  <PDB_ID>  (104) 
nan

>  <Standardized_SMILES>  (104) 
Cc1cc(OCCN2CCOCC2)ccc1-c1cc2c(-c3ccc(C(N)=O)c(C(C)C)c3)ccnc2[nH]1

>  <Name>  (104) 
nan

>  <Pocket>  (104) 
nan

>  <ATP_Site>  (104) 
nan

>  <Peripheral>  (104) 
nan

>  <Num_H_Atoms_ProtBoundConf>  (104) 
nan

>  <Num_Resolved_Atoms>  (104) 
nan

>  <Num_Not_Resolved_Atoms>  (104) 
nan

$$$$
CHEMBL4786934
     RDKit          3D

  0  0  0  0  0  0  0  0  0  0999 V3000
M  V30 BEGIN CTAB
M  V30 COUNTS 56 60 0 0 0
M  V30 BEGIN ATOM
M  V30 1 N 8.479470 -2.527404 5.351408 0
M  V30 2 C 7.335519 -2.171132 4.577221 0
M  V30 3 N 6.762668 -0.984610 4.907600 0
M  V30 4 C 5.677560 -0.538605 4.250270 0
M  V30 5 C 5.145358 -1.300938 3.229209 0
M  V30 6 N 3.996158 -0.816066 2.540930 0
M  V30 7 C 4.368783 -0.031861 1.430882 0
M  V30 8 O 5.638081 -0.034820 1.433706 0
M  V30 9 C 3.689587 0.702852 0.391415 0
M  V30 10 N 4.469529 1.308296 -0.523260 0
M  V30 11 N 3.687120 1.941047 -1.407572 0
M  V30 12 C 2.383688 1.789712 -1.129188 0
M  V30 13 C 1.194117 2.206793 -1.680010 0
M  V30 14 C 0.026381 1.813599 -1.053856 0
M  V30 15 C 0.058980 1.030829 0.082624 0
M  V30 16 C -1.241987 0.684900 0.648157 0
M  V30 17 C -1.421780 0.492649 2.013046 0
M  V30 18 N -2.610916 0.172422 2.571818 0
M  V30 19 C -3.679551 0.032219 1.761049 0
M  V30 20 C -3.600443 0.202951 0.394081 0
M  V30 21 C -4.804377 0.038038 -0.454128 0
M  V30 22 N -4.995558 -1.317080 -0.926706 0
M  V30 23 C -6.198317 -1.330846 -1.735379 0
M  V30 24 C -6.583779 -2.740485 -2.091437 0
M  V30 25 C -5.457530 -3.651581 -2.423101 0
M  V30 26 C -4.104722 -3.254687 -1.962712 0
M  V30 27 C -3.927132 -1.770503 -1.762013 0
M  V30 28 C -2.360964 0.531680 -0.144060 0
M  V30 29 C 1.256215 0.618681 0.625680 0
M  V30 30 C 2.411068 1.013803 -0.002896 0
M  V30 31 C 5.759375 -2.516761 2.914920 0
M  V30 32 N 6.855402 -2.953294 3.588735 0
M  V30 33 H 9.315331 -1.919747 5.477256 0
M  V30 34 H 8.407742 -3.469667 5.791578 0
M  V30 35 H 5.253611 0.413988 4.547616 0
M  V30 36 H 2.963910 -0.889231 2.641375 0
M  V30 37 H 4.085175 2.480105 -2.208606 0
M  V30 38 H 1.235551 2.818319 -2.570847 0
M  V30 39 H -0.872538 2.188103 -1.556273 0
M  V30 40 H -0.587089 0.596408 2.698756 0
M  V30 41 H -4.633262 -0.224010 2.204805 0
M  V30 42 H -5.684946 0.463038 0.020363 0
M  V30 43 H -4.614327 0.659972 -1.365460 0
M  V30 44 H -6.023233 -0.705634 -2.655828 0
M  V30 45 H -7.040738 -0.883058 -1.167078 0
M  V30 46 H -7.241207 -2.646320 -3.003121 0
M  V30 47 H -7.247526 -3.124914 -1.289931 0
M  V30 48 H -5.444797 -3.904626 -3.521373 0
M  V30 49 H -5.686231 -4.645602 -1.936011 0
M  V30 50 H -3.357664 -3.568510 -2.729896 0
M  V30 51 H -3.768933 -3.770252 -1.015515 0
M  V30 52 H -2.923827 -1.642656 -1.301471 0
M  V30 53 H -4.023896 -1.291843 -2.757289 0
M  V30 54 H -2.253051 0.674672 -1.210133 0
M  V30 55 H 1.258374 0.014430 1.505432 0
M  V30 56 H 5.299071 -3.068628 2.108063 0
M  V30 END ATOM
M  V30 BEGIN BOND
M  V30 1 1 1 2
M  V30 2 2 2 3
M  V30 3 1 3 4
M  V30 4 2 4 5
M  V30 5 1 5 6
M  V30 6 1 6 7
M  V30 7 2 7 8
M  V30 8 1 7 9
M  V30 9 2 9 10
M  V30 10 1 10 11
M  V30 11 1 11 12
M  V30 12 2 12 13
M  V30 13 1 13 14
M  V30 14 2 14 15
M  V30 15 1 15 16
M  V30 16 2 16 17
M  V30 17 1 17 18
M  V30 18 2 18 19
M  V30 19 1 19 20
M  V30 20 1 20 21
M  V30 21 1 21 22
M  V30 22 1 22 23
M  V30 23 1 23 24
M  V30 24 1 24 25
M  V30 25 1 25 26
M  V30 26 1 26 27
M  V30 27 2 20 28
M  V30 28 1 15 29
M  V30 29 2 29 30
M  V30 30 1 5 31
M  V30 31 2 31 32
M  V30 32 1 32 2
M  V30 33 1 30 9
M  V30 34 1 30 12
M  V30 35 1 28 16
M  V30 36 1 27 22
M  V30 37 1 1 33
M  V30 38 1 1 34
M  V30 39 1 4 35
M  V30 40 1 6 36
M  V30 41 1 11 37
M  V30 42 1 13 38
M  V30 43 1 14 39
M  V30 44 1 17 40
M  V30 45 1 19 41
M  V30 46 1 21 42
M  V30 47 1 21 43
M  V30 48 1 23 44
M  V30 49 1 23 45
M  V30 50 1 24 46
M  V30 51 1 24 47
M  V30 52 1 25 48
M  V30 53 1 25 49
M  V30 54 1 26 50
M  V30 55 1 26 51
M  V30 56 1 27 52
M  V30 57 1 27 53
M  V30 58 1 28 54
M  V30 59 1 29 55
M  V30 60 1 31 56
M  V30 END BOND
M  V30 END CTAB
M  END
>  <Dataset>  (105) 
ChEMBL_Kinases

>  <Ligand_Instance>  (105) 
nan

>  <PDB_ID>  (105) 
nan

>  <Standardized_SMILES>  (105) 
Nc1ncc(NC(=O)c2n[nH]c3ccc(-c4cncc(CN5CCCCC5)c4)cc23)cn1

>  <Name>  (105) 
nan

>  <Pocket>  (105) 
nan

>  <ATP_Site>  (105) 
nan

>  <Peripheral>  (105) 
nan

>  <Num_H_Atoms_ProtBoundConf>  (105) 
nan

>  <Num_Resolved_Atoms>  (105) 
nan

>  <Num_Not_Resolved_Atoms>  (105) 
nan

$$$$
CHEMBL4126566
     RDKit          3D

  0  0  0  0  0  0  0  0  0  0999 V3000
M  V30 BEGIN CTAB
M  V30 COUNTS 46 49 0 0 0
M  V30 BEGIN ATOM
M  V30 1 N -1.980565 -5.355004 2.182509 0
M  V30 2 C -2.847524 -5.078779 1.064721 0
M  V30 3 O -3.806029 -5.769065 0.653110 0
M  V30 4 C -2.410726 -3.804107 0.459561 0
M  V30 5 C -1.411090 -2.945603 0.822983 0
M  V30 6 C -1.100540 -1.790278 0.175557 0
M  V30 7 C -1.823465 -1.418682 -0.937581 0
M  V30 8 C -1.471910 -0.193628 -1.613949 0
M  V30 9 C -2.213293 0.144830 -2.723416 0
M  V30 10 C -1.838164 1.323056 -3.342103 0
M  V30 11 N -0.852683 2.090718 -2.930396 0
M  V30 12 C -0.132490 1.758595 -1.848965 0
M  V30 13 N 0.933800 2.605106 -1.436748 0
M  V30 14 C 1.814737 2.510330 -0.324290 0
M  V30 15 C 2.865989 3.386214 -0.186206 0
M  V30 16 C 3.690435 3.256341 0.902619 0
M  V30 17 C 3.563702 2.310020 1.895228 0
M  V30 18 C 2.481855 1.432958 1.725437 0
M  V30 19 C 2.345601 0.415964 2.783772 0
M  V30 20 C 3.514698 -0.055105 3.400981 0
M  V30 21 C 3.259958 -1.008754 4.388954 0
M  V30 22 C 2.037629 -1.495600 4.785357 0
M  V30 23 C 0.993591 -0.940005 4.091838 0
M  V30 24 C 1.070730 0.005431 3.093540 0
M  V30 25 C 1.636720 1.542234 0.638750 0
M  V30 26 N -0.489868 0.620384 -1.246267 0
M  V30 27 C -2.842775 -2.245396 -1.351261 0
M  V30 28 C -3.134155 -3.426177 -0.660636 0
M  V30 29 H -1.857408 -6.082396 2.923109 0
M  V30 30 H -1.832439 -6.062165 2.931431 0
M  V30 31 H -0.870486 -3.286760 1.710859 0
M  V30 32 H -0.286611 -1.252853 0.609058 0
M  V30 33 H -3.030530 -0.348347 -3.187081 0
M  V30 34 H -2.349904 1.705285 -4.241475 0
M  V30 35 H 1.115805 3.455707 -2.054891 0
M  V30 36 H 3.087714 4.179408 -0.891179 0
M  V30 37 H 4.531057 3.944583 1.024775 0
M  V30 38 H 4.235163 2.250893 2.728015 0
M  V30 39 H 4.507559 0.278293 3.148463 0
M  V30 40 H 4.185045 -1.370966 4.864327 0
M  V30 41 H 1.944700 -2.227345 5.555138 0
M  V30 42 H -0.035397 -1.258804 4.327256 0
M  V30 43 H 0.233348 0.410837 2.581105 0
M  V30 44 H 0.863715 0.822615 0.636126 0
M  V30 45 H -3.450158 -2.028472 -2.207803 0
M  V30 46 H -3.957044 -4.051986 -1.032430 0
M  V30 END ATOM
M  V30 BEGIN BOND
M  V30 1 1 1 2
M  V30 2 2 2 3
M  V30 3 1 2 4
M  V30 4 2 4 5
M  V30 5 1 5 6
M  V30 6 2 6 7
M  V30 7 1 7 8
M  V30 8 2 8 9
M  V30 9 1 9 10
M  V30 10 2 10 11
M  V30 11 1 11 12
M  V30 12 1 12 13
M  V30 13 1 13 14
M  V30 14 2 14 15
M  V30 15 1 15 16
M  V30 16 2 16 17
M  V30 17 1 17 18
M  V30 18 1 18 19
M  V30 19 2 19 20
M  V30 20 1 20 21
M  V30 21 2 21 22
M  V30 22 1 22 23
M  V30 23 2 23 24
M  V30 24 2 18 25
M  V30 25 2 12 26
M  V30 26 1 7 27
M  V30 27 2 27 28
M  V30 28 1 28 4
M  V30 29 1 26 8
M  V30 30 1 25 14
M  V30 31 1 24 19
M  V30 32 1 1 29
M  V30 33 1 1 30
M  V30 34 1 5 31
M  V30 35 1 6 32
M  V30 36 1 9 33
M  V30 37 1 10 34
M  V30 38 1 13 35
M  V30 39 1 15 36
M  V30 40 1 16 37
M  V30 41 1 17 38
M  V30 42 1 20 39
M  V30 43 1 21 40
M  V30 44 1 22 41
M  V30 45 1 23 42
M  V30 46 1 24 43
M  V30 47 1 25 44
M  V30 48 1 27 45
M  V30 49 1 28 46
M  V30 END BOND
M  V30 END CTAB
M  END
>  <Dataset>  (106) 
ChEMBL_Kinases

>  <Ligand_Instance>  (106) 
nan

>  <PDB_ID>  (106) 
nan

>  <Standardized_SMILES>  (106) 
NC(=O)c1ccc(-c2ccnc(Nc3cccc(-c4ccccc4)c3)n2)cc1

>  <Name>  (106) 
nan

>  <Pocket>  (106) 
nan

>  <ATP_Site>  (106) 
nan

>  <Peripheral>  (106) 
nan

>  <Num_H_Atoms_ProtBoundConf>  (106) 
nan

>  <Num_Resolved_Atoms>  (106) 
nan

>  <Num_Not_Resolved_Atoms>  (106) 
nan

$$$$
CHEMBL4127479
     RDKit          3D

  0  0  0  0  0  0  0  0  0  0999 V3000
M  V30 BEGIN CTAB
M  V30 COUNTS 62 66 0 0 0
M  V30 BEGIN ATOM
M  V30 1 C 1.366165 -2.682031 2.367036 0
M  V30 2 C 1.543431 -1.344439 1.792600 0
M  V30 3 C 2.785197 -0.753635 1.966320 0
M  V30 4 C 3.094164 0.495908 1.482318 0
M  V30 5 C 2.081208 1.129600 0.807054 0
M  V30 6 O 2.335109 2.392761 0.295920 0
M  V30 7 C 3.593546 3.011277 0.461379 0
M  V30 8 C 3.658814 4.359926 -0.160632 0
M  V30 9 N 3.441877 4.447673 -1.560295 0
M  V30 10 C 2.137936 4.165731 -2.045825 0
M  V30 11 C 1.137366 5.241089 -1.659572 0
M  V30 12 O 1.456168 6.365922 -2.409574 0
M  V30 13 C 2.742445 6.397096 -2.886233 0
M  V30 14 C 3.759723 5.818060 -1.954499 0
M  V30 15 C 0.855438 0.540911 0.638292 0
M  V30 16 C 0.535575 -0.710120 1.118968 0
M  V30 17 C -0.784513 -1.252343 0.891172 0
M  V30 18 C -1.447256 -2.411891 1.181774 0
M  V30 19 C -2.738220 -2.405672 0.710377 0
M  V30 20 C -3.740933 -3.349273 0.778078 0
M  V30 21 C -3.564970 -4.639371 1.434429 0
M  V30 22 C -4.057752 -5.686854 0.642491 0
M  V30 23 C -3.996038 -6.984431 1.066464 0
M  V30 24 C -3.453099 -7.325619 2.279159 0
M  V30 25 C -3.367809 -8.709493 2.772278 0
M  V30 26 N -3.896681 -9.715704 1.903817 0
M  V30 27 O -2.848903 -8.970801 3.910117 0
M  V30 28 C -2.965947 -6.276953 3.059343 0
M  V30 29 C -3.015823 -4.962338 2.656282 0
M  V30 30 C -4.939591 -3.025291 0.194038 0
M  V30 31 C -5.107350 -1.815431 -0.420909 0
M  V30 32 N -4.092427 -0.945371 -0.450385 0
M  V30 33 C -2.892037 -1.200952 0.102638 0
M  V30 34 N -1.728974 -0.556018 0.229460 0
M  V30 35 H 2.339501 -3.022567 2.849901 0
M  V30 36 H 1.241544 -3.412417 1.545143 0
M  V30 37 H 0.636555 -2.727757 3.182353 0
M  V30 38 H 3.573353 -1.264805 2.500991 0
M  V30 39 H 4.064013 0.917744 1.636742 0
M  V30 40 H 3.693677 3.147008 1.575895 0
M  V30 41 H 4.439089 2.337900 0.203156 0
M  V30 42 H 2.935706 5.019265 0.358653 0
M  V30 43 H 4.667888 4.825798 0.032217 0
M  V30 44 H 2.201598 4.248089 -3.173643 0
M  V30 45 H 1.828479 3.150358 -1.817191 0
M  V30 46 H 0.118547 4.886371 -1.895947 0
M  V30 47 H 1.170796 5.452566 -0.563511 0
M  V30 48 H 2.841262 6.019070 -3.929951 0
M  V30 49 H 3.005827 7.494544 -2.977252 0
M  V30 50 H 4.743047 5.821043 -2.437220 0
M  V30 51 H 3.801256 6.491087 -1.072130 0
M  V30 52 H 0.146005 1.142271 0.089229 0
M  V30 53 H -1.025170 -3.222652 1.704277 0
M  V30 54 H -4.520246 -5.566758 -0.350571 0
M  V30 55 H -4.366885 -7.814668 0.478277 0
M  V30 56 H -3.291033 -10.006843 1.088048 0
M  V30 57 H -3.247726 -9.967401 1.105167 0
M  V30 58 H -2.513691 -6.454397 4.044758 0
M  V30 59 H -2.671807 -4.107598 3.187112 0
M  V30 60 H -5.759837 -3.729995 0.218237 0
M  V30 61 H -6.050846 -1.527183 -0.895705 0
M  V30 62 H -1.687918 0.407765 -0.197207 0
M  V30 END ATOM
M  V30 BEGIN BOND
M  V30 1 1 1 2
M  V30 2 2 2 3
M  V30 3 1 3 4
M  V30 4 2 4 5
M  V30 5 1 5 6
M  V30 6 1 6 7
M  V30 7 1 7 8
M  V30 8 1 8 9
M  V30 9 1 9 10
M  V30 10 1 10 11
M  V30 11 1 11 12
M  V30 12 1 12 13
M  V30 13 1 13 14
M  V30 14 1 5 15
M  V30 15 2 15 16
M  V30 16 1 16 17
M  V30 17 2 17 18
M  V30 18 1 18 19
M  V30 19 2 19 20
M  V30 20 1 20 21
M  V30 21 2 21 22
M  V30 22 1 22 23
M  V30 23 2 23 24
M  V30 24 1 24 25
M  V30 25 1 25 26
M  V30 26 2 25 27
M  V30 27 1 24 28
M  V30 28 2 28 29
M  V30 29 1 20 30
M  V30 30 2 30 31
M  V30 31 1 31 32
M  V30 32 2 32 33
M  V30 33 1 33 34
M  V30 34 1 16 2
M  V30 35 1 34 17
M  V30 36 1 14 9
M  V30 37 1 33 19
M  V30 38 1 29 21
M  V30 39 1 1 35
M  V30 40 1 1 36
M  V30 41 1 1 37
M  V30 42 1 3 38
M  V30 43 1 4 39
M  V30 44 1 7 40
M  V30 45 1 7 41
M  V30 46 1 8 42
M  V30 47 1 8 43
M  V30 48 1 10 44
M  V30 49 1 10 45
M  V30 50 1 11 46
M  V30 51 1 11 47
M  V30 52 1 13 48
M  V30 53 1 13 49
M  V30 54 1 14 50
M  V30 55 1 14 51
M  V30 56 1 15 52
M  V30 57 1 18 53
M  V30 58 1 22 54
M  V30 59 1 23 55
M  V30 60 1 26 56
M  V30 61 1 26 57
M  V30 62 1 28 58
M  V30 63 1 29 59
M  V30 64 1 30 60
M  V30 65 1 31 61
M  V30 66 1 34 62
M  V30 END BOND
M  V30 END CTAB
M  END
>  <Dataset>  (107) 
ChEMBL_Kinases

>  <Ligand_Instance>  (107) 
nan

>  <PDB_ID>  (107) 
nan

>  <Standardized_SMILES>  (107) 
Cc1ccc(OCCN2CCOCC2)cc1-c1cc2c(-c3ccc(C(N)=O)cc3)ccnc2[nH]1

>  <Name>  (107) 
nan

>  <Pocket>  (107) 
nan

>  <ATP_Site>  (107) 
nan

>  <Peripheral>  (107) 
nan

>  <Num_H_Atoms_ProtBoundConf>  (107) 
nan

>  <Num_Resolved_Atoms>  (107) 
nan

>  <Num_Not_Resolved_Atoms>  (107) 
nan

$$$$
CHEMBL4127330
     RDKit          3D

  0  0  0  0  0  0  0  0  0  0999 V3000
M  V30 BEGIN CTAB
M  V30 COUNTS 58 62 0 0 0
M  V30 BEGIN ATOM
M  V30 1 C 4.340790 -2.878151 1.800169 0
M  V30 2 C 3.585099 -1.609052 1.757943 0
M  V30 3 C 4.329107 -0.466461 1.965420 0
M  V30 4 C 3.736835 0.771332 1.937851 0
M  V30 5 C 2.386332 0.832641 1.697821 0
M  V30 6 C 1.681227 2.130550 1.649888 0
M  V30 7 N 1.567773 2.721580 0.363026 0
M  V30 8 C 2.772013 3.054405 -0.309476 0
M  V30 9 C 2.705899 4.517692 -0.748400 0
M  V30 10 O 1.627907 4.747758 -1.578686 0
M  V30 11 C 0.423165 4.332086 -1.060573 0
M  V30 12 C 0.639998 3.830792 0.337686 0
M  V30 13 C 1.699567 -0.338310 1.499053 0
M  V30 14 C 2.237623 -1.600539 1.515726 0
M  V30 15 C 1.397740 -2.756314 1.312754 0
M  V30 16 C 0.057079 -2.626073 0.981421 0
M  V30 17 C -0.554093 -3.840873 0.818779 0
M  V30 18 C -1.821149 -4.280108 0.497850 0
M  V30 19 C -2.864313 -3.312090 0.258455 0
M  V30 20 C -3.232226 -2.208589 0.995791 0
M  V30 21 C -4.264681 -1.385045 0.599041 0
M  V30 22 C -4.949360 -1.669552 -0.564680 0
M  V30 23 C -6.031029 -0.757423 -0.926553 0
M  V30 24 N -6.812506 -0.940611 -2.101384 0
M  V30 25 O -6.284128 0.221860 -0.180645 0
M  V30 26 C -4.628428 -2.757977 -1.343861 0
M  V30 27 C -3.586816 -3.559649 -0.912197 0
M  V30 28 C -2.148084 -5.615723 0.401581 0
M  V30 29 C -1.106016 -6.497601 0.652014 0
M  V30 30 N 0.132495 -6.074069 0.965894 0
M  V30 31 C 0.437429 -4.766457 1.056205 0
M  V30 32 N 1.537829 -4.078314 1.335728 0
M  V30 33 H 4.182345 -3.395255 0.834895 0
M  V30 34 H 5.448576 -2.678200 1.825454 0
M  V30 35 H 4.052832 -3.490660 2.661426 0
M  V30 36 H 5.391666 -0.512884 2.154432 0
M  V30 37 H 4.346525 1.633037 2.108620 0
M  V30 38 H 2.286956 2.835048 2.290922 0
M  V30 39 H 0.679176 2.083778 2.128236 0
M  V30 40 H 2.892325 2.483455 -1.254707 0
M  V30 41 H 3.703556 2.970914 0.269080 0
M  V30 42 H 2.798358 5.203143 0.101226 0
M  V30 43 H 3.626192 4.664284 -1.382774 0
M  V30 44 H -0.252879 5.218622 -0.991607 0
M  V30 45 H -0.097171 3.594367 -1.706568 0
M  V30 46 H -0.345817 3.507836 0.787475 0
M  V30 47 H 1.032494 4.655930 0.950625 0
M  V30 48 H 0.634678 -0.191544 1.317209 0
M  V30 49 H -0.544451 -1.731792 0.837157 0
M  V30 50 H -2.644493 -2.067988 1.891182 0
M  V30 51 H -4.504581 -0.538361 1.217679 0
M  V30 52 H -6.702808 -0.970571 -3.154447 0
M  V30 53 H -6.704094 -0.970577 -3.149915 0
M  V30 54 H -5.180226 -2.957312 -2.248947 0
M  V30 55 H -3.388909 -4.404712 -1.581293 0
M  V30 56 H -3.132264 -5.986600 0.151481 0
M  V30 57 H -1.243753 -7.559249 0.605975 0
M  V30 58 H 2.397298 -4.574271 1.550804 0
M  V30 END ATOM
M  V30 BEGIN BOND
M  V30 1 1 1 2
M  V30 2 2 2 3
M  V30 3 1 3 4
M  V30 4 2 4 5
M  V30 5 1 5 6
M  V30 6 1 6 7
M  V30 7 1 7 8
M  V30 8 1 8 9
M  V30 9 1 9 10
M  V30 10 1 10 11
M  V30 11 1 11 12
M  V30 12 1 5 13
M  V30 13 2 13 14
M  V30 14 1 14 15
M  V30 15 2 15 16
M  V30 16 1 16 17
M  V30 17 2 17 18
M  V30 18 1 18 19
M  V30 19 2 19 20
M  V30 20 1 20 21
M  V30 21 2 21 22
M  V30 22 1 22 23
M  V30 23 1 23 24
M  V30 24 2 23 25
M  V30 25 1 22 26
M  V30 26 2 26 27
M  V30 27 1 18 28
M  V30 28 2 28 29
M  V30 29 1 29 30
M  V30 30 2 30 31
M  V30 31 1 31 32
M  V30 32 1 14 2
M  V30 33 1 32 15
M  V30 34 1 12 7
M  V30 35 1 31 17
M  V30 36 1 27 19
M  V30 37 1 1 33
M  V30 38 1 1 34
M  V30 39 1 1 35
M  V30 40 1 3 36
M  V30 41 1 4 37
M  V30 42 1 6 38
M  V30 43 1 6 39
M  V30 44 1 8 40
M  V30 45 1 8 41
M  V30 46 1 9 42
M  V30 47 1 9 43
M  V30 48 1 11 44
M  V30 49 1 11 45
M  V30 50 1 12 46
M  V30 51 1 12 47
M  V30 52 1 13 48
M  V30 53 1 16 49
M  V30 54 1 20 50
M  V30 55 1 21 51
M  V30 56 1 24 52
M  V30 57 1 24 53
M  V30 58 1 26 54
M  V30 59 1 27 55
M  V30 60 1 28 56
M  V30 61 1 29 57
M  V30 62 1 32 58
M  V30 END BOND
M  V30 END CTAB
M  END
>  <Dataset>  (108) 
ChEMBL_Kinases

>  <Ligand_Instance>  (108) 
nan

>  <PDB_ID>  (108) 
nan

>  <Standardized_SMILES>  (108) 
Cc1ccc(CN2CCOCC2)cc1-c1cc2c(-c3ccc(C(N)=O)cc3)ccnc2[nH]1

>  <Name>  (108) 
nan

>  <Pocket>  (108) 
nan

>  <ATP_Site>  (108) 
nan

>  <Peripheral>  (108) 
nan

>  <Num_H_Atoms_ProtBoundConf>  (108) 
nan

>  <Num_Resolved_Atoms>  (108) 
nan

>  <Num_Not_Resolved_Atoms>  (108) 
nan

$$$$
CHEMBL4793171
     RDKit          3D

  0  0  0  0  0  0  0  0  0  0999 V3000
M  V30 BEGIN CTAB
M  V30 COUNTS 52 58 0 0 0
M  V30 BEGIN ATOM
M  V30 1 C 4.639300 -1.867948 0.241303 0
M  V30 2 C 3.823025 -2.660714 -0.555072 0
M  V30 3 C 2.611672 -2.078766 -0.885311 0
M  V30 4 C 2.250588 -0.822309 -0.459787 0
M  V30 5 C 3.071197 -0.040356 0.332060 0
M  V30 6 C 4.287034 -0.605556 0.674214 0
M  V30 7 C 2.719303 1.278643 0.797269 0
M  V30 8 C 3.813852 2.135000 0.465885 0
M  V30 9 N 3.723527 3.449651 0.806511 0
M  V30 10 C 2.622918 3.967182 1.451147 0
M  V30 11 C 1.728918 2.846840 1.624938 0
M  V30 12 N 0.545255 3.198881 2.311019 0
M  V30 13 C -0.321048 2.248238 2.536540 0
M  V30 14 N 0.652091 1.837764 1.943224 0
M  V30 15 C 1.524209 1.431799 1.402887 0
M  V30 16 C -1.240016 1.229373 2.773451 0
M  V30 17 N -1.560052 1.330979 4.131961 0
M  V30 18 N -2.496723 0.330105 4.374032 0
M  V30 19 C -2.798135 -0.474497 3.068518 0
M  V30 20 C -3.677891 -1.265185 3.723246 0
M  V30 21 C -3.929519 -2.014692 2.437212 0
M  V30 22 C -3.126220 -1.409041 1.515808 0
M  V30 23 C -2.197717 -0.413927 1.280479 0
M  V30 24 C -1.958567 0.300418 2.500397 0
M  V30 25 C -3.173807 -2.011129 0.123144 0
M  V30 26 C -4.450692 -2.012920 -0.405101 0
M  V30 27 N -4.520154 -2.506439 -1.685948 0
M  V30 28 C -3.368736 -2.912587 -2.242753 0
M  V30 29 C -2.119005 -2.921748 -1.749748 0
M  V30 30 C -1.936841 -2.425239 -0.412965 0
M  V30 31 C -0.760911 -3.275644 -2.122884 0
M  V30 32 N 0.280011 -2.562593 -1.517694 0
M  V30 33 C 1.626895 -2.812438 -1.704128 0
M  V30 34 H 5.617669 -2.284157 0.540622 0
M  V30 35 H 4.134721 -3.649994 -0.875183 0
M  V30 36 H 1.333027 -0.361770 -0.695641 0
M  V30 37 H 4.936795 0.027016 1.302062 0
M  V30 38 H 4.735769 1.833712 -0.043150 0
M  V30 39 H 2.593323 5.014812 1.705036 0
M  V30 40 H -0.019880 4.034898 2.801775 0
M  V30 41 H -2.699094 0.458701 5.447045 0
M  V30 42 H -4.250864 -1.668830 4.461358 0
M  V30 43 H -4.558942 -2.860797 2.086348 0
M  V30 44 H -1.619552 -0.016690 0.523475 0
M  V30 45 H -5.265199 -1.649351 0.209000 0
M  V30 46 H -3.270544 -3.320307 -3.260978 0
M  V30 47 H -1.107880 -2.296635 0.231504 0
M  V30 48 H -0.682753 -3.209981 -3.224745 0
M  V30 49 H -0.605366 -4.352410 -1.883209 0
M  V30 50 H 0.104646 -1.536682 -1.808155 0
M  V30 51 H 1.926015 -2.653907 -2.761615 0
M  V30 52 H 1.778689 -3.895318 -1.545713 0
M  V30 END ATOM
M  V30 BEGIN BOND
M  V30 1 2 1 2
M  V30 2 1 2 3
M  V30 3 2 3 4
M  V30 4 1 4 5
M  V30 5 2 5 6
M  V30 6 1 5 7
M  V30 7 2 7 8
M  V30 8 1 8 9
M  V30 9 2 9 10
M  V30 10 1 10 11
M  V30 11 1 11 12
M  V30 12 1 12 13
M  V30 13 2 13 14
M  V30 14 1 14 15
M  V30 15 1 13 16
M  V30 16 2 16 17
M  V30 17 1 17 18
M  V30 18 1 18 19
M  V30 19 2 19 20
M  V30 20 1 20 21
M  V30 21 2 21 22
M  V30 22 1 22 23
M  V30 23 2 23 24
M  V30 24 1 22 25
M  V30 25 2 25 26
M  V30 26 1 26 27
M  V30 27 2 27 28
M  V30 28 1 28 29
M  V30 29 2 29 30
M  V30 30 1 29 31
M  V30 31 1 31 32
M  V30 32 1 32 33
M  V30 33 1 6 1
M  V30 34 1 15 7
M  V30 35 1 24 16
M  V30 36 1 30 25
M  V30 37 1 33 3
M  V30 38 2 15 11
M  V30 39 1 24 19
M  V30 40 1 1 34
M  V30 41 1 2 35
M  V30 42 1 4 36
M  V30 43 1 6 37
M  V30 44 1 8 38
M  V30 45 1 10 39
M  V30 46 1 12 40
M  V30 47 1 18 41
M  V30 48 1 20 42
M  V30 49 1 21 43
M  V30 50 1 23 44
M  V30 51 1 26 45
M  V30 52 1 28 46
M  V30 53 1 30 47
M  V30 54 1 31 48
M  V30 55 1 31 49
M  V30 56 1 32 50
M  V30 57 1 33 51
M  V30 58 1 33 52
M  V30 END BOND
M  V30 END CTAB
M  END
>  <Dataset>  (109) 
ChEMBL_Kinases

>  <Ligand_Instance>  (109) 
nan

>  <PDB_ID>  (109) 
nan

>  <Standardized_SMILES>  (109) 
c1cc2cc(c1)-c1cncc3[nH]c(nc13)-c1n[nH]c3ccc(cc13)-c1cncc(c1)CNC2

>  <Name>  (109) 
nan

>  <Pocket>  (109) 
nan

>  <ATP_Site>  (109) 
nan

>  <Peripheral>  (109) 
nan

>  <Num_H_Atoms_ProtBoundConf>  (109) 
nan

>  <Num_Resolved_Atoms>  (109) 
nan

>  <Num_Not_Resolved_Atoms>  (109) 
nan

$$$$
CHEMBL4792981
     RDKit          3D

  0  0  0  0  0  0  0  0  0  0999 V3000
M  V30 BEGIN CTAB
M  V30 COUNTS 46 49 0 0 0
M  V30 BEGIN ATOM
M  V30 1 C -2.084889 -3.791701 2.504509 0
M  V30 2 C -2.547060 -2.428072 2.127930 0 CFG=1
M  V30 3 N -1.413797 -1.571775 1.933937 0
M  V30 4 C -0.430768 -1.792963 0.930581 0
M  V30 5 C -0.493635 -2.847578 0.045633 0
M  V30 6 C 0.444189 -3.091696 -0.934439 0
M  V30 7 C 1.502378 -2.212531 -1.015660 0
M  V30 8 N 2.590789 -2.075666 -1.780243 0
M  V30 9 N 3.309845 -1.036756 -1.443636 0
M  V30 10 C 2.732208 -0.389826 -0.399284 0
M  V30 11 C 3.349738 0.789428 0.144619 0
M  V30 12 C 3.121831 1.654431 1.097938 0
M  V30 13 C 3.894785 2.819185 1.502432 0
M  V30 14 C 3.437072 3.576691 2.547415 0
M  V30 15 C 4.210204 4.669704 2.888135 0
M  V30 16 C 5.358726 4.906174 2.162989 0
M  V30 17 C 5.808947 4.135832 1.112712 0
M  V30 18 N 5.023530 3.086513 0.820775 0
M  V30 19 C 1.614233 -1.143387 -0.157925 0
M  V30 20 C 0.649199 -0.953976 0.795858 0
M  V30 21 C -3.490610 -2.377351 0.984174 0
M  V30 22 C -3.639649 -1.033124 0.611105 0
M  V30 23 C -4.480690 -0.674750 -0.449238 0
M  V30 24 F -4.684572 0.593242 -0.877058 0
M  V30 25 C -5.182861 -1.656706 -1.149261 0
M  V30 26 C -5.009057 -2.949174 -0.753905 0
M  V30 27 F -5.651947 -3.965119 -1.377921 0
M  V30 28 C -4.184350 -3.314267 0.287880 0
M  V30 29 H -2.252522 -4.001116 3.603843 0
M  V30 30 H -0.961027 -3.847673 2.420677 0
M  V30 31 H -2.454296 -4.603884 1.876547 0
M  V30 32 H -3.126906 -2.011600 3.008857 0
M  V30 33 H -1.277407 -0.720487 2.558394 0
M  V30 34 H -1.307581 -3.554735 0.075252 0
M  V30 35 H 0.408919 -3.913370 -1.634904 0
M  V30 36 H 2.874693 -2.700973 -2.566281 0
M  V30 37 H 4.283600 1.148035 -0.297507 0
M  V30 38 H 2.215356 1.417809 1.625944 0
M  V30 39 H 2.536944 3.353275 3.081922 0
M  V30 40 H 3.886509 5.293262 3.705116 0
M  V30 41 H 5.916633 5.774438 2.479445 0
M  V30 42 H 6.721318 4.395143 0.600096 0
M  V30 43 H 0.696033 -0.138425 1.481498 0
M  V30 44 H -3.178446 -0.135267 1.034340 0
M  V30 45 H -5.843378 -1.429202 -1.974252 0
M  V30 46 H -4.003934 -4.296483 0.648862 0
M  V30 END ATOM
M  V30 BEGIN BOND
M  V30 1 1 1 2
M  V30 2 1 2 3
M  V30 3 1 3 4
M  V30 4 2 4 5
M  V30 5 1 5 6
M  V30 6 2 6 7
M  V30 7 1 7 8
M  V30 8 1 8 9
M  V30 9 2 9 10
M  V30 10 1 10 11
M  V30 11 2 11 12
M  V30 12 1 12 13
M  V30 13 2 13 14
M  V30 14 1 14 15
M  V30 15 2 15 16
M  V30 16 1 16 17
M  V30 17 2 17 18
M  V30 18 1 10 19
M  V30 19 2 19 20
M  V30 20 1 2 21
M  V30 21 2 21 22
M  V30 22 1 22 23
M  V30 23 1 23 24
M  V30 24 2 23 25
M  V30 25 1 25 26
M  V30 26 1 26 27
M  V30 27 2 26 28
M  V30 28 1 20 4
M  V30 29 1 28 21
M  V30 30 1 19 7
M  V30 31 1 18 13
M  V30 32 1 1 29
M  V30 33 1 1 30
M  V30 34 1 1 31
M  V30 35 1 2 32 CFG=1
M  V30 36 1 3 33
M  V30 37 1 5 34
M  V30 38 1 6 35
M  V30 39 1 8 36
M  V30 40 1 11 37
M  V30 41 1 12 38
M  V30 42 1 14 39
M  V30 43 1 15 40
M  V30 44 1 16 41
M  V30 45 1 17 42
M  V30 46 1 20 43
M  V30 47 1 22 44
M  V30 48 1 25 45
M  V30 49 1 28 46
M  V30 END BOND
M  V30 END CTAB
M  END
>  <Dataset>  (110) 
ChEMBL_Kinases

>  <Ligand_Instance>  (110) 
nan

>  <PDB_ID>  (110) 
nan

>  <Standardized_SMILES>  (110) 
C[C@@H](Nc1ccc2[nH]nc(/C=C/c3ccccn3)c2c1)c1cc(F)cc(F)c1

>  <Name>  (110) 
nan

>  <Pocket>  (110) 
nan

>  <ATP_Site>  (110) 
nan

>  <Peripheral>  (110) 
nan

>  <Num_H_Atoms_ProtBoundConf>  (110) 
nan

>  <Num_Resolved_Atoms>  (110) 
nan

>  <Num_Not_Resolved_Atoms>  (110) 
nan

$$$$
CHEMBL4127319
     RDKit          3D

  0  0  0  0  0  0  0  0  0  0999 V3000
M  V30 BEGIN CTAB
M  V30 COUNTS 45 48 0 0 0
M  V30 BEGIN ATOM
M  V30 1 O 1.447527 -5.893968 1.511267 0
M  V30 2 C 0.520072 -5.943311 0.667944 0
M  V30 3 O -0.044462 -7.195913 0.393094 0
M  V30 4 C 0.080023 -4.716473 0.023644 0
M  V30 5 C 0.697688 -3.531572 0.384095 0
M  V30 6 C 0.313889 -2.325892 -0.218282 0
M  V30 7 C -0.692865 -2.396417 -1.170509 0
M  V30 8 C -1.012789 -1.101897 -1.791346 0
M  V30 9 C -1.974744 -0.955252 -2.794352 0
M  V30 10 C -2.189451 0.284797 -3.346727 0
M  V30 11 N -1.477716 1.307748 -2.913599 0
M  V30 12 C -0.542680 1.236669 -1.958661 0
M  V30 13 N 0.330083 2.234194 -1.463029 0
M  V30 14 C 1.154228 2.231118 -0.310694 0
M  V30 15 C 2.480193 2.677900 -0.369981 0
M  V30 16 C 3.220444 2.699485 0.786972 0
M  V30 17 C 2.659579 2.285665 1.990706 0
M  V30 18 C 1.354279 1.848838 2.041026 0
M  V30 19 C 0.920058 1.482315 3.381233 0
M  V30 20 C -0.448148 1.740868 3.548133 0
M  V30 21 C -1.011586 1.448731 4.797147 0
M  V30 22 C -0.229031 0.930621 5.793308 0
M  V30 23 C 1.130880 0.672726 5.624397 0
M  V30 24 C 1.684361 0.962796 4.393080 0
M  V30 25 C 0.588839 1.815415 0.894379 0
M  V30 26 N -0.348808 0.012790 -1.428929 0
M  V30 27 C -1.347610 -3.539867 -1.573195 0
M  V30 28 C -0.891314 -4.658746 -0.917206 0
M  V30 29 H 0.165377 -8.032001 0.957295 0
M  V30 30 H 1.481289 -3.498036 1.126105 0
M  V30 31 H 0.814081 -1.421982 0.083619 0
M  V30 32 H -2.540608 -1.799329 -3.136561 0
M  V30 33 H -2.909323 0.486902 -4.122902 0
M  V30 34 H 0.298215 3.072567 -2.112374 0
M  V30 35 H 2.918613 2.995322 -1.289086 0
M  V30 36 H 4.248274 3.043630 0.741361 0
M  V30 37 H 3.317050 2.340765 2.833722 0
M  V30 38 H -1.173897 2.143364 2.856668 0
M  V30 39 H -2.069968 1.618499 5.020478 0
M  V30 40 H -0.676713 0.702335 6.769473 0
M  V30 41 H 1.786685 0.261142 6.389396 0
M  V30 42 H 2.716255 0.820664 4.105908 0
M  V30 43 H -0.427399 1.458665 1.016545 0
M  V30 44 H -2.126519 -3.567952 -2.314128 0
M  V30 45 H -1.363518 -5.610927 -1.179288 0
M  V30 END ATOM
M  V30 BEGIN BOND
M  V30 1 2 1 2
M  V30 2 1 2 3
M  V30 3 1 2 4
M  V30 4 2 4 5
M  V30 5 1 5 6
M  V30 6 2 6 7
M  V30 7 1 7 8
M  V30 8 2 8 9
M  V30 9 1 9 10
M  V30 10 2 10 11
M  V30 11 1 11 12
M  V30 12 1 12 13
M  V30 13 1 13 14
M  V30 14 2 14 15
M  V30 15 1 15 16
M  V30 16 2 16 17
M  V30 17 1 17 18
M  V30 18 1 18 19
M  V30 19 2 19 20
M  V30 20 1 20 21
M  V30 21 2 21 22
M  V30 22 1 22 23
M  V30 23 2 23 24
M  V30 24 2 18 25
M  V30 25 2 12 26
M  V30 26 1 7 27
M  V30 27 2 27 28
M  V30 28 1 28 4
M  V30 29 1 26 8
M  V30 30 1 25 14
M  V30 31 1 24 19
M  V30 32 1 3 29
M  V30 33 1 5 30
M  V30 34 1 6 31
M  V30 35 1 9 32
M  V30 36 1 10 33
M  V30 37 1 13 34
M  V30 38 1 15 35
M  V30 39 1 16 36
M  V30 40 1 17 37
M  V30 41 1 20 38
M  V30 42 1 21 39
M  V30 43 1 22 40
M  V30 44 1 23 41
M  V30 45 1 24 42
M  V30 46 1 25 43
M  V30 47 1 27 44
M  V30 48 1 28 45
M  V30 END BOND
M  V30 END CTAB
M  END
>  <Dataset>  (111) 
ChEMBL_Kinases

>  <Ligand_Instance>  (111) 
nan

>  <PDB_ID>  (111) 
nan

>  <Standardized_SMILES>  (111) 
O=C(O)c1ccc(-c2ccnc(Nc3cccc(-c4ccccc4)c3)n2)cc1

>  <Name>  (111) 
nan

>  <Pocket>  (111) 
nan

>  <ATP_Site>  (111) 
nan

>  <Peripheral>  (111) 
nan

>  <Num_H_Atoms_ProtBoundConf>  (111) 
nan

>  <Num_Resolved_Atoms>  (111) 
nan

>  <Num_Not_Resolved_Atoms>  (111) 
nan

$$$$
CHEMBL4130169
     RDKit          3D

  0  0  0  0  0  0  0  0  0  0999 V3000
M  V30 BEGIN CTAB
M  V30 COUNTS 53 56 0 0 0
M  V30 BEGIN ATOM
M  V30 1 C -2.645763 -5.103114 -0.127462 0
M  V30 2 C -1.296557 -4.498096 0.034754 0
M  V30 3 C -0.959782 -3.330567 -0.620765 0
M  V30 4 C 0.282101 -2.733736 -0.498803 0
M  V30 5 C 1.240529 -3.314334 0.308241 0
M  V30 6 C 2.598786 -2.850066 0.570726 0
M  V30 7 C 3.727592 -3.649211 0.572830 0
M  V30 8 N 4.788129 -2.870910 0.853565 0
M  V30 9 C 4.403664 -1.584077 1.037820 0
M  V30 10 C 5.046533 -0.403637 1.337190 0
M  V30 11 C 4.330880 0.774841 1.458338 0
M  V30 12 C 2.962593 0.801204 1.284002 0
M  V30 13 C 2.135966 1.997462 1.393827 0
M  V30 14 C 2.640285 3.246400 1.687462 0
M  V30 15 N 1.884285 4.354699 1.790463 0
M  V30 16 C 0.555618 4.272877 1.601603 0
M  V30 17 C 0.019579 3.037803 1.306342 0
M  V30 18 N -1.380563 2.889946 1.096066 0
M  V30 19 C -1.963325 1.583686 0.781864 0
M  V30 20 C -3.456041 1.644054 0.597274 0
M  V30 21 N -3.903075 0.276548 0.289736 0
M  V30 22 C -5.336913 0.273904 0.101372 0
M  V30 23 C -3.309568 -0.123231 -0.987706 0
M  V30 24 N 0.802434 1.975469 1.215230 0
M  V30 25 C 2.325753 -0.385041 0.984363 0
M  V30 26 C 3.027076 -1.568142 0.860495 0
M  V30 27 C 0.901280 -4.488514 0.967258 0
M  V30 28 C -0.337169 -5.086522 0.847568 0
M  V30 29 H -3.369580 -4.684636 0.619694 0
M  V30 30 H -2.553410 -6.179892 0.157809 0
M  V30 31 H -3.058788 -4.990291 -1.146405 0
M  V30 32 H -1.682391 -2.856866 -1.253858 0
M  V30 33 H 0.599762 -1.830178 -0.981748 0
M  V30 34 H 3.739791 -4.728106 0.377741 0
M  V30 35 H 5.788935 -3.200316 0.924541 0
M  V30 36 H 6.115095 -0.449831 1.468668 0
M  V30 37 H 4.833494 1.685610 1.690183 0
M  V30 38 H 3.699254 3.370442 1.848701 0
M  V30 39 H -0.126272 5.111982 1.665254 0
M  V30 40 H -2.033496 3.702103 1.158467 0
M  V30 41 H -1.766930 0.835702 1.570036 0
M  V30 42 H -1.511398 1.169509 -0.156811 0
M  V30 43 H -3.766177 2.341743 -0.204760 0
M  V30 44 H -3.948252 1.935905 1.554730 0
M  V30 45 H -5.618941 -0.412957 -0.736754 0
M  V30 46 H -5.869397 -0.148075 0.998919 0
M  V30 47 H -5.720407 1.299520 -0.054797 0
M  V30 48 H -2.308890 -0.572315 -0.860831 0
M  V30 49 H -3.185600 0.748623 -1.664131 0
M  V30 50 H -3.975436 -0.862328 -1.481367 0
M  V30 51 H 1.241343 -0.404248 0.838893 0
M  V30 52 H 1.586475 -5.030961 1.631436 0
M  V30 53 H -0.607044 -6.003816 1.360338 0
M  V30 END ATOM
M  V30 BEGIN BOND
M  V30 1 1 1 2
M  V30 2 2 2 3
M  V30 3 1 3 4
M  V30 4 2 4 5
M  V30 5 1 5 6
M  V30 6 2 6 7
M  V30 7 1 7 8
M  V30 8 1 8 9
M  V30 9 2 9 10
M  V30 10 1 10 11
M  V30 11 2 11 12
M  V30 12 1 12 13
M  V30 13 2 13 14
M  V30 14 1 14 15
M  V30 15 2 15 16
M  V30 16 1 16 17
M  V30 17 1 17 18
M  V30 18 1 18 19
M  V30 19 1 19 20
M  V30 20 1 20 21
M  V30 21 1 21 22
M  V30 22 1 21 23
M  V30 23 2 17 24
M  V30 24 1 12 25
M  V30 25 2 25 26
M  V30 26 1 5 27
M  V30 27 2 27 28
M  V30 28 1 28 2
M  V30 29 1 26 6
M  V30 30 1 26 9
M  V30 31 1 24 13
M  V30 32 1 1 29
M  V30 33 1 1 30
M  V30 34 1 1 31
M  V30 35 1 3 32
M  V30 36 1 4 33
M  V30 37 1 7 34
M  V30 38 1 8 35
M  V30 39 1 10 36
M  V30 40 1 11 37
M  V30 41 1 14 38
M  V30 42 1 16 39
M  V30 43 1 18 40
M  V30 44 1 19 41
M  V30 45 1 19 42
M  V30 46 1 20 43
M  V30 47 1 20 44
M  V30 48 1 22 45
M  V30 49 1 22 46
M  V30 50 1 22 47
M  V30 51 1 23 48
M  V30 52 1 23 49
M  V30 53 1 23 50
M  V30 54 1 25 51
M  V30 55 1 27 52
M  V30 56 1 28 53
M  V30 END BOND
M  V30 END CTAB
M  END
>  <Dataset>  (112) 
ChEMBL_Kinases

>  <Ligand_Instance>  (112) 
nan

>  <PDB_ID>  (112) 
nan

>  <Standardized_SMILES>  (112) 
Cc1ccc(-c2c[nH]c3ccc(-c4cncc(NCCN(C)C)n4)cc23)cc1

>  <Name>  (112) 
nan

>  <Pocket>  (112) 
nan

>  <ATP_Site>  (112) 
nan

>  <Peripheral>  (112) 
nan

>  <Num_H_Atoms_ProtBoundConf>  (112) 
nan

>  <Num_Resolved_Atoms>  (112) 
nan

>  <Num_Not_Resolved_Atoms>  (112) 
nan

$$$$
CHEMBL4127140
     RDKit          3D

  0  0  0  0  0  0  0  0  0  0999 V3000
M  V30 BEGIN CTAB
M  V30 COUNTS 60 63 0 0 0
M  V30 BEGIN ATOM
M  V30 1 C 6.724840 2.101728 1.828584 0
M  V30 2 N 7.122057 1.943990 0.460608 0
M  V30 3 C 8.025352 0.834044 0.271669 0
M  V30 4 C 6.002213 1.947185 -0.454607 0
M  V30 5 C 5.432906 3.329204 -0.444786 0
M  V30 6 C 4.244259 3.491864 -1.361133 0
M  V30 7 N 3.148203 2.615781 -1.018276 0
M  V30 8 C 2.478778 2.627062 0.233123 0
M  V30 9 O 2.841907 3.446286 1.129106 0
M  V30 10 C 1.369832 1.748027 0.593912 0
M  V30 11 C 0.825219 1.865532 1.857128 0
M  V30 12 C -0.241828 1.045391 2.254335 0
M  V30 13 C -0.771347 0.104137 1.394432 0
M  V30 14 C -1.880740 -0.737641 1.836089 0
M  V30 15 C -2.520559 -1.714662 1.103602 0
M  V30 16 C -3.497684 -2.244629 1.919374 0
M  V30 17 C -4.460627 -3.225722 1.802596 0
M  V30 18 C -4.591754 -3.966167 0.569007 0
M  V30 19 C -5.922914 -4.076492 0.186342 0
M  V30 20 C -6.311912 -4.745021 -0.966601 0
M  V30 21 C -5.332815 -5.330619 -1.775810 0
M  V30 22 C -5.687256 -6.044891 -2.995423 0
M  V30 23 N -7.050397 -6.155529 -3.369616 0
M  V30 24 O -4.848600 -6.597628 -3.781824 0
M  V30 25 C -4.022839 -5.203867 -1.369695 0
M  V30 26 C -3.638591 -4.539992 -0.224898 0
M  V30 27 C -5.279871 -3.473196 2.882964 0
M  V30 28 C -5.218965 -2.815693 4.086822 0
M  V30 29 N -4.264548 -1.864793 4.159797 0
M  V30 30 C -3.440862 -1.586653 3.131988 0
M  V30 31 N -2.440999 -0.661222 3.067713 0
M  V30 32 C -0.234426 -0.021801 0.129216 0
M  V30 33 C 0.814868 0.797037 -0.237364 0
M  V30 34 H 7.373234 1.460052 2.463764 0
M  V30 35 H 6.855794 3.151242 2.153296 0
M  V30 36 H 5.685426 1.764204 2.034918 0
M  V30 37 H 8.417617 0.766695 -0.741021 0
M  V30 38 H 8.862604 1.016726 1.003063 0
M  V30 39 H 7.537899 -0.101936 0.609797 0
M  V30 40 H 6.435651 1.724730 -1.462846 0
M  V30 41 H 5.262577 1.164535 -0.239301 0
M  V30 42 H 5.103231 3.602091 0.578210 0
M  V30 43 H 6.219413 4.034070 -0.792507 0
M  V30 44 H 3.963153 4.558628 -1.426821 0
M  V30 45 H 4.596373 3.195716 -2.381372 0
M  V30 46 H 2.774158 1.901127 -1.695487 0
M  V30 47 H 1.182147 2.584854 2.606459 0
M  V30 48 H -0.642872 1.170263 3.258490 0
M  V30 49 H -2.329771 -2.035570 0.089807 0
M  V30 50 H -6.793730 -3.668372 0.721292 0
M  V30 51 H -7.334025 -4.851306 -1.295705 0
M  V30 52 H -7.658421 -6.959948 -3.610373 0
M  V30 53 H -7.532328 -5.247932 -3.409363 0
M  V30 54 H -3.226497 -5.644283 -1.969289 0
M  V30 55 H -2.634267 -4.409062 0.144799 0
M  V30 56 H -6.016618 -4.251473 2.737890 0
M  V30 57 H -5.905829 -3.079353 4.881013 0
M  V30 58 H -2.181842 -0.013927 3.870573 0
M  V30 59 H -0.644957 -0.751960 -0.538394 0
M  V30 60 H 1.217657 0.684176 -1.224391 0
M  V30 END ATOM
M  V30 BEGIN BOND
M  V30 1 1 1 2
M  V30 2 1 2 3
M  V30 3 1 2 4
M  V30 4 1 4 5
M  V30 5 1 5 6
M  V30 6 1 6 7
M  V30 7 1 7 8
M  V30 8 2 8 9
M  V30 9 1 8 10
M  V30 10 2 10 11
M  V30 11 1 11 12
M  V30 12 2 12 13
M  V30 13 1 13 14
M  V30 14 2 14 15
M  V30 15 1 15 16
M  V30 16 2 16 17
M  V30 17 1 17 18
M  V30 18 2 18 19
M  V30 19 1 19 20
M  V30 20 2 20 21
M  V30 21 1 21 22
M  V30 22 1 22 23
M  V30 23 2 22 24
M  V30 24 1 21 25
M  V30 25 2 25 26
M  V30 26 1 17 27
M  V30 27 2 27 28
M  V30 28 1 28 29
M  V30 29 2 29 30
M  V30 30 1 30 31
M  V30 31 1 13 32
M  V30 32 2 32 33
M  V30 33 1 33 10
M  V30 34 1 31 14
M  V30 35 1 30 16
M  V30 36 1 26 18
M  V30 37 1 1 34
M  V30 38 1 1 35
M  V30 39 1 1 36
M  V30 40 1 3 37
M  V30 41 1 3 38
M  V30 42 1 3 39
M  V30 43 1 4 40
M  V30 44 1 4 41
M  V30 45 1 5 42
M  V30 46 1 5 43
M  V30 47 1 6 44
M  V30 48 1 6 45
M  V30 49 1 7 46
M  V30 50 1 11 47
M  V30 51 1 12 48
M  V30 52 1 15 49
M  V30 53 1 19 50
M  V30 54 1 20 51
M  V30 55 1 23 52
M  V30 56 1 23 53
M  V30 57 1 25 54
M  V30 58 1 26 55
M  V30 59 1 27 56
M  V30 60 1 28 57
M  V30 61 1 31 58
M  V30 62 1 32 59
M  V30 63 1 33 60
M  V30 END BOND
M  V30 END CTAB
M  END
>  <Dataset>  (113) 
ChEMBL_Kinases

>  <Ligand_Instance>  (113) 
nan

>  <PDB_ID>  (113) 
nan

>  <Standardized_SMILES>  (113) 
CN(C)CCCNC(=O)c1ccc(-c2cc3c(-c4ccc(C(N)=O)cc4)ccnc3[nH]2)cc1

>  <Name>  (113) 
nan

>  <Pocket>  (113) 
nan

>  <ATP_Site>  (113) 
nan

>  <Peripheral>  (113) 
nan

>  <Num_H_Atoms_ProtBoundConf>  (113) 
nan

>  <Num_Resolved_Atoms>  (113) 
nan

>  <Num_Not_Resolved_Atoms>  (113) 
nan

$$$$
CHEMBL1614766
     RDKit          3D

  0  0  0  0  0  0  0  0  0  0999 V3000
M  V30 BEGIN CTAB
M  V30 COUNTS 51 53 0 0 0
M  V30 BEGIN ATOM
M  V30 1 O 0.693638 -2.938451 2.041280 0
M  V30 2 C 1.103324 -1.993268 1.320387 0
M  V30 3 N 2.465349 -1.599832 1.223093 0
M  V30 4 O 3.580041 -2.078853 1.813623 0
M  V30 5 C 3.747949 -1.372495 3.012022 0
M  V30 6 C 5.004978 -1.801444 3.740644 0
M  V30 7 O 5.202539 -1.121321 4.933669 0
M  V30 8 C 0.097457 -1.275869 0.549052 0
M  V30 9 C 0.343762 -0.214842 -0.295486 0
M  V30 10 C -0.593814 0.456086 -1.015452 0
M  V30 11 C -0.201769 1.593269 -1.898950 0
M  V30 12 N -0.592143 2.810823 -1.200178 0
M  V30 13 O -1.843763 3.335605 -1.404425 0
M  V30 14 C -1.686669 4.703301 -1.081154 0
M  V30 15 C -1.592519 4.785572 0.438467 0
M  V30 16 C -0.257548 4.193759 0.855338 0
M  V30 17 C 0.345677 3.444444 -0.304598 0
M  V30 18 O 1.585472 3.326682 -0.554408 0
M  V30 19 C -1.903068 0.044947 -0.894380 0
M  V30 20 F -2.860339 0.710482 -1.613114 0
M  V30 21 C -2.224844 -1.023662 -0.056204 0
M  V30 22 F -3.512895 -1.375433 0.018905 0
M  V30 23 C -1.209272 -1.662900 0.650319 0
M  V30 24 N -1.664280 -2.727026 1.461848 0
M  V30 25 C -1.738326 -4.042039 0.937442 0
M  V30 26 C -1.351177 -4.226401 -0.380577 0
M  V30 27 C -1.412998 -5.502368 -0.921190 0
M  V30 28 C -1.850287 -6.590356 -0.177776 0
M  V30 29 I -1.943755 -8.527550 -0.997318 0
M  V30 30 C -2.227354 -6.343224 1.144956 0
M  V30 31 C -2.181572 -5.087416 1.723992 0
M  V30 32 F -2.553894 -4.898497 2.998213 0
M  V30 33 H 2.826702 -0.833157 0.643198 0
M  V30 34 H 2.881815 -1.553260 3.703898 0
M  V30 35 H 3.805874 -0.279155 2.873454 0
M  V30 36 H 5.875338 -1.563680 3.079789 0
M  V30 37 H 4.925059 -2.880171 3.968533 0
M  V30 38 H 5.490663 -0.198435 4.832083 0
M  V30 39 H 1.367563 0.119320 -0.400484 0
M  V30 40 H -0.716722 1.474060 -2.867151 0
M  V30 41 H 0.888317 1.553603 -2.065127 0
M  V30 42 H -0.706833 5.081283 -1.460077 0
M  V30 43 H -2.507775 5.284810 -1.498753 0
M  V30 44 H -2.432588 4.219190 0.891262 0
M  V30 45 H -1.587717 5.842943 0.754094 0
M  V30 46 H 0.453026 4.935297 1.242882 0
M  V30 47 H -0.441099 3.460550 1.692707 0
M  V30 48 H -1.947515 -2.525486 2.464072 0
M  V30 49 H -1.001491 -3.446518 -1.025550 0
M  V30 50 H -1.114160 -5.665479 -1.950997 0
M  V30 51 H -2.578652 -7.154148 1.778788 0
M  V30 END ATOM
M  V30 BEGIN BOND
M  V30 1 2 1 2
M  V30 2 1 2 3
M  V30 3 1 3 4
M  V30 4 1 4 5
M  V30 5 1 5 6
M  V30 6 1 6 7
M  V30 7 1 2 8
M  V30 8 2 8 9
M  V30 9 1 9 10
M  V30 10 1 10 11
M  V30 11 1 11 12
M  V30 12 1 12 13
M  V30 13 1 13 14
M  V30 14 1 14 15
M  V30 15 1 15 16
M  V30 16 1 16 17
M  V30 17 2 17 18
M  V30 18 2 10 19
M  V30 19 1 19 20
M  V30 20 1 19 21
M  V30 21 1 21 22
M  V30 22 2 21 23
M  V30 23 1 23 24
M  V30 24 1 24 25
M  V30 25 2 25 26
M  V30 26 1 26 27
M  V30 27 2 27 28
M  V30 28 1 28 29
M  V30 29 1 28 30
M  V30 30 2 30 31
M  V30 31 1 31 32
M  V30 32 1 23 8
M  V30 33 1 31 25
M  V30 34 1 17 12
M  V30 35 1 3 33
M  V30 36 1 5 34
M  V30 37 1 5 35
M  V30 38 1 6 36
M  V30 39 1 6 37
M  V30 40 1 7 38
M  V30 41 1 9 39
M  V30 42 1 11 40
M  V30 43 1 11 41
M  V30 44 1 14 42
M  V30 45 1 14 43
M  V30 46 1 15 44
M  V30 47 1 15 45
M  V30 48 1 16 46
M  V30 49 1 16 47
M  V30 50 1 24 48
M  V30 51 1 26 49
M  V30 52 1 27 50
M  V30 53 1 30 51
M  V30 END BOND
M  V30 END CTAB
M  END
>  <Dataset>  (114) 
ChEMBL_Kinases

>  <Ligand_Instance>  (114) 
nan

>  <PDB_ID>  (114) 
nan

>  <Standardized_SMILES>  (114) 
O=C(NOCCO)c1cc(CN2OCCCC2=O)c(F)c(F)c1Nc1ccc(I)cc1F

>  <Name>  (114) 
RO-4987655

>  <Pocket>  (114) 
nan

>  <ATP_Site>  (114) 
nan

>  <Peripheral>  (114) 
nan

>  <Num_H_Atoms_ProtBoundConf>  (114) 
nan

>  <Num_Resolved_Atoms>  (114) 
nan

>  <Num_Not_Resolved_Atoms>  (114) 
nan

$$$$
CHEMBL4130310
     RDKit          3D

  0  0  0  0  0  0  0  0  0  0999 V3000
M  V30 BEGIN CTAB
M  V30 COUNTS 58 62 0 0 0
M  V30 BEGIN ATOM
M  V30 1 C -0.590259 0.903427 0.692175 0
M  V30 2 C 0.370041 0.294219 1.637716 0
M  V30 3 C 1.157740 1.135351 2.436893 0
M  V30 4 C 2.090719 0.729529 3.363185 0
M  V30 5 C 2.870981 1.682519 4.156482 0
M  V30 6 N 4.120756 2.089525 3.557252 0
M  V30 7 C 5.000363 0.957179 3.336217 0
M  V30 8 C 6.404884 1.488955 3.071557 0
M  V30 9 O 6.345858 2.796334 2.589447 0
M  V30 10 C 5.335502 2.811600 1.637261 0
M  V30 11 C 3.963904 2.783032 2.319388 0
M  V30 12 C 2.232544 -0.634230 3.485173 0
M  V30 13 C 1.473672 -1.483733 2.714567 0
M  V30 14 C 0.541050 -1.060971 1.788730 0
M  V30 15 C -0.208428 -2.032452 1.017447 0
M  V30 16 C -1.148509 -2.022581 0.045368 0
M  V30 17 C -1.531925 -3.282872 -0.352245 0
M  V30 18 C -2.443162 -3.718865 -1.293102 0
M  V30 19 C -3.214502 -2.813537 -2.097919 0
M  V30 20 C -2.822545 -1.709655 -2.789000 0
M  V30 21 C -3.659237 -0.914017 -3.525967 0
M  V30 22 C -4.977054 -1.273345 -3.555170 0
M  V30 23 C -5.896767 -0.443336 -4.333973 0
M  V30 24 N -7.286807 -0.754597 -4.411638 0
M  V30 25 O -5.466518 0.572464 -4.955562 0
M  V30 26 C -5.484003 -2.371986 -2.892460 0
M  V30 27 C -4.574721 -3.139327 -2.159795 0
M  V30 28 C -2.620840 -5.075461 -1.475677 0
M  V30 29 C -1.854875 -5.905287 -0.684221 0
M  V30 30 N -0.972884 -5.455488 0.226204 0
M  V30 31 C -0.781177 -4.139180 0.423441 0
M  V30 32 N -0.025131 -3.358622 1.205813 0
M  V30 33 H -0.533319 2.030392 0.862978 0
M  V30 34 H -0.344715 0.798183 -0.361427 0
M  V30 35 H -1.663679 0.704327 0.966652 0
M  V30 36 H 1.050354 2.224972 2.345291 0
M  V30 37 H 3.067495 1.260989 5.156867 0
M  V30 38 H 2.232292 2.576113 4.309142 0
M  V30 39 H 4.650425 0.480686 2.410120 0
M  V30 40 H 5.014202 0.230947 4.167526 0
M  V30 41 H 7.000635 1.535463 4.004217 0
M  V30 42 H 6.930827 0.894246 2.289070 0
M  V30 43 H 5.496553 1.878027 1.026025 0
M  V30 44 H 5.422885 3.638579 0.909390 0
M  V30 45 H 3.638461 3.818080 2.410741 0
M  V30 46 H 3.348807 2.137398 1.661627 0
M  V30 47 H 2.953238 -0.997976 4.200074 0
M  V30 48 H 1.690379 -2.545288 2.915552 0
M  V30 49 H -1.554130 -1.147897 -0.373448 0
M  V30 50 H -1.771494 -1.484326 -2.725944 0
M  V30 51 H -3.279096 -0.061458 -4.043087 0
M  V30 52 H -7.863062 -1.589426 -4.687340 0
M  V30 53 H -7.965524 0.006630 -4.134488 0
M  V30 54 H -6.530635 -2.651193 -2.919998 0
M  V30 55 H -5.013702 -4.007460 -1.644333 0
M  V30 56 H -3.301199 -5.539233 -2.177889 0
M  V30 57 H -1.898450 -6.998668 -0.728511 0
M  V30 58 H 0.618388 -3.884551 1.870871 0
M  V30 END ATOM
M  V30 BEGIN BOND
M  V30 1 1 1 2
M  V30 2 2 2 3
M  V30 3 1 3 4
M  V30 4 1 4 5
M  V30 5 1 5 6
M  V30 6 1 6 7
M  V30 7 1 7 8
M  V30 8 1 8 9
M  V30 9 1 9 10
M  V30 10 1 10 11
M  V30 11 2 4 12
M  V30 12 1 12 13
M  V30 13 2 13 14
M  V30 14 1 14 15
M  V30 15 2 15 16
M  V30 16 1 16 17
M  V30 17 2 17 18
M  V30 18 1 18 19
M  V30 19 2 19 20
M  V30 20 1 20 21
M  V30 21 2 21 22
M  V30 22 1 22 23
M  V30 23 1 23 24
M  V30 24 2 23 25
M  V30 25 1 22 26
M  V30 26 2 26 27
M  V30 27 1 18 28
M  V30 28 2 28 29
M  V30 29 1 29 30
M  V30 30 2 30 31
M  V30 31 1 31 32
M  V30 32 1 14 2
M  V30 33 1 32 15
M  V30 34 1 11 6
M  V30 35 1 31 17
M  V30 36 1 27 19
M  V30 37 1 1 33
M  V30 38 1 1 34
M  V30 39 1 1 35
M  V30 40 1 3 36
M  V30 41 1 5 37
M  V30 42 1 5 38
M  V30 43 1 7 39
M  V30 44 1 7 40
M  V30 45 1 8 41
M  V30 46 1 8 42
M  V30 47 1 10 43
M  V30 48 1 10 44
M  V30 49 1 11 45
M  V30 50 1 11 46
M  V30 51 1 12 47
M  V30 52 1 13 48
M  V30 53 1 16 49
M  V30 54 1 20 50
M  V30 55 1 21 51
M  V30 56 1 24 52
M  V30 57 1 24 53
M  V30 58 1 26 54
M  V30 59 1 27 55
M  V30 60 1 28 56
M  V30 61 1 29 57
M  V30 62 1 32 58
M  V30 END BOND
M  V30 END CTAB
M  END
>  <Dataset>  (115) 
ChEMBL_Kinases

>  <Ligand_Instance>  (115) 
nan

>  <PDB_ID>  (115) 
nan

>  <Standardized_SMILES>  (115) 
Cc1cc(CN2CCOCC2)ccc1-c1cc2c(-c3ccc(C(N)=O)cc3)ccnc2[nH]1

>  <Name>  (115) 
nan

>  <Pocket>  (115) 
nan

>  <ATP_Site>  (115) 
nan

>  <Peripheral>  (115) 
nan

>  <Num_H_Atoms_ProtBoundConf>  (115) 
nan

>  <Num_Resolved_Atoms>  (115) 
nan

>  <Num_Not_Resolved_Atoms>  (115) 
nan

$$$$
CHEMBL4168155
     RDKit          3D

  0  0  0  0  0  0  0  0  0  0999 V3000
M  V30 BEGIN CTAB
M  V30 COUNTS 56 59 0 0 0
M  V30 BEGIN ATOM
M  V30 1 C 0.468763 -2.476298 3.158453 0
M  V30 2 C 0.521346 -3.642780 2.199681 0
M  V30 3 C 1.477596 -3.375565 1.047555 0 CFG=2
M  V30 4 C 2.833218 -3.142948 1.592655 0
M  V30 5 O 3.441796 -4.163174 2.018415 0
M  V30 6 N 3.478451 -1.879732 1.667152 0
M  V30 7 C 4.727357 -1.663221 2.366551 0
M  V30 8 C 2.815826 -0.797761 0.998535 0
M  V30 9 C 3.376056 0.479374 1.023037 0
M  V30 10 N 2.775840 1.525206 0.404324 0
M  V30 11 C 1.609646 1.316644 -0.247656 0
M  V30 12 N 0.747445 2.211684 -0.979891 0
M  V30 13 C -0.555130 2.385916 -0.406285 0
M  V30 14 C -0.881077 1.808404 0.800413 0
M  V30 15 C -2.139291 1.932566 1.371381 0
M  V30 16 C -3.120292 2.666196 0.708110 0
M  V30 17 S -4.706005 2.788993 1.475213 0
M  V30 18 N -5.602888 1.391082 0.940751 0
M  V30 19 O -4.523339 2.656300 2.945946 0
M  V30 20 O -5.390139 4.041623 1.054653 0
M  V30 21 C -2.803762 3.250219 -0.503470 0
M  V30 22 C -1.542924 3.112682 -1.050298 0
M  V30 23 N 1.062322 0.091252 -0.275479 0
M  V30 24 C 1.604020 -0.984059 0.315380 0
M  V30 25 N 0.970359 -2.273969 0.255654 0
M  V30 26 C -0.169113 -2.517430 -0.560575 0
M  V30 27 C 0.068065 -3.638611 -1.577104 0
M  V30 28 C -1.250697 -3.549062 -2.354913 0
M  V30 29 C -1.631801 -2.093525 -2.348610 0
M  V30 30 C -0.577184 -1.400749 -1.472195 0
M  V30 31 H 0.520945 -1.502238 2.618635 0
M  V30 32 H 1.306745 -2.525672 3.880946 0
M  V30 33 H -0.493763 -2.563368 3.724613 0
M  V30 34 H 0.932558 -4.543098 2.736994 0
M  V30 35 H -0.476226 -3.902830 1.804257 0
M  V30 36 H 1.507431 -4.267773 0.408287 0
M  V30 37 H 4.912616 -2.449198 3.142263 0
M  V30 38 H 5.585692 -1.647368 1.652743 0
M  V30 39 H 4.762878 -0.696863 2.924969 0
M  V30 40 H 4.291139 0.697746 1.521559 0
M  V30 41 H 0.951874 2.741650 -1.862805 0
M  V30 42 H -0.190931 1.230413 1.376698 0
M  V30 43 H -2.385729 1.478072 2.311904 0
M  V30 44 H -5.531943 1.344155 -0.114213 0
M  V30 45 H -5.027230 0.555557 1.265173 0
M  V30 46 H -3.571250 3.809329 -0.992764 0
M  V30 47 H -1.291249 3.574213 -2.003155 0
M  V30 48 H -1.065271 -2.835492 0.016477 0
M  V30 49 H 0.913798 -3.347931 -2.237898 0
M  V30 50 H 0.174532 -4.615654 -1.095082 0
M  V30 51 H -1.992210 -4.148770 -1.748089 0
M  V30 52 H -1.155140 -3.986611 -3.376009 0
M  V30 53 H -1.624528 -1.627647 -3.360960 0
M  V30 54 H -2.641924 -1.981904 -1.915181 0
M  V30 55 H -1.116335 -0.576265 -0.975604 0
M  V30 56 H 0.242563 -1.077578 -2.148299 0
M  V30 END ATOM
M  V30 BEGIN BOND
M  V30 1 1 1 2
M  V30 2 1 2 3
M  V30 3 1 3 4
M  V30 4 2 4 5
M  V30 5 1 4 6
M  V30 6 1 6 7
M  V30 7 1 6 8
M  V30 8 2 8 9
M  V30 9 1 9 10
M  V30 10 2 10 11
M  V30 11 1 11 12
M  V30 12 1 12 13
M  V30 13 2 13 14
M  V30 14 1 14 15
M  V30 15 2 15 16
M  V30 16 1 16 17
M  V30 17 1 17 18
M  V30 18 2 17 19
M  V30 19 2 17 20
M  V30 20 1 16 21
M  V30 21 2 21 22
M  V30 22 1 11 23
M  V30 23 2 23 24
M  V30 24 1 24 25
M  V30 25 1 25 26
M  V30 26 1 26 27
M  V30 27 1 27 28
M  V30 28 1 28 29
M  V30 29 1 29 30
M  V30 30 1 25 3
M  V30 31 1 30 26
M  V30 32 1 24 8
M  V30 33 1 22 13
M  V30 34 1 1 31
M  V30 35 1 1 32
M  V30 36 1 1 33
M  V30 37 1 2 34
M  V30 38 1 2 35
M  V30 39 1 3 36 CFG=3
M  V30 40 1 7 37
M  V30 41 1 7 38
M  V30 42 1 7 39
M  V30 43 1 9 40
M  V30 44 1 12 41
M  V30 45 1 14 42
M  V30 46 1 15 43
M  V30 47 1 18 44
M  V30 48 1 18 45
M  V30 49 1 21 46
M  V30 50 1 22 47
M  V30 51 1 26 48
M  V30 52 1 27 49
M  V30 53 1 27 50
M  V30 54 1 28 51
M  V30 55 1 28 52
M  V30 56 1 29 53
M  V30 57 1 29 54
M  V30 58 1 30 55
M  V30 59 1 30 56
M  V30 END BOND
M  V30 END CTAB
M  END
>  <Dataset>  (116) 
ChEMBL_Kinases

>  <Ligand_Instance>  (116) 
nan

>  <PDB_ID>  (116) 
nan

>  <Standardized_SMILES>  (116) 
CC[C@@H]1C(=O)N(C)c2cnc(Nc3ccc(S(N)(=O)=O)cc3)nc2N1C1CCCC1

>  <Name>  (116) 
nan

>  <Pocket>  (116) 
nan

>  <ATP_Site>  (116) 
nan

>  <Peripheral>  (116) 
nan

>  <Num_H_Atoms_ProtBoundConf>  (116) 
nan

>  <Num_Resolved_Atoms>  (116) 
nan

>  <Num_Not_Resolved_Atoms>  (116) 
nan

$$$$
CHEMBL4126848
     RDKit          3D

  0  0  0  0  0  0  0  0  0  0999 V3000
M  V30 BEGIN CTAB
M  V30 COUNTS 50 53 0 0 0
M  V30 BEGIN ATOM
M  V30 1 C -0.103625 -2.241159 4.372155 0
M  V30 2 N 1.307368 -2.445558 4.102740 0
M  V30 3 C 2.007354 -1.389239 4.843648 0
M  V30 4 C 1.596154 -2.331622 2.680971 0
M  V30 5 C 3.062373 -2.616314 2.484074 0
M  V30 6 N 3.455038 -2.525585 1.094043 0
M  V30 7 C 3.236347 -1.187682 0.694178 0
M  V30 8 C 4.402870 -0.434135 0.875055 0
M  V30 9 N 4.456560 0.883211 0.567694 0
M  V30 10 C 3.364408 1.511834 0.070465 0
M  V30 11 C 2.216675 0.774910 -0.108436 0
M  V30 12 C 0.999507 1.370886 -0.631698 0
M  V30 13 C 0.961095 2.702278 -0.972662 0
M  V30 14 C -0.178887 3.308952 -1.471027 0
M  V30 15 C -1.338726 2.571617 -1.642773 0
M  V30 16 N -2.588084 2.841239 -2.091574 0
M  V30 17 C -3.333331 1.719609 -2.041742 0
M  V30 18 C -2.579395 0.678218 -1.553372 0
M  V30 19 C -2.994101 -0.696030 -1.336893 0
M  V30 20 C -2.835135 -1.624483 -2.343442 0
M  V30 21 C -3.183221 -2.962104 -2.272186 0
M  V30 22 C -3.741396 -3.361814 -1.053318 0
M  V30 23 C -3.932702 -2.478864 0.010418 0
M  V30 24 C -3.555357 -1.159124 -0.149512 0
M  V30 25 F -3.710050 -0.238793 0.838442 0
M  V30 26 C -1.332377 1.224333 -1.307457 0
M  V30 27 C -0.168280 0.669800 -0.814825 0
M  V30 28 N 2.158451 -0.546652 0.198250 0
M  V30 29 H -0.316257 -1.164016 4.230448 0
M  V30 30 H -0.766177 -2.867127 3.738820 0
M  V30 31 H -0.249797 -2.456508 5.460428 0
M  V30 32 H 1.309242 -0.776861 5.458679 0
M  V30 33 H 2.769852 -1.829064 5.497529 0
M  V30 34 H 2.414051 -0.666493 4.092114 0
M  V30 35 H 1.314813 -1.327745 2.295010 0
M  V30 36 H 0.962727 -3.082543 2.184347 0
M  V30 37 H 3.670240 -1.972131 3.145851 0
M  V30 38 H 3.247574 -3.656377 2.822541 0
M  V30 39 H 3.835296 -3.215105 0.407601 0
M  V30 40 H 5.367394 -0.797368 1.267025 0
M  V30 41 H 3.448177 2.555420 -0.159369 0
M  V30 42 H 1.783596 3.372793 -0.887307 0
M  V30 43 H -0.236832 4.334512 -1.741552 0
M  V30 44 H -2.905367 3.790745 -2.422840 0
M  V30 45 H -4.370150 1.686385 -2.350074 0
M  V30 46 H -2.403685 -1.339045 -3.298829 0
M  V30 47 H -3.041343 -3.656407 -3.084960 0
M  V30 48 H -4.051715 -4.401672 -0.894266 0
M  V30 49 H -4.358360 -2.811458 0.922823 0
M  V30 50 H -0.171289 -0.379100 -0.555970 0
M  V30 END ATOM
M  V30 BEGIN BOND
M  V30 1 1 1 2
M  V30 2 1 2 3
M  V30 3 1 2 4
M  V30 4 1 4 5
M  V30 5 1 5 6
M  V30 6 1 6 7
M  V30 7 2 7 8
M  V30 8 1 8 9
M  V30 9 2 9 10
M  V30 10 1 10 11
M  V30 11 1 11 12
M  V30 12 2 12 13
M  V30 13 1 13 14
M  V30 14 2 14 15
M  V30 15 1 15 16
M  V30 16 1 16 17
M  V30 17 2 17 18
M  V30 18 1 18 19
M  V30 19 2 19 20
M  V30 20 1 20 21
M  V30 21 2 21 22
M  V30 22 1 22 23
M  V30 23 2 23 24
M  V30 24 1 24 25
M  V30 25 1 18 26
M  V30 26 2 26 27
M  V30 27 2 11 28
M  V30 28 1 28 7
M  V30 29 1 27 12
M  V30 30 1 26 15
M  V30 31 1 24 19
M  V30 32 1 1 29
M  V30 33 1 1 30
M  V30 34 1 1 31
M  V30 35 1 3 32
M  V30 36 1 3 33
M  V30 37 1 3 34
M  V30 38 1 4 35
M  V30 39 1 4 36
M  V30 40 1 5 37
M  V30 41 1 5 38
M  V30 42 1 6 39
M  V30 43 1 8 40
M  V30 44 1 10 41
M  V30 45 1 13 42
M  V30 46 1 14 43
M  V30 47 1 16 44
M  V30 48 1 17 45
M  V30 49 1 20 46
M  V30 50 1 21 47
M  V30 51 1 22 48
M  V30 52 1 23 49
M  V30 53 1 27 50
M  V30 END BOND
M  V30 END CTAB
M  END
>  <Dataset>  (117) 
ChEMBL_Kinases

>  <Ligand_Instance>  (117) 
nan

>  <PDB_ID>  (117) 
nan

>  <Standardized_SMILES>  (117) 
CN(C)CCNc1cncc(-c2ccc3[nH]cc(-c4ccccc4F)c3c2)n1

>  <Name>  (117) 
nan

>  <Pocket>  (117) 
nan

>  <ATP_Site>  (117) 
nan

>  <Peripheral>  (117) 
nan

>  <Num_H_Atoms_ProtBoundConf>  (117) 
nan

>  <Num_Resolved_Atoms>  (117) 
nan

>  <Num_Not_Resolved_Atoms>  (117) 
nan

$$$$
CHEMBL4789887
     RDKit          3D

  0  0  0  0  0  0  0  0  0  0999 V3000
M  V30 BEGIN CTAB
M  V30 COUNTS 60 64 0 0 0
M  V30 BEGIN ATOM
M  V30 1 C 2.066160 -1.318407 4.746882 0
M  V30 2 N 3.307839 -1.067763 4.001071 0
M  V30 3 C 4.458951 -1.040139 4.850414 0
M  V30 4 C 5.444717 0.058495 4.526415 0
M  V30 5 C 5.951498 -0.022421 3.102376 0
M  V30 6 N 4.914906 -0.490891 2.198083 0
M  V30 7 C 4.267513 0.495363 1.406732 0
M  V30 8 C 3.230588 0.260108 0.564262 0
M  V30 9 C 2.596453 1.204757 -0.212801 0
M  V30 10 C 1.484032 0.933434 -1.110591 0
M  V30 11 O 0.974333 1.857102 -1.796198 0
M  V30 12 N 0.942993 -0.366007 -1.241125 0
M  V30 13 C -0.123449 -0.850959 -2.042384 0
M  V30 14 C -1.417651 -0.824663 -1.508490 0
M  V30 15 C -2.576441 -1.265131 -2.156435 0
M  V30 16 C -3.775580 -1.170444 -1.489439 0
M  V30 17 C -4.887689 -1.618994 -2.171585 0
M  V30 18 C -6.173208 -1.531237 -1.489346 0
M  V30 19 C -6.397742 -1.642901 -0.129712 0
M  V30 20 N -7.716514 -1.501824 0.054802 0
M  V30 21 N -8.352263 -1.308563 -1.081716 0
M  V30 22 C -9.762213 -1.110231 -1.358082 0
M  V30 23 C -7.417880 -1.320660 -2.071611 0
M  V30 24 C -4.744201 -2.125206 -3.451733 0
M  V30 25 C -3.506124 -2.204261 -4.094889 0
M  V30 26 C -2.361161 -1.756012 -3.425499 0
M  V30 27 C -1.097634 -1.792914 -3.974460 0
M  V30 28 N -0.028533 -1.350785 -3.290499 0
M  V30 29 C 3.070347 2.504284 -0.114587 0
M  V30 30 C 4.123262 2.717701 0.747333 0
M  V30 31 N 4.713697 1.765053 1.488407 0
M  V30 32 C 4.537735 -1.876935 2.079032 0
M  V30 33 C 3.441469 -2.183212 3.076436 0
M  V30 34 H 1.340877 -1.706547 3.978068 0
M  V30 35 H 1.634757 -0.386577 5.145432 0
M  V30 36 H 2.177966 -2.125733 5.483250 0
M  V30 37 H 4.995417 -1.998658 4.944105 0
M  V30 38 H 4.090674 -0.807474 5.887150 0
M  V30 39 H 6.315796 -0.110263 5.191087 0
M  V30 40 H 5.054239 1.058516 4.708158 0
M  V30 41 H 6.847301 -0.659160 2.996947 0
M  V30 42 H 6.231173 0.998112 2.772410 0
M  V30 43 H 2.843808 -0.742132 0.472694 0
M  V30 44 H 1.282700 -1.185748 -0.729788 0
M  V30 45 H -1.533498 -0.427489 -0.504919 0
M  V30 46 H -3.818705 -0.761627 -0.483293 0
M  V30 47 H -5.613753 -1.810271 0.583684 0
M  V30 48 H -10.342505 -0.996902 -0.420124 0
M  V30 49 H -10.164032 -1.962702 -1.975244 0
M  V30 50 H -9.895215 -0.209245 -2.013638 0
M  V30 51 H -7.542437 -1.196510 -3.139492 0
M  V30 52 H -5.647825 -2.470249 -3.957466 0
M  V30 53 H -3.407010 -2.595311 -5.079812 0
M  V30 54 H -0.972843 -2.189661 -4.984702 0
M  V30 55 H 2.678820 3.342770 -0.654662 0
M  V30 56 H 4.543105 3.718990 0.870736 0
M  V30 57 H 4.177088 -2.144877 1.058091 0
M  V30 58 H 5.392872 -2.555234 2.348440 0
M  V30 59 H 2.476249 -2.337667 2.526468 0
M  V30 60 H 3.623442 -3.139049 3.610223 0
M  V30 END ATOM
M  V30 BEGIN BOND
M  V30 1 1 1 2
M  V30 2 1 2 3
M  V30 3 1 3 4
M  V30 4 1 4 5
M  V30 5 1 5 6
M  V30 6 1 6 7
M  V30 7 2 7 8
M  V30 8 1 8 9
M  V30 9 1 9 10
M  V30 10 2 10 11
M  V30 11 1 10 12
M  V30 12 1 12 13
M  V30 13 2 13 14
M  V30 14 1 14 15
M  V30 15 2 15 16
M  V30 16 1 16 17
M  V30 17 1 17 18
M  V30 18 1 18 19
M  V30 19 2 19 20
M  V30 20 1 20 21
M  V30 21 1 21 22
M  V30 22 1 21 23
M  V30 23 2 17 24
M  V30 24 1 24 25
M  V30 25 2 25 26
M  V30 26 1 26 27
M  V30 27 2 27 28
M  V30 28 2 9 29
M  V30 29 1 29 30
M  V30 30 2 30 31
M  V30 31 1 6 32
M  V30 32 1 32 33
M  V30 33 1 33 2
M  V30 34 1 31 7
M  V30 35 1 28 13
M  V30 36 1 26 15
M  V30 37 2 23 18
M  V30 38 1 1 34
M  V30 39 1 1 35
M  V30 40 1 1 36
M  V30 41 1 3 37
M  V30 42 1 3 38
M  V30 43 1 4 39
M  V30 44 1 4 40
M  V30 45 1 5 41
M  V30 46 1 5 42
M  V30 47 1 8 43
M  V30 48 1 12 44
M  V30 49 1 14 45
M  V30 50 1 16 46
M  V30 51 1 19 47
M  V30 52 1 22 48
M  V30 53 1 22 49
M  V30 54 1 22 50
M  V30 55 1 23 51
M  V30 56 1 24 52
M  V30 57 1 25 53
M  V30 58 1 27 54
M  V30 59 1 29 55
M  V30 60 1 30 56
M  V30 61 1 32 57
M  V30 62 1 32 58
M  V30 63 1 33 59
M  V30 64 1 33 60
M  V30 END BOND
M  V30 END CTAB
M  END
>  <Dataset>  (118) 
ChEMBL_Kinases

>  <Ligand_Instance>  (118) 
nan

>  <PDB_ID>  (118) 
nan

>  <Standardized_SMILES>  (118) 
CN1CCCN(c2cc(C(=O)Nc3cc4cc(-c5cnn(C)c5)ccc4cn3)ccn2)CC1

>  <Name>  (118) 
nan

>  <Pocket>  (118) 
nan

>  <ATP_Site>  (118) 
nan

>  <Peripheral>  (118) 
nan

>  <Num_H_Atoms_ProtBoundConf>  (118) 
nan

>  <Num_Resolved_Atoms>  (118) 
nan

>  <Num_Not_Resolved_Atoms>  (118) 
nan

$$$$
CHEMBL4126656
     RDKit          3D

  0  0  0  0  0  0  0  0  0  0999 V3000
M  V30 BEGIN CTAB
M  V30 COUNTS 51 55 0 0 0
M  V30 BEGIN ATOM
M  V30 1 F 3.505633 -3.150627 0.184337 0
M  V30 2 C 3.163199 -2.514979 -0.974232 0
M  V30 3 C 2.588879 -3.346418 -1.917995 0
M  V30 4 C 2.193303 -2.826996 -3.143119 0
M  V30 5 C 2.384234 -1.484354 -3.390849 0
M  V30 6 C 2.954821 -0.643977 -2.460805 0
M  V30 7 C 3.350551 -1.153257 -1.240640 0
M  V30 8 C 3.970140 -0.465764 -0.112207 0
M  V30 9 C 5.302908 -0.255878 0.177616 0
M  V30 10 N 5.448836 0.427815 1.322269 0
M  V30 11 C 4.210687 0.676575 1.800484 0
M  V30 12 C 3.760092 1.337209 2.934841 0
M  V30 13 C 2.401381 1.441795 3.176049 0
M  V30 14 C 1.446170 0.920079 2.342965 0
M  V30 15 C 0.009081 1.009133 2.561923 0
M  V30 16 C -0.536687 1.635897 3.644315 0
M  V30 17 N -1.875116 1.694246 3.807132 0
M  V30 18 C -2.700449 1.126331 2.889926 0
M  V30 19 C -2.175433 0.489250 1.791060 0
M  V30 20 N -2.994504 -0.118919 0.803426 0
M  V30 21 C -4.425634 -0.030105 0.962615 0
M  V30 22 C -4.822824 -1.157818 1.905108 0
M  V30 23 C -4.684473 -2.447210 1.114317 0
M  V30 24 N -3.334542 -2.730023 0.735435 0
M  V30 25 C -2.922204 -2.135060 -0.516429 0
M  V30 26 C -2.269190 -0.778794 -0.280528 0
M  V30 27 N -0.838641 0.458310 1.674543 0
M  V30 28 C 1.936647 0.272606 1.228816 0
M  V30 29 C 3.288490 0.133705 0.930140 0
M  V30 30 H 2.424805 -4.410565 -1.752284 0
M  V30 31 H 1.749510 -3.483816 -3.864874 0
M  V30 32 H 2.094167 -1.030138 -4.328035 0
M  V30 33 H 3.145642 0.414634 -2.559184 0
M  V30 34 H 6.082928 -0.636398 -0.500585 0
M  V30 35 H 6.369371 0.704887 1.744860 0
M  V30 36 H 4.469314 1.763751 3.619288 0
M  V30 37 H 2.084119 1.962455 4.068254 0
M  V30 38 H 0.082020 2.101132 4.398499 0
M  V30 39 H -3.764127 1.193378 3.055560 0
M  V30 40 H -4.927142 -0.297430 -0.013388 0
M  V30 41 H -4.750120 0.960965 1.297223 0
M  V30 42 H -5.835570 -1.073269 2.297013 0
M  V30 43 H -4.110731 -1.172832 2.732948 0
M  V30 44 H -5.063919 -3.263831 1.759936 0
M  V30 45 H -5.278659 -2.404243 0.174373 0
M  V30 46 H -2.627269 -2.670188 1.477715 0
M  V30 47 H -3.795533 -2.047678 -1.175895 0
M  V30 48 H -2.173545 -2.787812 -1.007506 0
M  V30 49 H -1.239048 -0.953182 0.054549 0
M  V30 50 H -2.290057 -0.204579 -1.211723 0
M  V30 51 H 1.266196 -0.174720 0.507401 0
M  V30 END ATOM
M  V30 BEGIN BOND
M  V30 1 1 1 2
M  V30 2 2 2 3
M  V30 3 1 3 4
M  V30 4 2 4 5
M  V30 5 1 5 6
M  V30 6 2 6 7
M  V30 7 1 7 8
M  V30 8 2 8 9
M  V30 9 1 9 10
M  V30 10 1 10 11
M  V30 11 2 11 12
M  V30 12 1 12 13
M  V30 13 2 13 14
M  V30 14 1 14 15
M  V30 15 2 15 16
M  V30 16 1 16 17
M  V30 17 2 17 18
M  V30 18 1 18 19
M  V30 19 1 19 20
M  V30 20 1 20 21
M  V30 21 1 21 22
M  V30 22 1 22 23
M  V30 23 1 23 24
M  V30 24 1 24 25
M  V30 25 1 25 26
M  V30 26 2 19 27
M  V30 27 1 14 28
M  V30 28 2 28 29
M  V30 29 1 7 2
M  V30 30 1 29 8
M  V30 31 1 29 11
M  V30 32 1 27 15
M  V30 33 1 26 20
M  V30 34 1 3 30
M  V30 35 1 4 31
M  V30 36 1 5 32
M  V30 37 1 6 33
M  V30 38 1 9 34
M  V30 39 1 10 35
M  V30 40 1 12 36
M  V30 41 1 13 37
M  V30 42 1 16 38
M  V30 43 1 18 39
M  V30 44 1 21 40
M  V30 45 1 21 41
M  V30 46 1 22 42
M  V30 47 1 22 43
M  V30 48 1 23 44
M  V30 49 1 23 45
M  V30 50 1 24 46
M  V30 51 1 25 47
M  V30 52 1 25 48
M  V30 53 1 26 49
M  V30 54 1 26 50
M  V30 55 1 28 51
M  V30 END BOND
M  V30 END CTAB
M  END
>  <Dataset>  (119) 
ChEMBL_Kinases

>  <Ligand_Instance>  (119) 
nan

>  <PDB_ID>  (119) 
nan

>  <Standardized_SMILES>  (119) 
Fc1ccccc1-c1c[nH]c2ccc(-c3cncc(N4CCCNCC4)n3)cc12

>  <Name>  (119) 
nan

>  <Pocket>  (119) 
nan

>  <ATP_Site>  (119) 
nan

>  <Peripheral>  (119) 
nan

>  <Num_H_Atoms_ProtBoundConf>  (119) 
nan

>  <Num_Resolved_Atoms>  (119) 
nan

>  <Num_Not_Resolved_Atoms>  (119) 
nan

$$$$
CHEMBL4790085
     RDKit          3D

  0  0  0  0  0  0  0  0  0  0999 V3000
M  V30 BEGIN CTAB
M  V30 COUNTS 65 70 0 0 0
M  V30 BEGIN ATOM
M  V30 1 C 1.812859 -2.697273 4.720145 0
M  V30 2 C 2.608778 -1.919363 3.736195 0
M  V30 3 N 3.950047 -1.960920 3.659305 0
M  V30 4 C 4.369145 -1.140830 2.662010 0
M  V30 5 C 3.250768 -0.557930 2.085394 0
M  V30 6 C 3.194486 0.405744 0.982249 0
M  V30 7 C 4.421550 0.818528 0.452113 0
M  V30 8 C 4.459474 1.744370 -0.579699 0
M  V30 9 C 3.261947 2.242555 -1.064535 0
M  V30 10 N 3.013058 3.150118 -2.045389 0
M  V30 11 N 1.698352 3.272942 -2.098925 0
M  V30 12 C 1.105779 2.478451 -1.190846 0
M  V30 13 C -0.337491 2.397670 -0.995605 0
M  V30 14 N -1.036151 1.626839 -0.141783 0
M  V30 15 C -2.356303 1.884340 -0.328319 0
M  V30 16 C -3.546055 1.418944 0.245770 0
M  V30 17 C -3.345070 0.386481 1.259492 0
M  V30 18 C -3.834927 0.319021 2.543285 0
M  V30 19 C -3.548619 -0.756937 3.339902 0
M  V30 20 F -4.047944 -0.783091 4.591674 0
M  V30 21 C -2.781879 -1.795004 2.915139 0
M  V30 22 C -2.250268 -1.799813 1.627903 0
M  V30 23 N -1.445633 -2.872734 1.180074 0
M  V30 24 C -0.824453 -3.155635 -0.095524 0
M  V30 25 C -1.781191 -3.492136 -1.192611 0
M  V30 26 N -1.122966 -3.769162 -2.457068 0
M  V30 27 C -0.501287 -2.593513 -3.032375 0
M  V30 28 C -0.151150 -4.816293 -2.364590 0
M  V30 29 C -2.561740 -0.691608 0.850816 0
M  V30 30 C -4.780812 1.866653 -0.133175 0
M  V30 31 C -4.844703 2.818480 -1.127239 0
M  V30 32 N -3.704577 3.292353 -1.708464 0
M  V30 33 C -2.478452 2.846100 -1.329767 0
M  V30 34 N -1.215479 3.128701 -1.707572 0
M  V30 35 C 2.076738 1.804112 -0.509615 0
M  V30 36 N 2.050633 0.910296 0.486157 0
M  V30 37 N 2.230635 -1.071011 2.780390 0
M  V30 38 C 0.850432 -0.705649 2.492440 0
M  V30 39 H 2.167942 -2.492248 5.771940 0
M  V30 40 H 0.746826 -2.392824 4.733189 0
M  V30 41 H 1.847532 -3.778333 4.500430 0
M  V30 42 H 5.390497 -0.974356 2.371422 0
M  V30 43 H 5.377775 0.456782 0.798861 0
M  V30 44 H 5.399095 2.088183 -1.016316 0
M  V30 45 H 3.710358 3.664210 -2.653029 0
M  V30 46 H -4.438799 1.177813 2.819510 0
M  V30 47 H -2.590584 -2.623230 3.600558 0
M  V30 48 H -1.251728 -3.625078 1.909953 0
M  V30 49 H -0.068185 -3.958391 -0.023128 0
M  V30 50 H -0.245757 -2.228831 -0.346569 0
M  V30 51 H -2.426720 -4.362793 -0.953084 0
M  V30 52 H -2.458576 -2.643504 -1.372136 0
M  V30 53 H 0.452291 -2.388161 -2.506953 0
M  V30 54 H -1.145837 -1.695511 -2.969316 0
M  V30 55 H -0.256507 -2.849789 -4.086056 0
M  V30 56 H 0.129479 -5.122529 -3.393428 0
M  V30 57 H -0.534011 -5.722826 -1.851923 0
M  V30 58 H 0.747791 -4.402739 -1.865854 0
M  V30 59 H -2.142068 -0.692899 -0.134922 0
M  V30 60 H -5.636383 1.435917 0.381989 0
M  V30 61 H -5.817827 3.177079 -1.432271 0
M  V30 62 H -1.049981 3.834474 -2.459997 0
M  V30 63 H 0.595980 -0.922896 1.454768 0
M  V30 64 H 0.793508 0.400165 2.630596 0
M  V30 65 H 0.165293 -1.199286 3.189205 0
M  V30 END ATOM
M  V30 BEGIN BOND
M  V30 1 1 1 2
M  V30 2 2 2 3
M  V30 3 1 3 4
M  V30 4 2 4 5
M  V30 5 1 5 6
M  V30 6 2 6 7
M  V30 7 1 7 8
M  V30 8 2 8 9
M  V30 9 1 9 10
M  V30 10 1 10 11
M  V30 11 2 11 12
M  V30 12 1 12 13
M  V30 13 2 13 14
M  V30 14 1 14 15
M  V30 15 2 15 16
M  V30 16 1 16 17
M  V30 17 2 17 18
M  V30 18 1 18 19
M  V30 19 1 19 20
M  V30 20 2 19 21
M  V30 21 1 21 22
M  V30 22 1 22 23
M  V30 23 1 23 24
M  V30 24 1 24 25
M  V30 25 1 25 26
M  V30 26 1 26 27
M  V30 27 1 26 28
M  V30 28 2 22 29
M  V30 29 1 16 30
M  V30 30 2 30 31
M  V30 31 1 31 32
M  V30 32 2 32 33
M  V30 33 1 33 34
M  V30 34 1 12 35
M  V30 35 2 35 36
M  V30 36 1 5 37
M  V30 37 1 37 38
M  V30 38 1 37 2
M  V30 39 1 36 6
M  V30 40 1 35 9
M  V30 41 1 34 13
M  V30 42 1 33 15
M  V30 43 1 29 17
M  V30 44 1 1 39
M  V30 45 1 1 40
M  V30 46 1 1 41
M  V30 47 1 4 42
M  V30 48 1 7 43
M  V30 49 1 8 44
M  V30 50 1 10 45
M  V30 51 1 18 46
M  V30 52 1 21 47
M  V30 53 1 23 48
M  V30 54 1 24 49
M  V30 55 1 24 50
M  V30 56 1 25 51
M  V30 57 1 25 52
M  V30 58 1 27 53
M  V30 59 1 27 54
M  V30 60 1 27 55
M  V30 61 1 28 56
M  V30 62 1 28 57
M  V30 63 1 28 58
M  V30 64 1 29 59
M  V30 65 1 30 60
M  V30 66 1 31 61
M  V30 67 1 34 62
M  V30 68 1 38 63
M  V30 69 1 38 64
M  V30 70 1 38 65
M  V30 END BOND
M  V30 END CTAB
M  END
>  <Dataset>  (120) 
ChEMBL_Kinases

>  <Ligand_Instance>  (120) 
nan

>  <PDB_ID>  (120) 
nan

>  <Standardized_SMILES>  (120) 
Cc1ncc(-c2ccc3[nH]nc(-c4nc5c(-c6cc(F)cc(NCCN(C)C)c6)ccnc5[nH]4)c3n2)n1C

>  <Name>  (120) 
nan

>  <Pocket>  (120) 
nan

>  <ATP_Site>  (120) 
nan

>  <Peripheral>  (120) 
nan

>  <Num_H_Atoms_ProtBoundConf>  (120) 
nan

>  <Num_Resolved_Atoms>  (120) 
nan

>  <Num_Not_Resolved_Atoms>  (120) 
nan

$$$$
CHEMBL4786287
     RDKit          3D

  0  0  0  0  0  0  0  0  0  0999 V3000
M  V30 BEGIN CTAB
M  V30 COUNTS 65 71 0 0 0
M  V30 BEGIN ATOM
M  V30 1 O -0.124317 0.381323 5.425681 0
M  V30 2 C 0.392484 -0.743225 5.648817 0
M  V30 3 C 1.164147 -1.593231 6.562049 0
M  V30 4 C 1.648950 -0.956184 7.818910 0
M  V30 5 C 0.635381 -0.429808 8.756153 0
M  V30 6 C 0.264528 0.964718 8.527755 0
M  V30 7 N 1.105235 1.873568 7.899449 0
M  V30 8 C 2.325247 1.440622 7.345741 0
M  V30 9 C 2.732515 0.050392 7.608838 0
M  V30 10 N 0.078380 -1.513900 4.480224 0
M  V30 11 C -0.600918 -1.340326 3.237351 0
M  V30 12 C -1.923576 -1.670147 2.944615 0
M  V30 13 N -2.413508 -1.475227 1.706857 0
M  V30 14 C -1.618723 -0.947061 0.712709 0
M  V30 15 C -0.317625 -0.606580 0.946426 0
M  V30 16 C 0.599547 -0.138981 -0.092484 0
M  V30 17 C 1.875462 0.249312 0.196559 0
M  V30 18 C 2.673248 0.643710 -0.825963 0
M  V30 19 C 2.040880 0.584892 -2.037276 0
M  V30 20 N 2.642525 0.888299 -3.197716 0
M  V30 21 N 1.762328 0.680936 -4.022200 0
M  V30 22 C 0.606385 0.305088 -3.983177 0
M  V30 23 C -0.827841 -0.160528 -3.912852 0
M  V30 24 C -0.890970 -0.486419 -5.303941 0
M  V30 25 C -2.120596 -1.056782 -5.708163 0
M  V30 26 C -2.927408 -1.594330 -6.687781 0
M  V30 27 C -2.205537 -1.626323 -7.950882 0
M  V30 28 C -2.889199 -1.203416 -9.103570 0
M  V30 29 C -1.994045 -1.340895 -10.071524 0
M  V30 30 O -0.817917 -1.815978 -9.610555 0
M  V30 31 C -0.928826 -2.002996 -8.281483 0
M  V30 32 C -4.194180 -2.028156 -6.384219 0
M  V30 33 C -4.757852 -1.979858 -5.152056 0
M  V30 34 N -4.009082 -1.456882 -4.129880 0
M  V30 35 C -2.747066 -1.019014 -4.414632 0
M  V30 36 N -2.003646 -0.513617 -3.429595 0
M  V30 37 C 0.768103 0.221286 -2.502082 0
M  V30 38 N 0.113915 -0.143801 -1.313637 0
M  V30 39 C 0.166300 -0.808301 2.205283 0
M  V30 40 H 0.574062 -2.509027 6.862616 0
M  V30 41 H 2.065993 -2.029967 6.036237 0
M  V30 42 H 2.179298 -1.802141 8.407514 0
M  V30 43 H -0.278281 -1.076936 8.650497 0
M  V30 44 H 1.043193 -0.569481 9.804281 0
M  V30 45 H -0.758295 1.020236 8.049726 0
M  V30 46 H 0.043727 1.406591 9.571303 0
M  V30 47 H 0.586571 2.546127 7.299078 0
M  V30 48 H 3.136323 2.133354 7.698035 0
M  V30 49 H 2.295363 1.613209 6.240190 0
M  V30 50 H 3.343833 -0.355292 6.743102 0
M  V30 51 H 3.442329 -0.004592 8.454474 0
M  V30 52 H 0.322138 -2.540364 4.278504 0
M  V30 53 H -2.488583 -2.081437 3.769732 0
M  V30 54 H -2.096863 -0.834846 -0.217888 0
M  V30 55 H 2.300757 0.269726 1.178414 0
M  V30 56 H 3.677923 0.966072 -0.689445 0
M  V30 57 H 3.547188 1.217167 -3.584513 0
M  V30 58 H -0.328498 -0.461692 -6.258995 0
M  V30 59 H -3.761208 -0.829858 -9.561966 0
M  V30 60 H -1.451619 -1.345552 -11.111750 0
M  V30 61 H -0.183198 -2.379931 -7.554731 0
M  V30 62 H -4.645535 -2.413079 -7.319122 0
M  V30 63 H -5.757489 -2.352263 -5.054641 0
M  V30 64 H -1.937625 -0.264254 -2.450992 0
M  V30 65 H 1.164704 -0.561756 2.457383 0
M  V30 END ATOM
M  V30 BEGIN BOND
M  V30 1 2 1 2
M  V30 2 1 2 3
M  V30 3 1 3 4
M  V30 4 1 4 5
M  V30 5 1 5 6
M  V30 6 1 6 7
M  V30 7 1 7 8
M  V30 8 1 8 9
M  V30 9 1 2 10
M  V30 10 1 10 11
M  V30 11 2 11 12
M  V30 12 1 12 13
M  V30 13 2 13 14
M  V30 14 1 14 15
M  V30 15 1 15 16
M  V30 16 2 16 17
M  V30 17 1 17 18
M  V30 18 2 18 19
M  V30 19 1 19 20
M  V30 20 1 20 21
M  V30 21 2 21 22
M  V30 22 1 22 23
M  V30 23 2 23 24
M  V30 24 1 24 25
M  V30 25 2 25 26
M  V30 26 1 26 27
M  V30 27 1 27 28
M  V30 28 2 28 29
M  V30 29 1 29 30
M  V30 30 1 30 31
M  V30 31 1 26 32
M  V30 32 2 32 33
M  V30 33 1 33 34
M  V30 34 2 34 35
M  V30 35 1 35 36
M  V30 36 1 22 37
M  V30 37 2 37 38
M  V30 38 2 15 39
M  V30 39 1 9 4
M  V30 40 1 39 11
M  V30 41 1 38 16
M  V30 42 1 37 19
M  V30 43 1 36 23
M  V30 44 1 35 25
M  V30 45 2 31 27
M  V30 46 1 3 40
M  V30 47 1 3 41
M  V30 48 1 4 42
M  V30 49 1 5 43
M  V30 50 1 5 44
M  V30 51 1 6 45
M  V30 52 1 6 46
M  V30 53 1 7 47
M  V30 54 1 8 48
M  V30 55 1 8 49
M  V30 56 1 9 50
M  V30 57 1 9 51
M  V30 58 1 10 52
M  V30 59 1 12 53
M  V30 60 1 14 54
M  V30 61 1 17 55
M  V30 62 1 18 56
M  V30 63 1 20 57
M  V30 64 1 24 58
M  V30 65 1 28 59
M  V30 66 1 29 60
M  V30 67 1 31 61
M  V30 68 1 32 62
M  V30 69 1 33 63
M  V30 70 1 36 64
M  V30 71 1 39 65
M  V30 END BOND
M  V30 END CTAB
M  END
>  <Dataset>  (121) 
ChEMBL_Kinases

>  <Ligand_Instance>  (121) 
nan

>  <PDB_ID>  (121) 
nan

>  <Standardized_SMILES>  (121) 
O=C(CC1CCNCC1)Nc1cncc(-c2ccc3[nH]nc(-c4cc5c(-c6ccoc6)ccnc5[nH]4)c3n2)c1

>  <Name>  (121) 
nan

>  <Pocket>  (121) 
nan

>  <ATP_Site>  (121) 
nan

>  <Peripheral>  (121) 
nan

>  <Num_H_Atoms_ProtBoundConf>  (121) 
nan

>  <Num_Resolved_Atoms>  (121) 
nan

>  <Num_Not_Resolved_Atoms>  (121) 
nan

$$$$
CHEMBL4169454
     RDKit          3D

  0  0  0  0  0  0  0  0  0  0999 V3000
M  V30 BEGIN CTAB
M  V30 COUNTS 52 54 0 0 0
M  V30 BEGIN ATOM
M  V30 1 C 1.050198 -5.123189 2.350856 0
M  V30 2 N 0.288985 -4.425085 1.334060 0
M  V30 3 C 0.268890 -3.103221 1.107843 0
M  V30 4 C -0.560580 -2.757156 0.065183 0
M  V30 5 C -0.923481 -1.496088 -0.565082 0
M  V30 6 C -0.119864 -0.466091 -0.811321 0
M  V30 7 C 1.313249 -0.336100 -0.517265 0
M  V30 8 C 1.677096 0.998480 -1.071485 0
M  V30 9 C 2.928423 0.981023 -1.914359 0
M  V30 10 O 4.071784 0.646967 -1.224338 0
M  V30 11 C 1.826593 2.042468 0.018280 0
M  V30 12 O 0.622973 2.092235 0.764881 0
M  V30 13 C 0.493021 2.972288 1.839703 0
M  V30 14 O 1.472171 3.729064 2.137000 0
M  V30 15 C -0.815166 2.907151 2.519285 0
M  V30 16 C -1.000612 1.494343 3.028188 0
M  V30 17 C -0.803499 3.837441 3.715937 0
M  V30 18 C -1.969194 3.292224 1.610645 0
M  V30 19 O 0.605374 1.358247 -1.917911 0
M  V30 20 C -0.550656 0.773757 -1.450749 0
M  V30 21 O -1.737746 1.234847 -1.563525 0
M  V30 22 C -1.070434 -3.994315 -0.353618 0
M  V30 23 C -1.950915 -4.329890 -1.351483 0
M  V30 24 C -2.336790 -5.629951 -1.610920 0
M  V30 25 C -1.814216 -6.646975 -0.831447 0
M  V30 26 C -0.930638 -6.289704 0.166354 0
M  V30 27 C -0.536160 -4.991044 0.436186 0
M  V30 28 H 2.130995 -5.117683 2.201852 0
M  V30 29 H 0.632790 -6.155986 2.522195 0
M  V30 30 H 0.841067 -4.602046 3.331232 0
M  V30 31 H 0.832392 -2.378316 1.672966 0
M  V30 32 H -1.984373 -1.410254 -0.858143 0
M  V30 33 H 1.890788 -1.111514 -1.073082 0
M  V30 34 H 1.544208 -0.402736 0.580881 0
M  V30 35 H 3.001261 2.007354 -2.348439 0
M  V30 36 H 2.774164 0.306074 -2.779319 0
M  V30 37 H 3.863650 -0.084125 -0.599605 0
M  V30 38 H 1.937324 3.046152 -0.479810 0
M  V30 39 H 2.702742 1.794715 0.628665 0
M  V30 40 H -0.633677 1.453215 4.080154 0
M  V30 41 H -2.079532 1.206941 3.060641 0
M  V30 42 H -0.452004 0.744892 2.391273 0
M  V30 43 H -1.355872 3.369992 4.566853 0
M  V30 44 H -1.300674 4.808281 3.481730 0
M  V30 45 H 0.257805 4.004558 4.051291 0
M  V30 46 H -2.611680 4.080261 2.053787 0
M  V30 47 H -1.525412 3.665551 0.665755 0
M  V30 48 H -2.644023 2.405765 1.436782 0
M  V30 49 H -2.402417 -3.589736 -2.004612 0
M  V30 50 H -3.021430 -5.965042 -2.375526 0
M  V30 51 H -2.059079 -7.711552 -0.959072 0
M  V30 52 H -0.473481 -7.033031 0.824343 0
M  V30 END ATOM
M  V30 BEGIN BOND
M  V30 1 1 1 2
M  V30 2 1 2 3
M  V30 3 2 3 4
M  V30 4 1 4 5
M  V30 5 2 5 6
M  V30 6 1 6 7
M  V30 7 1 7 8
M  V30 8 1 8 9
M  V30 9 1 9 10
M  V30 10 1 8 11
M  V30 11 1 11 12
M  V30 12 1 12 13
M  V30 13 2 13 14
M  V30 14 1 13 15
M  V30 15 1 15 16
M  V30 16 1 15 17
M  V30 17 1 15 18
M  V30 18 1 8 19
M  V30 19 1 19 20
M  V30 20 2 20 21
M  V30 21 1 4 22
M  V30 22 2 22 23
M  V30 23 1 23 24
M  V30 24 2 24 25
M  V30 25 1 25 26
M  V30 26 2 26 27
M  V30 27 1 27 2
M  V30 28 1 20 6
M  V30 29 1 27 22
M  V30 30 1 1 28
M  V30 31 1 1 29
M  V30 32 1 1 30
M  V30 33 1 3 31
M  V30 34 1 5 32
M  V30 35 1 7 33
M  V30 36 1 7 34
M  V30 37 1 9 35
M  V30 38 1 9 36
M  V30 39 1 10 37
M  V30 40 1 11 38
M  V30 41 1 11 39
M  V30 42 1 16 40
M  V30 43 1 16 41
M  V30 44 1 16 42
M  V30 45 1 17 43
M  V30 46 1 17 44
M  V30 47 1 17 45
M  V30 48 1 18 46
M  V30 49 1 18 47
M  V30 50 1 18 48
M  V30 51 1 23 49
M  V30 52 1 24 50
M  V30 53 1 25 51
M  V30 54 1 26 52
M  V30 END BOND
M  V30 END CTAB
M  END
>  <Dataset>  (122) 
ChEMBL_Kinases

>  <Ligand_Instance>  (122) 
nan

>  <PDB_ID>  (122) 
nan

>  <Standardized_SMILES>  (122) 
Cn1cc(/C=C2\CC(CO)(COC(=O)C(C)(C)C)OC2=O)c2ccccc21

>  <Name>  (122) 
nan

>  <Pocket>  (122) 
nan

>  <ATP_Site>  (122) 
nan

>  <Peripheral>  (122) 
nan

>  <Num_H_Atoms_ProtBoundConf>  (122) 
nan

>  <Num_Resolved_Atoms>  (122) 
nan

>  <Num_Not_Resolved_Atoms>  (122) 
nan

$$$$
CHEMBL4129118
     RDKit          3D

  0  0  0  0  0  0  0  0  0  0999 V3000
M  V30 BEGIN CTAB
M  V30 COUNTS 56 59 0 0 0
M  V30 BEGIN ATOM
M  V30 1 C 0.631890 -1.371655 4.470313 0
M  V30 2 N 2.003501 -1.006047 4.169199 0
M  V30 3 C 2.837983 -2.151848 4.392831 0
M  V30 4 C 2.095119 -0.454900 2.847938 0
M  V30 5 C 3.529956 -0.078810 2.548469 0
M  V30 6 N 3.685504 0.479668 1.237289 0
M  V30 7 C 3.009047 1.662851 0.830715 0
M  V30 8 C 3.624873 2.879643 1.036736 0
M  V30 9 N 2.947074 3.984415 0.635159 0
M  V30 10 C 1.728408 3.882924 0.062482 0
M  V30 11 C 1.117088 2.663560 -0.141209 0
M  V30 12 C -0.199278 2.546144 -0.759228 0
M  V30 13 C -0.974360 3.596093 -1.203112 0
M  V30 14 C -2.213276 3.408256 -1.779218 0
M  V30 15 C -2.727605 2.137420 -1.933107 0
M  V30 16 N -3.883468 1.684100 -2.450695 0
M  V30 17 C -3.911386 0.334767 -2.367523 0
M  V30 18 C -2.736633 -0.071501 -1.779499 0
M  V30 19 C -2.342921 -1.446808 -1.493939 0
M  V30 20 C -2.552422 -2.391914 -2.502293 0
M  V30 21 C -2.208850 -3.732649 -2.325072 0
M  V30 22 C -1.645172 -4.128887 -1.113195 0
M  V30 23 S -1.185351 -5.795551 -0.810872 0
M  V30 24 C -2.600922 -6.623210 -0.097937 0
M  V30 25 O 0.010100 -5.895205 0.084538 0
M  V30 26 O -0.885065 -6.509647 -2.102032 0
M  V30 27 C -1.431125 -3.202510 -0.102985 0
M  V30 28 C -1.782595 -1.885348 -0.312061 0
M  V30 29 C -1.988789 1.055562 -1.504211 0
M  V30 30 C -0.744367 1.293944 -0.929096 0
M  V30 31 N 1.795146 1.558495 0.260511 0
M  V30 32 H 0.178085 -0.577879 5.102458 0
M  V30 33 H 0.050624 -1.525190 3.528993 0
M  V30 34 H 0.581130 -2.352373 5.020078 0
M  V30 35 H 2.607678 -2.520991 5.419238 0
M  V30 36 H 2.575309 -3.010551 3.719727 0
M  V30 37 H 3.920804 -1.921107 4.400520 0
M  V30 38 H 1.651447 -1.097174 2.066202 0
M  V30 39 H 1.528122 0.504145 2.868349 0
M  V30 40 H 3.795216 0.715125 3.282643 0
M  V30 41 H 4.229759 -0.922335 2.647888 0
M  V30 42 H 4.243563 0.187425 0.416161 0
M  V30 43 H 4.601776 2.903159 1.499942 0
M  V30 44 H 1.256483 4.800023 -0.227705 0
M  V30 45 H -0.576164 4.593665 -1.084961 0
M  V30 46 H -2.752096 4.310112 -2.100069 0
M  V30 47 H -4.633245 2.297493 -2.851299 0
M  V30 48 H -4.720354 -0.317602 -2.705823 0
M  V30 49 H -2.981896 -2.181519 -3.472380 0
M  V30 50 H -2.365069 -4.474163 -3.095742 0
M  V30 51 H -2.317997 -7.582355 0.395515 0
M  V30 52 H -3.144197 -5.954648 0.602908 0
M  V30 53 H -3.321295 -6.898209 -0.898003 0
M  V30 54 H -0.992129 -3.493738 0.849735 0
M  V30 55 H -1.622620 -1.149735 0.465120 0
M  V30 56 H -0.171533 0.441206 -0.595545 0
M  V30 END ATOM
M  V30 BEGIN BOND
M  V30 1 1 1 2
M  V30 2 1 2 3
M  V30 3 1 2 4
M  V30 4 1 4 5
M  V30 5 1 5 6
M  V30 6 1 6 7
M  V30 7 2 7 8
M  V30 8 1 8 9
M  V30 9 2 9 10
M  V30 10 1 10 11
M  V30 11 1 11 12
M  V30 12 2 12 13
M  V30 13 1 13 14
M  V30 14 2 14 15
M  V30 15 1 15 16
M  V30 16 1 16 17
M  V30 17 2 17 18
M  V30 18 1 18 19
M  V30 19 2 19 20
M  V30 20 1 20 21
M  V30 21 2 21 22
M  V30 22 1 22 23
M  V30 23 1 23 24
M  V30 24 2 23 25
M  V30 25 2 23 26
M  V30 26 1 22 27
M  V30 27 2 27 28
M  V30 28 1 18 29
M  V30 29 2 29 30
M  V30 30 2 11 31
M  V30 31 1 31 7
M  V30 32 1 30 12
M  V30 33 1 29 15
M  V30 34 1 28 19
M  V30 35 1 1 32
M  V30 36 1 1 33
M  V30 37 1 1 34
M  V30 38 1 3 35
M  V30 39 1 3 36
M  V30 40 1 3 37
M  V30 41 1 4 38
M  V30 42 1 4 39
M  V30 43 1 5 40
M  V30 44 1 5 41
M  V30 45 1 6 42
M  V30 46 1 8 43
M  V30 47 1 10 44
M  V30 48 1 13 45
M  V30 49 1 14 46
M  V30 50 1 16 47
M  V30 51 1 17 48
M  V30 52 1 20 49
M  V30 53 1 21 50
M  V30 54 1 24 51
M  V30 55 1 24 52
M  V30 56 1 24 53
M  V30 57 1 27 54
M  V30 58 1 28 55
M  V30 59 1 30 56
M  V30 END BOND
M  V30 END CTAB
M  END
>  <Dataset>  (123) 
ChEMBL_Kinases

>  <Ligand_Instance>  (123) 
nan

>  <PDB_ID>  (123) 
nan

>  <Standardized_SMILES>  (123) 
CN(C)CCNc1cncc(-c2ccc3[nH]cc(-c4ccc(S(C)(=O)=O)cc4)c3c2)n1

>  <Name>  (123) 
nan

>  <Pocket>  (123) 
nan

>  <ATP_Site>  (123) 
nan

>  <Peripheral>  (123) 
nan

>  <Num_H_Atoms_ProtBoundConf>  (123) 
nan

>  <Num_Resolved_Atoms>  (123) 
nan

>  <Num_Not_Resolved_Atoms>  (123) 
nan

$$$$
CHEMBL4791039
     RDKit          3D

  0  0  0  0  0  0  0  0  0  0999 V3000
M  V30 BEGIN CTAB
M  V30 COUNTS 45 48 0 0 0
M  V30 BEGIN ATOM
M  V30 1 C -2.726444 -5.939161 -1.691659 0
M  V30 2 C -1.746128 -5.763922 -0.588064 0
M  V30 3 N -1.121285 -6.665126 0.191778 0
M  V30 4 N -0.325808 -6.066931 1.052954 0
M  V30 5 C -0.426149 -4.735969 0.838270 0
M  V30 6 C 0.167174 -3.631049 1.430941 0
M  V30 7 C -0.135979 -2.350331 0.988991 0
M  V30 8 C -1.021543 -2.112428 -0.037905 0
M  V30 9 C -1.283144 -0.735031 -0.440465 0
M  V30 10 C -2.156869 -0.418583 -1.457649 0
M  V30 11 N -2.347492 0.874364 -1.771529 0
M  V30 12 C -1.696147 1.842224 -1.103694 0
M  V30 13 C -0.803933 1.546475 -0.067088 0
M  V30 14 N -0.104810 2.568240 0.652598 0
M  V30 15 C 0.826235 2.283063 1.728868 0 CFG=1
M  V30 16 C 1.945697 1.448725 1.212352 0
M  V30 17 C 3.144329 1.424851 2.140321 0
M  V30 18 C 3.615668 2.867153 2.222354 0 CFG=2
M  V30 19 O 4.812736 2.973058 2.918477 0
M  V30 20 C 2.563417 3.606796 2.992946 0
M  V30 21 C 1.194097 3.541685 2.397762 0
M  V30 22 N -0.629414 0.228264 0.230377 0
M  V30 23 C -1.595499 -3.227057 -0.607761 0
M  V30 24 C -1.314740 -4.511122 -0.191059 0
M  V30 25 H -3.737940 -5.625135 -1.430766 0
M  V30 26 H -2.694413 -7.007131 -1.975162 0
M  V30 27 H -2.375785 -5.359427 -2.586863 0
M  V30 28 H 0.292703 -6.504236 1.790607 0
M  V30 29 H 0.857863 -3.857176 2.234897 0
M  V30 30 H 0.390689 -1.605859 1.533386 0
M  V30 31 H -2.681684 -1.174177 -1.997581 0
M  V30 32 H -1.824233 2.891016 -1.328095 0
M  V30 33 H -0.301744 3.548401 0.358994 0
M  V30 34 H 0.238171 1.609973 2.420916 0
M  V30 35 H 2.347598 1.838820 0.237020 0
M  V30 36 H 1.632730 0.392863 1.079189 0
M  V30 37 H 3.895462 0.732299 1.743101 0
M  V30 38 H 2.772299 1.137220 3.149334 0
M  V30 39 H 3.676262 3.280932 1.202915 0
M  V30 40 H 4.756824 2.283420 3.649179 0
M  V30 41 H 2.558181 3.230483 4.038618 0
M  V30 42 H 2.907334 4.671757 3.055338 0
M  V30 43 H 0.466015 3.752227 3.211182 0
M  V30 44 H 1.110440 4.425832 1.703828 0
M  V30 45 H -2.291909 -3.083293 -1.412010 0
M  V30 END ATOM
M  V30 BEGIN BOND
M  V30 1 1 1 2
M  V30 2 2 2 3
M  V30 3 1 3 4
M  V30 4 1 4 5
M  V30 5 2 5 6
M  V30 6 1 6 7
M  V30 7 2 7 8
M  V30 8 1 8 9
M  V30 9 2 9 10
M  V30 10 1 10 11
M  V30 11 2 11 12
M  V30 12 1 12 13
M  V30 13 1 13 14
M  V30 14 1 14 15
M  V30 15 1 15 16
M  V30 16 1 16 17
M  V30 17 1 17 18
M  V30 18 1 18 19
M  V30 19 1 18 20
M  V30 20 1 20 21
M  V30 21 2 13 22
M  V30 22 1 8 23
M  V30 23 2 23 24
M  V30 24 1 24 2
M  V30 25 1 24 5
M  V30 26 1 22 9
M  V30 27 1 21 15
M  V30 28 1 1 25
M  V30 29 1 1 26
M  V30 30 1 1 27
M  V30 31 1 4 28
M  V30 32 1 6 29
M  V30 33 1 7 30
M  V30 34 1 10 31
M  V30 35 1 12 32
M  V30 36 1 14 33
M  V30 37 1 15 34 CFG=1
M  V30 38 1 16 35
M  V30 39 1 16 36
M  V30 40 1 17 37
M  V30 41 1 17 38
M  V30 42 1 18 39 CFG=3
M  V30 43 1 19 40
M  V30 44 1 20 41
M  V30 45 1 20 42
M  V30 46 1 21 43
M  V30 47 1 21 44
M  V30 48 1 23 45
M  V30 END BOND
M  V30 END CTAB
M  END
>  <Dataset>  (124) 
ChEMBL_Kinases

>  <Ligand_Instance>  (124) 
nan

>  <PDB_ID>  (124) 
nan

>  <Standardized_SMILES>  (124) 
Cc1n[nH]c2ccc(-c3cncc(N[C@H]4CC[C@H](O)CC4)n3)cc12

>  <Name>  (124) 
nan

>  <Pocket>  (124) 
nan

>  <ATP_Site>  (124) 
nan

>  <Peripheral>  (124) 
nan

>  <Num_H_Atoms_ProtBoundConf>  (124) 
nan

>  <Num_Resolved_Atoms>  (124) 
nan

>  <Num_Not_Resolved_Atoms>  (124) 
nan

$$$$
CHEMBL4788394
     RDKit          3D

  0  0  0  0  0  0  0  0  0  0999 V3000
M  V30 BEGIN CTAB
M  V30 COUNTS 65 70 0 0 0
M  V30 BEGIN ATOM
M  V30 1 C 4.936922 -3.804075 0.773871 0
M  V30 2 C 3.658736 -3.126114 0.342794 0
M  V30 3 C 3.155764 -2.453201 1.649918 0
M  V30 4 C 2.658904 -4.119635 -0.149935 0
M  V30 5 C 3.959669 -2.076649 -0.682944 0
M  V30 6 C 2.785156 -1.367254 -1.226710 0
M  V30 7 O 1.618321 -1.727780 -1.648346 0
M  V30 8 N 2.615315 -0.016814 -1.420113 0
M  V30 9 C 2.350964 1.356887 -1.654553 0
M  V30 10 C 2.947047 2.203762 -2.598635 0
M  V30 11 N 2.557218 3.490250 -2.498358 0
M  V30 12 C 1.667180 3.893105 -1.572563 0
M  V30 13 C 1.036010 3.156320 -0.635482 0
M  V30 14 C 0.309858 3.682671 0.477424 0
M  V30 15 C -0.749713 2.838374 0.919340 0
M  V30 16 C -1.900948 3.032219 1.818065 0
M  V30 17 C -3.116570 2.462343 2.392168 0
M  V30 18 C -2.985828 1.131589 1.810232 0
M  V30 19 C -2.690833 -0.029700 1.272049 0
M  V30 20 C -3.817796 -0.766515 1.100296 0
M  V30 21 C -3.901630 -2.018597 0.538634 0
M  V30 22 C -2.794904 -2.837275 0.063359 0
M  V30 23 C -1.748597 -2.730728 -0.819060 0
M  V30 24 C -0.914038 -3.824786 -1.016161 0
M  V30 25 C -1.014906 -5.056134 -0.406231 0
M  V30 26 C -2.053865 -5.237888 0.505400 0
M  V30 27 C -2.888327 -4.121270 0.690733 0
M  V30 28 F -3.859647 -4.455775 1.617302 0
M  V30 29 N -5.116966 -2.632183 0.399961 0
M  V30 30 C -6.252570 -2.051870 0.795920 0
M  V30 31 C -6.213126 -0.819821 1.357194 0
M  V30 32 C -4.987521 -0.149359 1.520894 0
M  V30 33 N -4.410865 1.036311 1.957887 0
M  V30 34 N -3.222921 3.609109 2.892416 0
M  V30 35 N -2.593121 4.642035 2.870693 0
M  V30 36 C -1.544806 4.293287 2.051249 0
M  V30 37 C -0.704005 5.369638 1.861406 0
M  V30 38 N 0.212068 4.903414 1.014019 0
M  V30 39 C 1.417134 1.807201 -0.698435 0
M  V30 40 H 5.625711 -4.006177 -0.039681 0
M  V30 41 H 4.679158 -4.701323 1.400216 0
M  V30 42 H 5.476146 -3.107010 1.486967 0
M  V30 43 H 3.522455 -1.381920 1.705642 0
M  V30 44 H 3.582838 -2.914012 2.543276 0
M  V30 45 H 2.053760 -2.481266 1.731243 0
M  V30 46 H 2.968635 -5.139314 0.210255 0
M  V30 47 H 2.590028 -4.182951 -1.256330 0
M  V30 48 H 1.630228 -3.916694 0.273440 0
M  V30 49 H 4.727018 -1.374936 -0.264253 0
M  V30 50 H 4.506348 -2.607283 -1.536423 0
M  V30 51 H 3.557004 0.280509 -1.009941 0
M  V30 52 H 3.587346 1.596857 -3.185786 0
M  V30 53 H 1.456313 4.953738 -1.604079 0
M  V30 54 H -0.714936 1.812014 0.467770 0
M  V30 55 H -1.662665 -0.099609 1.131436 0
M  V30 56 H -1.733773 -1.760698 -1.244904 0
M  V30 57 H -0.142288 -3.708789 -1.724921 0
M  V30 58 H -0.321231 -5.859349 -0.636255 0
M  V30 59 H -2.154960 -6.191224 0.989309 0
M  V30 60 H -7.222759 -2.492884 0.702491 0
M  V30 61 H -7.030052 -0.237358 1.713753 0
M  V30 62 H -5.288413 1.597990 2.318785 0
M  V30 63 H -3.098559 5.360352 3.505732 0
M  V30 64 H -0.666477 6.379856 2.223991 0
M  V30 65 H 0.989295 1.088584 0.037354 0
M  V30 END ATOM
M  V30 BEGIN BOND
M  V30 1 1 1 2
M  V30 2 1 2 3
M  V30 3 1 2 4
M  V30 4 1 2 5
M  V30 5 1 5 6
M  V30 6 2 6 7
M  V30 7 1 6 8
M  V30 8 1 8 9
M  V30 9 2 9 10
M  V30 10 1 10 11
M  V30 11 2 11 12
M  V30 12 1 12 13
M  V30 13 1 13 14
M  V30 14 2 14 15
M  V30 15 1 15 16
M  V30 16 1 16 17
M  V30 17 1 17 18
M  V30 18 2 18 19
M  V30 19 1 19 20
M  V30 20 2 20 21
M  V30 21 1 21 22
M  V30 22 2 22 23
M  V30 23 1 23 24
M  V30 24 2 24 25
M  V30 25 1 25 26
M  V30 26 2 26 27
M  V30 27 1 27 28
M  V30 28 1 21 29
M  V30 29 2 29 30
M  V30 30 1 30 31
M  V30 31 2 31 32
M  V30 32 1 32 33
M  V30 33 2 17 34
M  V30 34 1 34 35
M  V30 35 1 35 36
M  V30 36 1 36 37
M  V30 37 2 37 38
M  V30 38 2 13 39
M  V30 39 1 39 9
M  V30 40 1 38 14
M  V30 41 2 36 16
M  V30 42 1 33 18
M  V30 43 1 32 20
M  V30 44 1 27 22
M  V30 45 1 1 40
M  V30 46 1 1 41
M  V30 47 1 1 42
M  V30 48 1 3 43
M  V30 49 1 3 44
M  V30 50 1 3 45
M  V30 51 1 4 46
M  V30 52 1 4 47
M  V30 53 1 4 48
M  V30 54 1 5 49
M  V30 55 1 5 50
M  V30 56 1 8 51
M  V30 57 1 10 52
M  V30 58 1 12 53
M  V30 59 1 15 54
M  V30 60 1 19 55
M  V30 61 1 23 56
M  V30 62 1 24 57
M  V30 63 1 25 58
M  V30 64 1 26 59
M  V30 65 1 30 60
M  V30 66 1 31 61
M  V30 67 1 33 62
M  V30 68 1 35 63
M  V30 69 1 37 64
M  V30 70 1 39 65
M  V30 END BOND
M  V30 END CTAB
M  END
>  <Dataset>  (125) 
ChEMBL_Kinases

>  <Ligand_Instance>  (125) 
nan

>  <PDB_ID>  (125) 
nan

>  <Standardized_SMILES>  (125) 
CC(C)(C)CC(=O)Nc1cncc(-c2cc3c(-c4cc5c(-c6ccccc6F)nccc5[nH]4)n[nH]c3cn2)c1

>  <Name>  (125) 
nan

>  <Pocket>  (125) 
nan

>  <ATP_Site>  (125) 
nan

>  <Peripheral>  (125) 
nan

>  <Num_H_Atoms_ProtBoundConf>  (125) 
nan

>  <Num_Resolved_Atoms>  (125) 
nan

>  <Num_Not_Resolved_Atoms>  (125) 
nan

$$$$
CHEMBL4160611
     RDKit          3D

  0  0  0  0  0  0  0  0  0  0999 V3000
M  V30 BEGIN CTAB
M  V30 COUNTS 69 73 0 0 0
M  V30 BEGIN ATOM
M  V30 1 C 6.636738 -2.589422 7.103492 0
M  V30 2 C 7.204965 -2.706813 5.725411 0
M  V30 3 C 6.347888 -2.031692 4.659835 0
M  V30 4 C 4.998856 -2.666121 4.652115 0
M  V30 5 N 4.071363 -2.130744 3.688483 0
M  V30 6 C 3.651156 -0.773746 3.672276 0
M  V30 7 O 4.179692 -0.077948 4.600067 0
M  V30 8 C 2.712673 -0.212328 2.703545 0
M  V30 9 C 2.115916 -0.908478 1.672090 0
M  V30 10 C 1.236479 -0.297591 0.799789 0
M  V30 11 C 0.956406 1.043521 0.975740 0
M  V30 12 C 1.527156 1.784700 1.992011 0
M  V30 13 C 1.007623 3.057142 1.837443 0
M  V30 14 C 0.147069 3.052285 0.745411 0
M  V30 15 N 0.133299 1.810108 0.236466 0
M  V30 16 C -0.685207 1.556129 -0.900169 0
M  V30 17 N -0.337233 2.102780 -2.056821 0
M  V30 18 C -1.041951 1.930665 -3.205912 0
M  V30 19 C -2.161832 1.125248 -3.045791 0
M  V30 20 C -2.536716 0.540780 -1.820047 0
M  V30 21 N -1.764641 0.779377 -0.745671 0
M  V30 22 N -3.723521 -0.302760 -1.816050 0
M  V30 23 C -3.664722 -1.434918 -0.965608 0
M  V30 24 C -3.748890 -2.721671 -1.811791 0
M  V30 25 C -2.374651 -3.354387 -1.770281 0
M  V30 26 C -1.473916 -2.336346 -1.054884 0
M  V30 27 C -2.512644 -1.726152 -0.140882 0
M  V30 28 C -4.773638 0.123698 -2.702824 0 CFG=2
M  V30 29 C -6.082806 -0.524782 -2.623930 0
M  V30 30 C -6.707865 -0.330265 -1.265330 0
M  V30 31 C -4.153720 0.107299 -4.078095 0
M  V30 32 O -4.512812 -0.509760 -5.113399 0
M  V30 33 N -2.967393 0.923786 -4.232080 0
M  V30 34 C -2.548884 1.529888 -5.511395 0
M  V30 35 C 2.403880 1.126172 2.841976 0
M  V30 36 H 7.400838 -3.020385 7.789993 0
M  V30 37 H 5.711423 -3.133906 7.289044 0
M  V30 38 H 6.460622 -1.507395 7.327710 0
M  V30 39 H 7.358652 -3.776999 5.477264 0
M  V30 40 H 8.173792 -2.149691 5.726283 0
M  V30 41 H 6.859738 -2.318008 3.693352 0
M  V30 42 H 6.336394 -0.950117 4.790525 0
M  V30 43 H 4.565252 -2.662168 5.673394 0
M  V30 44 H 5.152818 -3.737541 4.408043 0
M  V30 45 H 3.646837 -2.739258 2.925268 0
M  V30 46 H 2.357698 -1.944744 1.568239 0
M  V30 47 H 0.792209 -0.876505 0.007533 0
M  V30 48 H 1.302753 3.842322 2.522012 0
M  V30 49 H -0.357741 3.959169 0.464684 0
M  V30 50 H -0.785442 2.361457 -4.162499 0
M  V30 51 H -4.575119 -1.466007 -0.337411 0
M  V30 52 H -3.934830 -2.497293 -2.880207 0
M  V30 53 H -4.452893 -3.456116 -1.373026 0
M  V30 54 H -2.356179 -4.321818 -1.222625 0
M  V30 55 H -1.966034 -3.573965 -2.772165 0
M  V30 56 H -0.678080 -2.876894 -0.532491 0
M  V30 57 H -1.083122 -1.697816 -1.833877 0
M  V30 58 H -2.154951 -1.051480 0.618717 0
M  V30 59 H -2.817826 -2.638329 0.482764 0
M  V30 60 H -4.998173 1.235700 -2.545214 0
M  V30 61 H -6.135671 -1.611790 -2.815757 0
M  V30 62 H -6.767126 -0.070131 -3.390053 0
M  V30 63 H -7.658023 0.248838 -1.380444 0
M  V30 64 H -6.045539 0.337874 -0.682340 0
M  V30 65 H -6.886212 -1.278360 -0.717608 0
M  V30 66 H -1.573500 1.065428 -5.839418 0
M  V30 67 H -2.396386 2.603882 -5.402313 0
M  V30 68 H -3.292409 1.225232 -6.253908 0
M  V30 69 H 2.846949 1.713384 3.635663 0
M  V30 END ATOM
M  V30 BEGIN BOND
M  V30 1 1 1 2
M  V30 2 1 2 3
M  V30 3 1 3 4
M  V30 4 1 4 5
M  V30 5 1 5 6
M  V30 6 2 6 7
M  V30 7 1 6 8
M  V30 8 2 8 9
M  V30 9 1 9 10
M  V30 10 2 10 11
M  V30 11 1 11 12
M  V30 12 1 12 13
M  V30 13 2 13 14
M  V30 14 1 14 15
M  V30 15 1 15 16
M  V30 16 2 16 17
M  V30 17 1 17 18
M  V30 18 2 18 19
M  V30 19 1 19 20
M  V30 20 2 20 21
M  V30 21 1 20 22
M  V30 22 1 22 23
M  V30 23 1 23 24
M  V30 24 1 24 25
M  V30 25 1 25 26
M  V30 26 1 26 27
M  V30 27 1 22 28
M  V30 28 1 28 29
M  V30 29 1 29 30
M  V30 30 1 28 31
M  V30 31 2 31 32
M  V30 32 1 31 33
M  V30 33 1 33 34
M  V30 34 2 12 35
M  V30 35 1 35 8
M  V30 36 1 15 11
M  V30 37 1 21 16
M  V30 38 1 27 23
M  V30 39 1 33 19
M  V30 40 1 1 36
M  V30 41 1 1 37
M  V30 42 1 1 38
M  V30 43 1 2 39
M  V30 44 1 2 40
M  V30 45 1 3 41
M  V30 46 1 3 42
M  V30 47 1 4 43
M  V30 48 1 4 44
M  V30 49 1 5 45
M  V30 50 1 9 46
M  V30 51 1 10 47
M  V30 52 1 13 48
M  V30 53 1 14 49
M  V30 54 1 18 50
M  V30 55 1 23 51
M  V30 56 1 24 52
M  V30 57 1 24 53
M  V30 58 1 25 54
M  V30 59 1 25 55
M  V30 60 1 26 56
M  V30 61 1 26 57
M  V30 62 1 27 58
M  V30 63 1 27 59
M  V30 64 1 28 60 CFG=1
M  V30 65 1 29 61
M  V30 66 1 29 62
M  V30 67 1 30 63
M  V30 68 1 30 64
M  V30 69 1 30 65
M  V30 70 1 34 66
M  V30 71 1 34 67
M  V30 72 1 34 68
M  V30 73 1 35 69
M  V30 END BOND
M  V30 END CTAB
M  END
>  <Dataset>  (126) 
ChEMBL_Kinases

>  <Ligand_Instance>  (126) 
nan

>  <PDB_ID>  (126) 
nan

>  <Standardized_SMILES>  (126) 
CCCCNC(=O)c1ccc2c(ccn2-c2ncc3c(n2)N(C2CCCC2)[C@H](CC)C(=O)N3C)c1

>  <Name>  (126) 
nan

>  <Pocket>  (126) 
nan

>  <ATP_Site>  (126) 
nan

>  <Peripheral>  (126) 
nan

>  <Num_H_Atoms_ProtBoundConf>  (126) 
nan

>  <Num_Resolved_Atoms>  (126) 
nan

>  <Num_Not_Resolved_Atoms>  (126) 
nan

$$$$
CHEMBL4788382
     RDKit          3D

  0  0  0  0  0  0  0  0  0  0999 V3000
M  V30 BEGIN CTAB
M  V30 COUNTS 57 62 0 0 0
M  V30 BEGIN ATOM
M  V30 1 C 6.794570 2.586048 0.033029 0
M  V30 2 C 5.815931 2.104513 -1.017307 0
M  V30 3 C 4.552283 2.858449 -0.895540 0
M  V30 4 O 4.408698 3.763882 -0.004921 0
M  V30 5 N 3.495599 2.528567 -1.820844 0
M  V30 6 C 2.228634 3.180191 -1.810861 0
M  V30 7 C 2.012308 4.320878 -2.570607 0
M  V30 8 N 0.826505 4.982200 -2.598612 0
M  V30 9 C -0.214419 4.527530 -1.857398 0
M  V30 10 C -0.072738 3.398954 -1.077619 0
M  V30 11 C -1.110713 2.807273 -0.234648 0
M  V30 12 C -2.054478 3.620751 0.357834 0
M  V30 13 C -3.027754 3.052408 1.152264 0
M  V30 14 C -3.033737 1.692764 1.333963 0
M  V30 15 N -3.821512 0.850604 2.029331 0
M  V30 16 N -3.415262 -0.393458 1.892204 0
M  V30 17 C -2.336656 -0.481341 1.103666 0
M  V30 18 C -1.626135 -1.686559 0.736797 0
M  V30 19 C -2.033059 -2.930217 1.203763 0
M  V30 20 C -1.228309 -3.940578 0.740348 0
M  V30 21 C -1.170317 -5.309105 0.875593 0
M  V30 22 C -2.152893 -5.983283 1.708001 0
M  V30 23 C -2.559197 -5.648704 2.978548 0
M  V30 24 C -3.503138 -6.354019 3.678003 0
M  V30 25 C -4.094392 -7.474516 3.085466 0
M  V30 26 C -3.697825 -7.818314 1.819503 0
M  V30 27 F -4.328792 -8.917080 1.335546 0
M  V30 28 C -2.749479 -7.101092 1.129567 0
M  V30 29 C -0.214506 -6.091668 0.265678 0
M  V30 30 C 0.700528 -5.403051 -0.505159 0
M  V30 31 N 0.664562 -4.044971 -0.654842 0
M  V30 32 C -0.286063 -3.313546 -0.042542 0
M  V30 33 N -0.569013 -2.005427 -0.005647 0
M  V30 34 C -2.121592 0.834233 0.770757 0
M  V30 35 C -1.170267 1.449415 -0.013670 0
M  V30 36 C 1.151213 2.719857 -1.051235 0
M  V30 37 H 7.749007 2.026164 -0.021229 0
M  V30 38 H 6.369279 2.413525 1.045654 0
M  V30 39 H 7.027851 3.662119 -0.110103 0
M  V30 40 H 5.620444 1.025587 -0.793168 0
M  V30 41 H 6.214467 2.254538 -2.026532 0
M  V30 42 H 3.640597 1.778553 -2.543922 0
M  V30 43 H 2.826528 4.717820 -3.180829 0
M  V30 44 H -1.202035 4.966006 -1.797669 0
M  V30 45 H -2.018636 4.686651 0.192126 0
M  V30 46 H -3.780227 3.679775 1.627212 0
M  V30 47 H -4.659014 1.099888 2.617541 0
M  V30 48 H -2.868428 -3.163234 1.852043 0
M  V30 49 H -2.081127 -4.784000 3.405512 0
M  V30 50 H -3.769750 -6.026206 4.676276 0
M  V30 51 H -4.833347 -7.986421 3.694194 0
M  V30 52 H -2.545652 -7.497312 0.145241 0
M  V30 53 H -0.177257 -7.168505 0.378102 0
M  V30 54 H 1.495383 -5.952160 -1.025720 0
M  V30 55 H 0.011933 -1.331612 -0.526001 0
M  V30 56 H -0.410445 0.877531 -0.501709 0
M  V30 57 H 1.393858 1.825951 -0.484339 0
M  V30 END ATOM
M  V30 BEGIN BOND
M  V30 1 1 1 2
M  V30 2 1 2 3
M  V30 3 2 3 4
M  V30 4 1 3 5
M  V30 5 1 5 6
M  V30 6 2 6 7
M  V30 7 1 7 8
M  V30 8 2 8 9
M  V30 9 1 9 10
M  V30 10 1 10 11
M  V30 11 2 11 12
M  V30 12 1 12 13
M  V30 13 2 13 14
M  V30 14 1 14 15
M  V30 15 1 15 16
M  V30 16 2 16 17
M  V30 17 1 17 18
M  V30 18 2 18 19
M  V30 19 1 19 20
M  V30 20 2 20 21
M  V30 21 1 21 22
M  V30 22 2 22 23
M  V30 23 1 23 24
M  V30 24 2 24 25
M  V30 25 1 25 26
M  V30 26 1 26 27
M  V30 27 2 26 28
M  V30 28 1 21 29
M  V30 29 2 29 30
M  V30 30 1 30 31
M  V30 31 2 31 32
M  V30 32 1 32 33
M  V30 33 1 17 34
M  V30 34 2 34 35
M  V30 35 2 10 36
M  V30 36 1 36 6
M  V30 37 1 35 11
M  V30 38 1 34 14
M  V30 39 1 33 18
M  V30 40 1 32 20
M  V30 41 1 28 22
M  V30 42 1 1 37
M  V30 43 1 1 38
M  V30 44 1 1 39
M  V30 45 1 2 40
M  V30 46 1 2 41
M  V30 47 1 5 42
M  V30 48 1 7 43
M  V30 49 1 9 44
M  V30 50 1 12 45
M  V30 51 1 13 46
M  V30 52 1 15 47
M  V30 53 1 19 48
M  V30 54 1 23 49
M  V30 55 1 24 50
M  V30 56 1 25 51
M  V30 57 1 28 52
M  V30 58 1 29 53
M  V30 59 1 30 54
M  V30 60 1 33 55
M  V30 61 1 35 56
M  V30 62 1 36 57
M  V30 END BOND
M  V30 END CTAB
M  END
>  <Dataset>  (127) 
ChEMBL_Kinases

>  <Ligand_Instance>  (127) 
nan

>  <PDB_ID>  (127) 
nan

>  <Standardized_SMILES>  (127) 
CCC(=O)Nc1cncc(-c2ccc3[nH]nc(-c4cc5c(-c6cccc(F)c6)ccnc5[nH]4)c3c2)c1

>  <Name>  (127) 
nan

>  <Pocket>  (127) 
nan

>  <ATP_Site>  (127) 
nan

>  <Peripheral>  (127) 
nan

>  <Num_H_Atoms_ProtBoundConf>  (127) 
nan

>  <Num_Resolved_Atoms>  (127) 
nan

>  <Num_Not_Resolved_Atoms>  (127) 
nan

$$$$
CHEMBL4163892
     RDKit          3D

  0  0  0  0  0  0  0  0  0  0999 V3000
M  V30 BEGIN CTAB
M  V30 COUNTS 60 64 0 0 0
M  V30 BEGIN ATOM
M  V30 1 C 3.689787 -2.726318 2.540516 0
M  V30 2 C 3.405679 -3.925317 1.686744 0
M  V30 3 C 3.002657 -3.526292 0.266149 0 CFG=2
M  V30 4 C 4.113003 -2.757243 -0.347250 0
M  V30 5 O 4.970823 -3.445939 -0.985232 0
M  V30 6 N 4.311081 -1.350532 -0.294113 0
M  V30 7 C 5.539506 -0.692371 -0.640883 0
M  V30 8 C 3.176924 -0.617100 0.138533 0
M  V30 9 C 3.216885 0.740469 0.237559 0
M  V30 10 N 2.118975 1.427787 0.652459 0
M  V30 11 C 0.971433 0.761237 0.971824 0
M  V30 12 N -0.156398 1.517421 1.403225 0
M  V30 13 C -0.001219 2.325671 2.489937 0
M  V30 14 C -1.189284 2.974137 2.758607 0
M  V30 15 C -2.089395 2.543986 1.804456 0
M  V30 16 C -3.433568 2.774020 1.475773 0
M  V30 17 C -4.043905 2.146800 0.407337 0
M  V30 18 C -5.448752 2.463124 0.159674 0
M  V30 19 O -6.001961 3.282879 0.937432 0
M  V30 20 N -6.185645 1.882516 -0.910098 0
M  V30 21 C -7.577151 2.288262 -1.038882 0
M  V30 22 C -3.331403 1.261170 -0.377981 0
M  V30 23 C -2.006152 1.007462 -0.087683 0
M  V30 24 C -1.428250 1.650547 0.985855 0
M  V30 25 N 0.997083 -0.571374 0.853482 0
M  V30 26 C 2.034165 -1.311014 0.454141 0
M  V30 27 N 1.786683 -2.707095 0.417623 0
M  V30 28 C 0.609638 -3.483551 0.483078 0
M  V30 29 C -0.690861 -2.863695 0.769244 0
M  V30 30 C -1.459292 -2.851348 -0.568705 0
M  V30 31 C -0.963017 -4.112767 -1.262523 0
M  V30 32 C 0.426472 -4.343823 -0.773122 0
M  V30 33 H 3.897620 -3.123819 3.570787 0
M  V30 34 H 4.548769 -2.128204 2.188274 0
M  V30 35 H 2.799220 -2.102892 2.648656 0
M  V30 36 H 2.608750 -4.517326 2.178001 0
M  V30 37 H 4.277566 -4.611535 1.624895 0
M  V30 38 H 2.784600 -4.424385 -0.341146 0
M  V30 39 H 6.396806 -1.418666 -0.620735 0
M  V30 40 H 5.837631 0.112526 0.068063 0
M  V30 41 H 5.492090 -0.308941 -1.664291 0
M  V30 42 H 4.141087 1.252861 -0.021702 0
M  V30 43 H 0.834949 2.539393 3.142647 0
M  V30 44 H -1.453988 3.688517 3.534255 0
M  V30 45 H -3.944282 3.480498 2.128651 0
M  V30 46 H -5.748441 1.212177 -1.553282 0
M  V30 47 H -8.065837 2.132151 -0.057626 0
M  V30 48 H -7.695254 3.340110 -1.367867 0
M  V30 49 H -8.056221 1.624967 -1.791011 0
M  V30 50 H -3.791139 0.772264 -1.203533 0
M  V30 51 H -1.466839 0.316559 -0.708120 0
M  V30 52 H 0.792466 -4.246613 1.302852 0
M  V30 53 H -0.747103 -1.928251 1.307279 0
M  V30 54 H -1.339880 -3.563060 1.401402 0
M  V30 55 H -2.548308 -2.844196 -0.423672 0
M  V30 56 H -1.184477 -2.012550 -1.205950 0
M  V30 57 H -0.936420 -4.009436 -2.365560 0
M  V30 58 H -1.665625 -4.914867 -1.033500 0
M  V30 59 H 1.202427 -4.007370 -1.497172 0
M  V30 60 H 0.621965 -5.416586 -0.582899 0
M  V30 END ATOM
M  V30 BEGIN BOND
M  V30 1 1 1 2
M  V30 2 1 2 3
M  V30 3 1 3 4
M  V30 4 2 4 5
M  V30 5 1 4 6
M  V30 6 1 6 7
M  V30 7 1 6 8
M  V30 8 2 8 9
M  V30 9 1 9 10
M  V30 10 2 10 11
M  V30 11 1 11 12
M  V30 12 1 12 13
M  V30 13 2 13 14
M  V30 14 1 14 15
M  V30 15 2 15 16
M  V30 16 1 16 17
M  V30 17 1 17 18
M  V30 18 2 18 19
M  V30 19 1 18 20
M  V30 20 1 20 21
M  V30 21 2 17 22
M  V30 22 1 22 23
M  V30 23 2 23 24
M  V30 24 1 11 25
M  V30 25 2 25 26
M  V30 26 1 26 27
M  V30 27 1 27 28
M  V30 28 1 28 29
M  V30 29 1 29 30
M  V30 30 1 30 31
M  V30 31 1 31 32
M  V30 32 1 27 3
M  V30 33 1 32 28
M  V30 34 1 26 8
M  V30 35 1 24 12
M  V30 36 1 24 15
M  V30 37 1 1 33
M  V30 38 1 1 34
M  V30 39 1 1 35
M  V30 40 1 2 36
M  V30 41 1 2 37
M  V30 42 1 3 38 CFG=3
M  V30 43 1 7 39
M  V30 44 1 7 40
M  V30 45 1 7 41
M  V30 46 1 9 42
M  V30 47 1 13 43
M  V30 48 1 14 44
M  V30 49 1 16 45
M  V30 50 1 20 46
M  V30 51 1 21 47
M  V30 52 1 21 48
M  V30 53 1 21 49
M  V30 54 1 22 50
M  V30 55 1 23 51
M  V30 56 1 28 52
M  V30 57 1 29 53
M  V30 58 1 29 54
M  V30 59 1 30 55
M  V30 60 1 30 56
M  V30 61 1 31 57
M  V30 62 1 31 58
M  V30 63 1 32 59
M  V30 64 1 32 60
M  V30 END BOND
M  V30 END CTAB
M  END
>  <Dataset>  (128) 
ChEMBL_Kinases

>  <Ligand_Instance>  (128) 
nan

>  <PDB_ID>  (128) 
nan

>  <Standardized_SMILES>  (128) 
CC[C@@H]1C(=O)N(C)c2cnc(-n3ccc4cc(C(=O)NC)ccc43)nc2N1C1CCCC1

>  <Name>  (128) 
nan

>  <Pocket>  (128) 
nan

>  <ATP_Site>  (128) 
nan

>  <Peripheral>  (128) 
nan

>  <Num_H_Atoms_ProtBoundConf>  (128) 
nan

>  <Num_Resolved_Atoms>  (128) 
nan

>  <Num_Not_Resolved_Atoms>  (128) 
nan

$$$$
CHEMBL4791128
     RDKit          3D

  0  0  0  0  0  0  0  0  0  0999 V3000
M  V30 BEGIN CTAB
M  V30 COUNTS 57 60 0 0 0
M  V30 BEGIN ATOM
M  V30 1 C 2.993676 -3.897121 1.945191 0
M  V30 2 C 2.117541 -3.492765 0.804075 0 CFG=1
M  V30 3 C 1.814758 -2.002511 0.854935 0
M  V30 4 C 1.236379 -1.433718 -0.373971 0 CFG=1
M  V30 5 C 1.836459 -0.181843 -0.860364 0
M  V30 6 C 2.972012 -0.031584 -1.626982 0
M  V30 7 C 3.506643 1.163078 -2.053253 0
M  V30 8 N 2.901597 2.314708 -1.716061 0
M  V30 9 C 1.784423 2.301575 -0.969317 0
M  V30 10 C 1.286885 1.081940 -0.566545 0
M  V30 11 N 0.094884 1.137329 0.225099 0
M  V30 12 C -0.029162 1.224431 1.638747 0
M  V30 13 O 1.002221 1.260517 2.334909 0
M  V30 14 C -1.360021 1.268999 2.232801 0
M  V30 15 C -1.461055 1.352921 3.608683 0
M  V30 16 C -2.664770 1.400229 4.262689 0
M  V30 17 N -3.769914 1.361443 3.504601 0
M  V30 18 C -3.718914 1.279944 2.163764 0
M  V30 19 C -4.959303 1.241669 1.397944 0
M  V30 20 C -5.575316 2.401294 0.943876 0
M  V30 21 F -4.984126 3.598322 1.235126 0
M  V30 22 C -6.763083 2.323890 0.213204 0
M  V30 23 C -7.279494 1.071034 -0.028176 0
M  V30 24 C -6.709420 -0.102366 0.398271 0
M  V30 25 C -5.527228 0.005822 1.123582 0
M  V30 26 F -4.971784 -1.175522 1.541420 0
M  V30 27 N -2.519339 1.234293 1.536510 0
M  V30 28 C 0.936781 -2.480646 -1.383917 0
M  V30 29 C 1.943555 -3.520227 -1.676115 0 CFG=1
M  V30 30 O 2.693509 -3.278574 -2.836441 0
M  V30 31 C 2.781441 -3.883918 -0.490979 0 CFG=1
M  V30 32 C 4.193088 -3.383205 -0.628935 0
M  V30 33 O 2.907050 -5.293808 -0.397347 0
M  V30 34 H 2.403485 -4.233778 2.841723 0
M  V30 35 H 3.669445 -4.750797 1.733351 0
M  V30 36 H 3.610287 -3.055882 2.324385 0
M  V30 37 H 1.179676 -4.086642 0.869072 0
M  V30 38 H 1.154753 -1.914372 1.746833 0
M  V30 39 H 2.760094 -1.529111 1.194686 0
M  V30 40 H 0.178325 -1.080822 -0.061463 0
M  V30 41 H 3.508342 -0.896342 -1.926959 0
M  V30 42 H 4.397818 1.206169 -2.650849 0
M  V30 43 H 1.302918 3.221015 -0.700932 0
M  V30 44 H -0.769794 1.104697 -0.391749 0
M  V30 45 H -0.576342 1.386835 4.261457 0
M  V30 46 H -2.744158 1.466560 5.350285 0
M  V30 47 H -7.204810 3.251121 -0.118205 0
M  V30 48 H -8.202309 1.082133 -0.600435 0
M  V30 49 H -7.201387 -1.034619 0.151902 0
M  V30 50 H 0.519280 -2.058819 -2.336781 0
M  V30 51 H 0.029172 -3.039656 -0.973543 0
M  V30 52 H 1.352287 -4.460798 -1.958787 0
M  V30 53 H 2.246343 -2.601005 -3.413370 0
M  V30 54 H 4.299012 -2.415859 -0.094800 0
M  V30 55 H 4.347124 -3.135323 -1.720902 0
M  V30 56 H 4.963018 -4.123898 -0.302874 0
M  V30 57 H 2.129459 -5.680187 -0.887975 0
M  V30 END ATOM
M  V30 BEGIN BOND
M  V30 1 1 1 2
M  V30 2 1 2 3
M  V30 3 1 3 4
M  V30 4 1 4 5
M  V30 5 2 5 6
M  V30 6 1 6 7
M  V30 7 2 7 8
M  V30 8 1 8 9
M  V30 9 2 9 10
M  V30 10 1 10 11
M  V30 11 1 11 12
M  V30 12 2 12 13
M  V30 13 1 12 14
M  V30 14 2 14 15
M  V30 15 1 15 16
M  V30 16 2 16 17
M  V30 17 1 17 18
M  V30 18 1 18 19
M  V30 19 2 19 20
M  V30 20 1 20 21
M  V30 21 1 20 22
M  V30 22 2 22 23
M  V30 23 1 23 24
M  V30 24 2 24 25
M  V30 25 1 25 26
M  V30 26 2 18 27
M  V30 27 1 4 28
M  V30 28 1 28 29
M  V30 29 1 29 30
M  V30 30 1 29 31
M  V30 31 1 31 32
M  V30 32 1 31 33 CFG=1
M  V30 33 1 31 2
M  V30 34 1 10 5
M  V30 35 1 27 14
M  V30 36 1 25 19
M  V30 37 1 1 34
M  V30 38 1 1 35
M  V30 39 1 1 36
M  V30 40 1 2 37 CFG=1
M  V30 41 1 3 38
M  V30 42 1 3 39
M  V30 43 1 4 40 CFG=1
M  V30 44 1 6 41
M  V30 45 1 7 42
M  V30 46 1 9 43
M  V30 47 1 11 44
M  V30 48 1 15 45
M  V30 49 1 16 46
M  V30 50 1 22 47
M  V30 51 1 23 48
M  V30 52 1 24 49
M  V30 53 1 28 50
M  V30 54 1 28 51
M  V30 55 1 29 52 CFG=3
M  V30 56 1 30 53
M  V30 57 1 32 54
M  V30 58 1 32 55
M  V30 59 1 32 56
M  V30 60 1 33 57
M  V30 END BOND
M  V30 END CTAB
M  END
>  <Dataset>  (129) 
ChEMBL_Kinases

>  <Ligand_Instance>  (129) 
nan

>  <PDB_ID>  (129) 
nan

>  <Standardized_SMILES>  (129) 
C[C@H]1C[C@@H](c2ccncc2NC(=O)c2ccnc(-c3c(F)cccc3F)n2)C[C@@H](O)[C@]1(C)O

>  <Name>  (129) 
nan

>  <Pocket>  (129) 
nan

>  <ATP_Site>  (129) 
nan

>  <Peripheral>  (129) 
nan

>  <Num_H_Atoms_ProtBoundConf>  (129) 
nan

>  <Num_Resolved_Atoms>  (129) 
nan

>  <Num_Not_Resolved_Atoms>  (129) 
nan

$$$$
CHEMBL4788275
     RDKit          3D

  0  0  0  0  0  0  0  0  0  0999 V3000
M  V30 BEGIN CTAB
M  V30 COUNTS 61 65 0 0 0
M  V30 BEGIN ATOM
M  V30 1 C 6.293753 -5.200963 1.919902 0
M  V30 2 S 6.412463 -4.727702 0.191823 0
M  V30 3 O 7.787719 -4.203688 -0.037664 0
M  V30 4 O 6.112294 -5.932699 -0.627086 0
M  V30 5 C 5.171029 -3.510222 -0.160504 0
M  V30 6 C 4.175092 -3.739097 -1.098440 0
M  V30 7 C 3.226473 -2.761406 -1.329755 0
M  V30 8 C 3.255666 -1.564310 -0.643328 0
M  V30 9 N 2.358552 -0.470301 -0.758170 0
M  V30 10 C 2.476541 0.597479 -1.638910 0
M  V30 11 O 3.551151 0.397283 -2.306736 0
M  V30 12 C 1.709892 1.780524 -1.930742 0
M  V30 13 N 2.245086 2.683076 -2.776778 0
M  V30 14 N 1.395967 3.694946 -2.932435 0
M  V30 15 C 0.271651 3.530150 -2.216481 0
M  V30 16 C -0.893999 4.236895 -2.020210 0
M  V30 17 C -1.869030 3.702996 -1.169353 0
M  V30 18 C -1.622969 2.478819 -0.554673 0
M  V30 19 C -2.633730 1.924376 0.316549 0
M  V30 20 C -3.955810 2.228703 -0.031543 0
M  V30 21 N -5.008576 1.791235 0.671601 0
M  V30 22 C -4.829064 1.027524 1.760468 0
M  V30 23 C -3.555843 0.686719 2.165005 0
M  V30 24 C -3.339730 -0.155037 3.367165 0
M  V30 25 N -3.297071 -1.529068 3.008869 0
M  V30 26 C -4.444058 -2.071696 2.385997 0
M  V30 27 C -4.259552 -3.468828 1.852023 0
M  V30 28 C -2.998980 -3.631340 1.040507 0
M  V30 29 C -2.210045 -2.331561 1.051590 0
M  V30 30 C -2.041518 -1.998485 2.523682 0
M  V30 31 C -2.468838 1.138281 1.439358 0
M  V30 32 C -0.451735 1.789471 -0.763760 0
M  V30 33 C 0.498981 2.320947 -1.599591 0
M  V30 34 C 4.263795 -1.356237 0.292146 0
M  V30 35 N 5.172601 -2.328449 0.494285 0
M  V30 36 H 5.211906 -5.100916 2.241302 0
M  V30 37 H 6.557112 -6.248499 2.094051 0
M  V30 38 H 6.844994 -4.458720 2.519665 0
M  V30 39 H 4.140319 -4.672394 -1.641969 0
M  V30 40 H 2.424730 -2.861773 -2.036719 0
M  V30 41 H 1.528304 -0.427706 -0.137480 0
M  V30 42 H 1.606614 4.517698 -3.551211 0
M  V30 43 H -1.022261 5.198481 -2.536491 0
M  V30 44 H -2.796524 4.273457 -1.017829 0
M  V30 45 H -4.260399 2.832537 -0.883311 0
M  V30 46 H -5.708932 0.681595 2.319786 0
M  V30 47 H -4.115833 0.076157 4.127561 0
M  V30 48 H -2.370759 0.195020 3.802693 0
M  V30 49 H -4.803964 -1.428147 1.570784 0
M  V30 50 H -5.306690 -2.144480 3.110925 0
M  V30 51 H -4.303563 -4.245067 2.650874 0
M  V30 52 H -5.112211 -3.682829 1.175122 0
M  V30 53 H -3.152971 -3.972536 0.009565 0
M  V30 54 H -2.339348 -4.384194 1.547779 0
M  V30 55 H -2.902148 -1.582634 0.564925 0
M  V30 56 H -1.267410 -2.397722 0.513278 0
M  V30 57 H -1.771353 -2.928715 3.089941 0
M  V30 58 H -1.249285 -1.248516 2.707047 0
M  V30 59 H -1.449037 0.921714 1.684673 0
M  V30 60 H -0.303577 0.850862 -0.275462 0
M  V30 61 H 4.396316 -0.451620 0.901122 0
M  V30 END ATOM
M  V30 BEGIN BOND
M  V30 1 1 1 2
M  V30 2 2 2 3
M  V30 3 2 2 4
M  V30 4 1 2 5
M  V30 5 2 5 6
M  V30 6 1 6 7
M  V30 7 2 7 8
M  V30 8 1 8 9
M  V30 9 1 9 10
M  V30 10 2 10 11
M  V30 11 1 10 12
M  V30 12 2 12 13
M  V30 13 1 13 14
M  V30 14 1 14 15
M  V30 15 2 15 16
M  V30 16 1 16 17
M  V30 17 2 17 18
M  V30 18 1 18 19
M  V30 19 2 19 20
M  V30 20 1 20 21
M  V30 21 2 21 22
M  V30 22 1 22 23
M  V30 23 1 23 24
M  V30 24 1 24 25
M  V30 25 1 25 26
M  V30 26 1 26 27
M  V30 27 1 27 28
M  V30 28 1 28 29
M  V30 29 1 29 30
M  V30 30 2 23 31
M  V30 31 1 18 32
M  V30 32 2 32 33
M  V30 33 1 8 34
M  V30 34 2 34 35
M  V30 35 1 35 5
M  V30 36 1 33 12
M  V30 37 1 33 15
M  V30 38 1 31 19
M  V30 39 1 30 25
M  V30 40 1 1 36
M  V30 41 1 1 37
M  V30 42 1 1 38
M  V30 43 1 6 39
M  V30 44 1 7 40
M  V30 45 1 9 41
M  V30 46 1 14 42
M  V30 47 1 16 43
M  V30 48 1 17 44
M  V30 49 1 20 45
M  V30 50 1 22 46
M  V30 51 1 24 47
M  V30 52 1 24 48
M  V30 53 1 26 49
M  V30 54 1 26 50
M  V30 55 1 27 51
M  V30 56 1 27 52
M  V30 57 1 28 53
M  V30 58 1 28 54
M  V30 59 1 29 55
M  V30 60 1 29 56
M  V30 61 1 30 57
M  V30 62 1 30 58
M  V30 63 1 31 59
M  V30 64 1 32 60
M  V30 65 1 34 61
M  V30 END BOND
M  V30 END CTAB
M  END
>  <Dataset>  (130) 
ChEMBL_Kinases

>  <Ligand_Instance>  (130) 
nan

>  <PDB_ID>  (130) 
nan

>  <Standardized_SMILES>  (130) 
CS(=O)(=O)c1ccc(NC(=O)c2n[nH]c3ccc(-c4cncc(CN5CCCCC5)c4)cc23)cn1

>  <Name>  (130) 
nan

>  <Pocket>  (130) 
nan

>  <ATP_Site>  (130) 
nan

>  <Peripheral>  (130) 
nan

>  <Num_H_Atoms_ProtBoundConf>  (130) 
nan

>  <Num_Resolved_Atoms>  (130) 
nan

>  <Num_Not_Resolved_Atoms>  (130) 
nan

$$$$
CHEMBL4788267
     RDKit          3D

  0  0  0  0  0  0  0  0  0  0999 V3000
M  V30 BEGIN CTAB
M  V30 COUNTS 60 65 0 0 0
M  V30 BEGIN ATOM
M  V30 1 F 0.037848 -2.986664 1.733257 0
M  V30 2 C 1.125805 -2.213824 1.950048 0
M  V30 3 C 2.101225 -2.778236 2.724089 0
M  V30 4 C 3.222645 -1.996861 2.988398 0
M  V30 5 C 3.273102 -0.719246 2.457458 0
M  V30 6 C 2.258168 -0.160785 1.664767 0
M  V30 7 C 2.578955 1.204254 1.317930 0
M  V30 8 C 3.856903 1.668379 1.121103 0
M  V30 9 C 4.086629 3.012515 0.898019 0
M  V30 10 C 3.039293 3.938488 0.864539 0
M  V30 11 C 1.745012 3.500612 1.056564 0
M  V30 12 N 0.516184 4.020079 1.092631 0
M  V30 13 C -0.437112 3.115031 1.310035 0
M  V30 14 C -1.816793 3.514075 1.492275 0
M  V30 15 N -2.318096 4.753661 1.531893 0
M  V30 16 N -3.639352 4.673469 1.736569 0
M  V30 17 C -3.926212 3.362718 1.816653 0
M  V30 18 C -2.776466 2.561889 1.659131 0
M  V30 19 C -3.040417 1.146068 1.521338 0
M  V30 20 C -2.421552 0.234834 0.791521 0
M  V30 21 C -2.707980 -1.199953 0.673464 0
M  V30 22 C -3.598523 -1.880610 1.473982 0
M  V30 23 N -3.838941 -3.189457 1.228973 0
M  V30 24 C -3.193744 -3.795420 0.197002 0
M  V30 25 C -2.277210 -3.188298 -0.667122 0
M  V30 26 C -1.734141 -4.022904 -1.730124 0
M  V30 27 N -0.516207 -4.668166 -1.369724 0
M  V30 28 C 0.634361 -3.832666 -1.262947 0
M  V30 29 C 1.195767 -3.817049 -2.674145 0
M  V30 30 C 0.873507 -5.198851 -3.190609 0
M  V30 31 C -0.106340 -5.753552 -2.208457 0
M  V30 32 C -2.065997 -1.864562 -0.377860 0
M  V30 33 N 0.260510 1.982509 1.412752 0
M  V30 34 C 1.568739 2.161798 1.271871 0
M  V30 35 C 1.171261 -0.945564 1.418858 0
M  V30 36 H 2.023226 -3.779218 3.119805 0
M  V30 37 H 3.992270 -2.437217 3.596502 0
M  V30 38 H 4.199639 -0.223611 2.741685 0
M  V30 39 H 4.684801 0.972451 1.141993 0
M  V30 40 H 5.080753 3.398627 0.741416 0
M  V30 41 H 3.143226 5.005880 0.696623 0
M  V30 42 H 0.416274 5.062134 0.950735 0
M  V30 43 H -4.206271 5.534636 1.799704 0
M  V30 44 H -4.987555 3.136206 1.988203 0
M  V30 45 H -3.855797 0.659618 2.076491 0
M  V30 46 H -1.617723 0.635604 0.196061 0
M  V30 47 H -4.083625 -1.349425 2.280321 0
M  V30 48 H -3.497438 -4.846668 0.134780 0
M  V30 49 H -2.468983 -4.848693 -1.968745 0
M  V30 50 H -1.651442 -3.461755 -2.697164 0
M  V30 51 H 1.392637 -4.400097 -0.662410 0
M  V30 52 H 0.482439 -2.828828 -0.869606 0
M  V30 53 H 0.704869 -3.084342 -3.335627 0
M  V30 54 H 2.280360 -3.594715 -2.695703 0
M  V30 55 H 1.827499 -5.768448 -3.221863 0
M  V30 56 H 0.423565 -5.158245 -4.212462 0
M  V30 57 H 0.432931 -6.482081 -1.545067 0
M  V30 58 H -0.952471 -6.286589 -2.687089 0
M  V30 59 H -1.363950 -1.367947 -1.034463 0
M  V30 60 H 0.426613 -0.469948 0.806617 0
M  V30 END ATOM
M  V30 BEGIN BOND
M  V30 1 1 1 2
M  V30 2 2 2 3
M  V30 3 1 3 4
M  V30 4 2 4 5
M  V30 5 1 5 6
M  V30 6 1 6 7
M  V30 7 2 7 8
M  V30 8 1 8 9
M  V30 9 2 9 10
M  V30 10 1 10 11
M  V30 11 1 11 12
M  V30 12 1 12 13
M  V30 13 1 13 14
M  V30 14 2 14 15
M  V30 15 1 15 16
M  V30 16 1 16 17
M  V30 17 2 17 18
M  V30 18 1 18 19
M  V30 19 2 19 20
M  V30 20 1 20 21
M  V30 21 2 21 22
M  V30 22 1 22 23
M  V30 23 2 23 24
M  V30 24 1 24 25
M  V30 25 1 25 26
M  V30 26 1 26 27
M  V30 27 1 27 28
M  V30 28 1 28 29
M  V30 29 1 29 30
M  V30 30 1 30 31
M  V30 31 2 25 32
M  V30 32 2 13 33
M  V30 33 1 33 34
M  V30 34 2 6 35
M  V30 35 1 35 2
M  V30 36 1 34 7
M  V30 37 2 34 11
M  V30 38 1 18 14
M  V30 39 1 32 21
M  V30 40 1 31 27
M  V30 41 1 3 36
M  V30 42 1 4 37
M  V30 43 1 5 38
M  V30 44 1 8 39
M  V30 45 1 9 40
M  V30 46 1 10 41
M  V30 47 1 12 42
M  V30 48 1 16 43
M  V30 49 1 17 44
M  V30 50 1 19 45
M  V30 51 1 20 46
M  V30 52 1 22 47
M  V30 53 1 24 48
M  V30 54 1 26 49
M  V30 55 1 26 50
M  V30 56 1 28 51
M  V30 57 1 28 52
M  V30 58 1 29 53
M  V30 59 1 29 54
M  V30 60 1 30 55
M  V30 61 1 30 56
M  V30 62 1 31 57
M  V30 63 1 31 58
M  V30 64 1 32 59
M  V30 65 1 35 60
M  V30 END BOND
M  V30 END CTAB
M  END
>  <Dataset>  (131) 
ChEMBL_Kinases

>  <Ligand_Instance>  (131) 
nan

>  <PDB_ID>  (131) 
nan

>  <Standardized_SMILES>  (131) 
Fc1cccc(-c2cccc3[nH]c(-c4n[nH]cc4/C=C/c4cncc(CN5CCCC5)c4)nc23)c1

>  <Name>  (131) 
nan

>  <Pocket>  (131) 
nan

>  <ATP_Site>  (131) 
nan

>  <Peripheral>  (131) 
nan

>  <Num_H_Atoms_ProtBoundConf>  (131) 
nan

>  <Num_Resolved_Atoms>  (131) 
nan

>  <Num_Not_Resolved_Atoms>  (131) 
nan

$$$$
CHEMBL4164012
     RDKit          3D

  0  0  0  0  0  0  0  0  0  0999 V3000
M  V30 BEGIN CTAB
M  V30 COUNTS 66 70 0 0 0
M  V30 BEGIN ATOM
M  V30 1 C 5.001259 -1.573832 6.739226 0
M  V30 2 C 5.119325 -2.693667 5.748808 0
M  V30 3 C 5.390972 -2.165687 4.371540 0
M  V30 4 N 4.393652 -1.328428 3.792908 0
M  V30 5 C 3.684041 -0.118290 3.881116 0
M  V30 6 O 4.045446 0.564203 4.871798 0
M  V30 7 C 2.661023 0.355151 2.994774 0
M  V30 8 C 2.162248 -0.276878 1.875555 0
M  V30 9 C 1.176045 0.232596 1.063552 0
M  V30 10 C 0.625057 1.454260 1.356150 0
M  V30 11 C 1.110920 2.103296 2.472969 0
M  V30 12 C 0.432954 3.297089 2.586600 0
M  V30 13 C -0.453145 3.344083 1.529927 0
M  V30 14 N -0.324286 2.215226 0.790005 0
M  V30 15 C -1.022908 1.820738 -0.386677 0
M  V30 16 N -1.423357 2.729149 -1.301821 0
M  V30 17 C -2.090122 2.398529 -2.434628 0
M  V30 18 C -2.388164 1.077698 -2.692172 0
M  V30 19 C -1.979140 0.149235 -1.756901 0
M  V30 20 N -1.308378 0.528738 -0.627477 0
M  V30 21 N -2.198230 -1.252533 -1.851188 0
M  V30 22 C -2.310064 -2.216137 -0.800641 0
M  V30 23 C -3.619309 -2.986275 -0.857991 0
M  V30 24 C -3.792883 -3.526101 0.545407 0
M  V30 25 C -3.153752 -2.512559 1.438721 0
M  V30 26 C -2.403582 -1.524270 0.566537 0
M  V30 27 C -2.319187 -1.774982 -3.221660 0 CFG=2
M  V30 28 C -0.992344 -1.602092 -3.946068 0
M  V30 29 C 0.116995 -2.350885 -3.235573 0
M  V30 30 C -3.292636 -0.867794 -3.929854 0
M  V30 31 O -4.312179 -1.182048 -4.633905 0
M  V30 32 N -3.066478 0.552054 -3.813918 0
M  V30 33 C -3.504837 1.536773 -4.813338 0
M  V30 34 C 2.100212 1.579192 3.277119 0
M  V30 35 H 5.701156 -0.757724 6.477721 0
M  V30 36 H 3.939482 -1.262345 6.801914 0
M  V30 37 H 5.289082 -1.944954 7.768089 0
M  V30 38 H 5.911247 -3.434351 6.054834 0
M  V30 39 H 4.141366 -3.261773 5.768234 0
M  V30 40 H 6.373239 -1.578220 4.389073 0
M  V30 41 H 5.641177 -3.025626 3.698029 0
M  V30 42 H 4.006202 -1.814315 2.915692 0
M  V30 43 H 2.576545 -1.240205 1.619977 0
M  V30 44 H 0.839051 -0.336432 0.194254 0
M  V30 45 H 0.506868 4.107273 3.323093 0
M  V30 46 H -1.180435 4.096949 1.231468 0
M  V30 47 H -2.418054 3.103795 -3.175870 0
M  V30 48 H -1.490441 -2.941451 -0.725448 0
M  V30 49 H -4.475002 -2.309034 -1.044503 0
M  V30 50 H -3.587272 -3.813516 -1.569837 0
M  V30 51 H -3.249420 -4.483170 0.691700 0
M  V30 52 H -4.865486 -3.613149 0.832681 0
M  V30 53 H -2.453428 -2.968421 2.181226 0
M  V30 54 H -3.925906 -1.956427 2.038855 0
M  V30 55 H -1.443393 -1.216378 0.965861 0
M  V30 56 H -3.045322 -0.628010 0.444189 0
M  V30 57 H -2.651065 -2.806006 -3.253072 0
M  V30 58 H -0.693793 -0.534595 -3.982402 0
M  V30 59 H -1.033209 -1.987914 -4.963799 0
M  V30 60 H 1.051350 -2.078803 -3.772612 0
M  V30 61 H -0.020591 -3.447856 -3.358415 0
M  V30 62 H 0.216651 -2.021266 -2.196933 0
M  V30 63 H -3.927015 1.065622 -5.701332 0
M  V30 64 H -2.555640 2.056191 -5.136532 0
M  V30 65 H -4.118004 2.309809 -4.348678 0
M  V30 66 H 2.431675 2.162449 4.150883 0
M  V30 END ATOM
M  V30 BEGIN BOND
M  V30 1 1 1 2
M  V30 2 1 2 3
M  V30 3 1 3 4
M  V30 4 1 4 5
M  V30 5 2 5 6
M  V30 6 1 5 7
M  V30 7 2 7 8
M  V30 8 1 8 9
M  V30 9 2 9 10
M  V30 10 1 10 11
M  V30 11 1 11 12
M  V30 12 2 12 13
M  V30 13 1 13 14
M  V30 14 1 14 15
M  V30 15 2 15 16
M  V30 16 1 16 17
M  V30 17 2 17 18
M  V30 18 1 18 19
M  V30 19 2 19 20
M  V30 20 1 19 21
M  V30 21 1 21 22
M  V30 22 1 22 23
M  V30 23 1 23 24
M  V30 24 1 24 25
M  V30 25 1 25 26
M  V30 26 1 21 27
M  V30 27 1 27 28
M  V30 28 1 28 29
M  V30 29 1 27 30
M  V30 30 2 30 31
M  V30 31 1 30 32
M  V30 32 1 32 33
M  V30 33 2 11 34
M  V30 34 1 34 7
M  V30 35 1 14 10
M  V30 36 1 20 15
M  V30 37 1 26 22
M  V30 38 1 32 18
M  V30 39 1 1 35
M  V30 40 1 1 36
M  V30 41 1 1 37
M  V30 42 1 2 38
M  V30 43 1 2 39
M  V30 44 1 3 40
M  V30 45 1 3 41
M  V30 46 1 4 42
M  V30 47 1 8 43
M  V30 48 1 9 44
M  V30 49 1 12 45
M  V30 50 1 13 46
M  V30 51 1 17 47
M  V30 52 1 22 48
M  V30 53 1 23 49
M  V30 54 1 23 50
M  V30 55 1 24 51
M  V30 56 1 24 52
M  V30 57 1 25 53
M  V30 58 1 25 54
M  V30 59 1 26 55
M  V30 60 1 26 56
M  V30 61 1 27 57 CFG=1
M  V30 62 1 28 58
M  V30 63 1 28 59
M  V30 64 1 29 60
M  V30 65 1 29 61
M  V30 66 1 29 62
M  V30 67 1 33 63
M  V30 68 1 33 64
M  V30 69 1 33 65
M  V30 70 1 34 66
M  V30 END BOND
M  V30 END CTAB
M  END
>  <Dataset>  (132) 
ChEMBL_Kinases

>  <Ligand_Instance>  (132) 
nan

>  <PDB_ID>  (132) 
nan

>  <Standardized_SMILES>  (132) 
CCCNC(=O)c1ccc2c(ccn2-c2ncc3c(n2)N(C2CCCC2)[C@H](CC)C(=O)N3C)c1

>  <Name>  (132) 
nan

>  <Pocket>  (132) 
nan

>  <ATP_Site>  (132) 
nan

>  <Peripheral>  (132) 
nan

>  <Num_H_Atoms_ProtBoundConf>  (132) 
nan

>  <Num_Resolved_Atoms>  (132) 
nan

>  <Num_Not_Resolved_Atoms>  (132) 
nan

$$$$
CHEMBL4164082
     RDKit          3D

  0  0  0  0  0  0  0  0  0  0999 V3000
M  V30 BEGIN CTAB
M  V30 COUNTS 67 72 0 0 0
M  V30 BEGIN ATOM
M  V30 1 C 5.113784 0.351237 5.306066 0
M  V30 2 C 5.888024 0.778141 4.065449 0
M  V30 3 C 5.201626 0.232516 2.864346 0
M  V30 4 C 5.917459 0.582835 1.561728 0
M  V30 5 O 6.897966 1.268905 1.179756 0
M  V30 6 N 5.222973 -0.104580 0.473161 0
M  V30 7 C 5.862359 -0.509040 -0.784616 0
M  V30 8 C 3.839849 -0.395739 0.562198 0
M  V30 9 C 3.164387 -1.060580 -0.451609 0
M  V30 10 N 1.845575 -1.311724 -0.290859 0
M  V30 11 C 1.130158 -0.961510 0.793145 0
M  V30 12 N -0.236361 -1.361922 0.740572 0
M  V30 13 C -0.898414 -1.909316 1.802256 0
M  V30 14 C -2.185576 -2.177221 1.365686 0
M  V30 15 C -2.271459 -1.776855 0.022470 0
M  V30 16 C -3.376851 -1.860701 -0.804480 0
M  V30 17 C -3.182050 -1.377324 -2.115901 0
M  V30 18 C -4.201382 -1.419805 -3.153712 0
M  V30 19 O -4.136961 -0.726744 -4.236734 0
M  V30 20 N -5.346907 -2.217902 -3.099981 0
M  V30 21 C -6.513885 -2.520712 -3.882997 0
M  V30 22 C -6.455585 -3.946372 -4.436907 0
M  V30 23 C -7.079789 -4.798318 -3.375106 0
M  V30 24 C -7.913235 -3.901916 -2.492974 0
M  V30 25 C -7.808076 -2.528915 -3.112141 0
M  V30 26 C -1.965146 -0.861328 -2.519480 0
M  V30 27 C -0.926783 -0.823784 -1.614667 0
M  V30 28 C -1.043832 -1.276842 -0.324733 0
M  V30 29 N 1.737686 -0.306253 1.815777 0
M  V30 30 C 3.061817 -0.038527 1.686825 0
M  V30 31 N 3.812558 0.646965 2.714616 0
M  V30 32 C 3.112865 1.674762 3.436411 0
M  V30 33 C 1.813287 2.019981 3.538301 0
M  V30 34 C 1.764447 3.128429 4.367159 0
M  V30 35 N 3.002217 3.451196 4.761010 0
M  V30 36 C 3.442324 4.543656 5.638762 0
M  V30 37 N 3.769960 2.571051 4.190387 0
M  V30 38 H 4.101925 -0.004954 5.084275 0
M  V30 39 H 5.626053 -0.541323 5.787694 0
M  V30 40 H 5.083047 1.104791 6.093648 0
M  V30 41 H 6.080914 1.867493 4.051519 0
M  V30 42 H 6.885772 0.305642 4.128100 0
M  V30 43 H 5.241699 -0.865177 2.945752 0
M  V30 44 H 6.955973 -0.292319 -0.731199 0
M  V30 45 H 5.637307 -1.579243 -0.971334 0
M  V30 46 H 5.388195 0.046863 -1.608811 0
M  V30 47 H 3.660833 -1.367694 -1.337486 0
M  V30 48 H -0.506974 -2.099731 2.800857 0
M  V30 49 H -2.981716 -2.609502 1.945558 0
M  V30 50 H -4.358832 -2.253592 -0.571893 0
M  V30 51 H -5.468169 -2.826251 -2.237364 0
M  V30 52 H -6.602006 -1.826979 -4.721942 0
M  V30 53 H -5.468310 -4.225234 -4.782602 0
M  V30 54 H -7.155571 -3.977322 -5.305885 0
M  V30 55 H -6.322972 -5.343580 -2.760341 0
M  V30 56 H -7.705413 -5.618592 -3.836598 0
M  V30 57 H -8.981287 -4.166435 -2.466113 0
M  V30 58 H -7.482884 -3.843102 -1.456217 0
M  V30 59 H -7.803693 -1.781395 -2.301641 0
M  V30 60 H -8.672311 -2.290318 -3.764101 0
M  V30 61 H -1.787390 -0.486084 -3.518566 0
M  V30 62 H 0.031329 -0.405811 -1.947213 0
M  V30 63 H 0.996336 1.516510 3.058084 0
M  V30 64 H 0.852498 3.667078 4.661409 0
M  V30 65 H 3.237332 5.520518 5.188503 0
M  V30 66 H 2.943230 4.417540 6.633285 0
M  V30 67 H 4.526817 4.382244 5.856213 0
M  V30 END ATOM
M  V30 BEGIN BOND
M  V30 1 1 1 2
M  V30 2 1 2 3
M  V30 3 1 3 4
M  V30 4 2 4 5
M  V30 5 1 4 6
M  V30 6 1 6 7
M  V30 7 1 6 8
M  V30 8 2 8 9
M  V30 9 1 9 10
M  V30 10 2 10 11
M  V30 11 1 11 12
M  V30 12 1 12 13
M  V30 13 2 13 14
M  V30 14 1 14 15
M  V30 15 2 15 16
M  V30 16 1 16 17
M  V30 17 1 17 18
M  V30 18 2 18 19
M  V30 19 1 18 20
M  V30 20 1 20 21
M  V30 21 1 21 22
M  V30 22 1 22 23
M  V30 23 1 23 24
M  V30 24 1 24 25
M  V30 25 2 17 26
M  V30 26 1 26 27
M  V30 27 2 27 28
M  V30 28 1 11 29
M  V30 29 2 29 30
M  V30 30 1 30 31
M  V30 31 1 31 32
M  V30 32 1 32 33
M  V30 33 2 33 34
M  V30 34 1 34 35
M  V30 35 1 35 36
M  V30 36 1 35 37
M  V30 37 1 31 3
M  V30 38 2 37 32
M  V30 39 1 30 8
M  V30 40 1 28 12
M  V30 41 1 28 15
M  V30 42 1 25 21
M  V30 43 1 1 38
M  V30 44 1 1 39
M  V30 45 1 1 40
M  V30 46 1 2 41
M  V30 47 1 2 42
M  V30 48 1 3 43
M  V30 49 1 7 44
M  V30 50 1 7 45
M  V30 51 1 7 46
M  V30 52 1 9 47
M  V30 53 1 13 48
M  V30 54 1 14 49
M  V30 55 1 16 50
M  V30 56 1 20 51
M  V30 57 1 21 52
M  V30 58 1 22 53
M  V30 59 1 22 54
M  V30 60 1 23 55
M  V30 61 1 23 56
M  V30 62 1 24 57
M  V30 63 1 24 58
M  V30 64 1 25 59
M  V30 65 1 25 60
M  V30 66 1 26 61
M  V30 67 1 27 62
M  V30 68 1 33 63
M  V30 69 1 34 64
M  V30 70 1 36 65
M  V30 71 1 36 66
M  V30 72 1 36 67
M  V30 END BOND
M  V30 END CTAB
M  END
>  <Dataset>  (133) 
ChEMBL_Kinases

>  <Ligand_Instance>  (133) 
nan

>  <PDB_ID>  (133) 
nan

>  <Standardized_SMILES>  (133) 
CCC1C(=O)N(C)c2cnc(-n3ccc4cc(C(=O)NC5CCCC5)ccc43)nc2N1c1ccn(C)n1

>  <Name>  (133) 
nan

>  <Pocket>  (133) 
nan

>  <ATP_Site>  (133) 
nan

>  <Peripheral>  (133) 
nan

>  <Num_H_Atoms_ProtBoundConf>  (133) 
nan

>  <Num_Resolved_Atoms>  (133) 
nan

>  <Num_Not_Resolved_Atoms>  (133) 
nan

$$$$
CHEMBL1673039
     RDKit          3D

  0  0  0  0  0  0  0  0  0  0999 V3000
M  V30 BEGIN CTAB
M  V30 COUNTS 63 67 0 0 0
M  V30 BEGIN ATOM
M  V30 1 C 3.819272 -1.317361 4.148009 0
M  V30 2 O 2.539115 -1.122993 3.637070 0
M  V30 3 C 2.180662 -0.288498 2.599605 0
M  V30 4 C 3.142807 0.458644 1.959783 0
M  V30 5 C 2.833436 1.308131 0.918260 0
M  V30 6 N 3.805787 2.094238 0.228740 0
M  V30 7 C 3.533922 3.181072 -0.704147 0
M  V30 8 C 4.437648 3.211583 -1.890812 0
M  V30 9 N 5.200700 2.037651 -2.126279 0
M  V30 10 C 4.458608 1.118124 -2.972091 0
M  V30 11 C 5.668417 1.335895 -0.981836 0
M  V30 12 C 5.241977 1.923913 0.345491 0
M  V30 13 C 1.514360 1.377388 0.542705 0
M  V30 14 C 0.549029 0.629995 1.181023 0
M  V30 15 C 0.844943 -0.222651 2.223839 0
M  V30 16 N -0.165295 -0.992670 2.896496 0
M  V30 17 C -1.510974 -0.906978 2.448594 0
M  V30 18 N -2.459591 -0.000340 2.763983 0
M  V30 19 C -3.706121 -0.079314 2.239359 0
M  V30 20 C -4.047314 -1.102457 1.355446 0
M  V30 21 C -3.048503 -2.029633 1.044510 0
M  V30 22 N -1.809340 -1.923288 1.586203 0
M  V30 23 N -3.142717 -3.178841 0.176137 0
M  V30 24 C -1.896892 -3.826982 -0.195028 0
M  V30 25 C -4.324011 -3.770416 -0.367173 0
M  V30 26 C -4.120830 -5.030747 -0.887161 0
M  V30 27 C -5.169886 -5.730501 -1.442941 0
M  V30 28 C -6.455419 -5.238690 -1.517658 0
M  V30 29 C -6.680657 -3.959568 -0.994881 0
M  V30 30 C -5.616724 -3.275396 -0.442203 0
M  V30 31 C -6.003284 -1.960376 0.058006 0
M  V30 32 O -7.146311 -1.605688 -0.382862 0
M  V30 33 N -5.398239 -0.998937 0.914590 0
M  V30 34 C -6.166658 0.142900 1.366007 0
M  V30 35 H 4.475929 -0.445606 4.130920 0
M  V30 36 H 4.245037 -2.233246 3.661815 0
M  V30 37 H 3.712015 -1.602108 5.236801 0
M  V30 38 H 4.147859 0.359906 2.299717 0
M  V30 39 H 2.467450 3.258677 -0.988727 0
M  V30 40 H 3.704590 4.108202 -0.074684 0
M  V30 41 H 3.829143 3.440623 -2.789810 0
M  V30 42 H 5.151306 4.053988 -1.776644 0
M  V30 43 H 5.079120 0.783230 -3.828558 0
M  V30 44 H 3.567190 1.641827 -3.398654 0
M  V30 45 H 4.157629 0.202887 -2.424635 0
M  V30 46 H 5.338526 0.278564 -0.991122 0
M  V30 47 H 6.787953 1.318710 -1.011142 0
M  V30 48 H 5.775320 2.899025 0.455611 0
M  V30 49 H 5.546036 1.201177 1.128734 0
M  V30 50 H 1.115363 1.975665 -0.233730 0
M  V30 51 H -0.507360 0.645606 0.923835 0
M  V30 52 H 0.149513 -1.585152 3.693561 0
M  V30 53 H -4.428231 0.650589 2.510695 0
M  V30 54 H -1.054141 -3.158861 0.091678 0
M  V30 55 H -1.717713 -4.745045 0.412094 0
M  V30 56 H -1.786126 -3.982136 -1.288013 0
M  V30 57 H -3.141537 -5.444346 -0.848762 0
M  V30 58 H -4.929021 -6.710946 -1.828292 0
M  V30 59 H -7.224195 -5.850229 -1.968687 0
M  V30 60 H -7.677816 -3.547319 -1.039678 0
M  V30 61 H -7.130781 0.085146 0.775922 0
M  V30 62 H -6.473359 0.097954 2.420691 0
M  V30 63 H -5.737080 1.113439 1.040572 0
M  V30 END ATOM
M  V30 BEGIN BOND
M  V30 1 1 1 2
M  V30 2 1 2 3
M  V30 3 2 3 4
M  V30 4 1 4 5
M  V30 5 1 5 6
M  V30 6 1 6 7
M  V30 7 1 7 8
M  V30 8 1 8 9
M  V30 9 1 9 10
M  V30 10 1 9 11
M  V30 11 1 11 12
M  V30 12 2 5 13
M  V30 13 1 13 14
M  V30 14 2 14 15
M  V30 15 1 15 16
M  V30 16 1 16 17
M  V30 17 2 17 18
M  V30 18 1 18 19
M  V30 19 2 19 20
M  V30 20 1 20 21
M  V30 21 2 21 22
M  V30 22 1 21 23
M  V30 23 1 23 24
M  V30 24 1 23 25
M  V30 25 2 25 26
M  V30 26 1 26 27
M  V30 27 2 27 28
M  V30 28 1 28 29
M  V30 29 2 29 30
M  V30 30 1 30 31
M  V30 31 2 31 32
M  V30 32 1 31 33
M  V30 33 1 33 34
M  V30 34 1 15 3
M  V30 35 1 22 17
M  V30 36 1 30 25
M  V30 37 1 12 6
M  V30 38 1 33 20
M  V30 39 1 1 35
M  V30 40 1 1 36
M  V30 41 1 1 37
M  V30 42 1 4 38
M  V30 43 1 7 39
M  V30 44 1 7 40
M  V30 45 1 8 41
M  V30 46 1 8 42
M  V30 47 1 10 43
M  V30 48 1 10 44
M  V30 49 1 10 45
M  V30 50 1 11 46
M  V30 51 1 11 47
M  V30 52 1 12 48
M  V30 53 1 12 49
M  V30 54 1 13 50
M  V30 55 1 14 51
M  V30 56 1 16 52
M  V30 57 1 19 53
M  V30 58 1 24 54
M  V30 59 1 24 55
M  V30 60 1 24 56
M  V30 61 1 26 57
M  V30 62 1 27 58
M  V30 63 1 28 59
M  V30 64 1 29 60
M  V30 65 1 34 61
M  V30 66 1 34 62
M  V30 67 1 34 63
M  V30 END BOND
M  V30 END CTAB
M  END
>  <Dataset>  (134) 
ChEMBL_Kinases

>  <Ligand_Instance>  (134) 
nan

>  <PDB_ID>  (134) 
nan

>  <Standardized_SMILES>  (134) 
COc1cc(N2CCN(C)CC2)ccc1Nc1ncc2c(n1)N(C)c1ccccc1C(=O)N2C

>  <Name>  (134) 
nan

>  <Pocket>  (134) 
nan

>  <ATP_Site>  (134) 
nan

>  <Peripheral>  (134) 
nan

>  <Num_H_Atoms_ProtBoundConf>  (134) 
nan

>  <Num_Resolved_Atoms>  (134) 
nan

>  <Num_Not_Resolved_Atoms>  (134) 
nan

$$$$
CHEMBL4790414
     RDKit          3D

  0  0  0  0  0  0  0  0  0  0999 V3000
M  V30 BEGIN CTAB
M  V30 COUNTS 59 65 0 0 0
M  V30 BEGIN ATOM
M  V30 1 C 1.938276 -4.038429 0.868382 0
M  V30 2 C 2.739598 -2.879820 0.565753 0
M  V30 3 C 4.028370 -2.802415 0.174196 0
M  V30 4 C 4.641619 -1.603617 -0.064162 0
M  V30 5 C 3.821113 -0.427086 0.130582 0
M  V30 6 C 4.150594 0.983719 -0.015871 0
M  V30 7 C 5.411768 1.331556 -0.398220 0
M  V30 8 N 5.629771 2.653009 -0.475538 0
M  V30 9 C 4.714805 3.599770 -0.208784 0
M  V30 10 C 3.442974 3.203524 0.176515 0
M  V30 11 N 2.333864 3.892361 0.504229 0
M  V30 12 C 1.334038 3.051062 0.810843 0
M  V30 13 C 0.017143 3.512869 1.232107 0
M  V30 14 N -0.313349 4.804703 1.365636 0
M  V30 15 N -1.559369 4.950163 1.755845 0
M  V30 16 C -2.074756 3.715078 1.885651 0
M  V30 17 C -3.327788 3.272870 2.257153 0
M  V30 18 N -3.574862 1.951284 2.293310 0
M  V30 19 C -2.627582 1.050060 1.974837 0
M  V30 20 C -3.013947 -0.353330 2.045264 0
M  V30 21 C -4.291407 -0.675039 2.441382 0
M  V30 22 N -4.789968 -1.936263 2.529132 0
M  V30 23 C -4.018677 -3.004013 2.215265 0
M  V30 24 C -2.737373 -2.691663 1.816810 0
M  V30 25 N -1.924593 -3.833699 1.467456 0
M  V30 26 C -2.245340 -4.001358 0.087705 0
M  V30 27 O -3.082670 -3.185029 -0.432002 0
M  V30 28 C -1.840559 -4.938514 -0.991760 0
M  V30 29 C -2.593960 -4.646818 -2.269412 0
M  V30 30 C -1.274856 -4.400605 -2.956784 0
M  V30 31 C -0.526706 -4.652562 -1.655376 0
M  V30 32 C -2.210396 -1.423429 1.720996 0
M  V30 33 C -1.357769 1.433465 1.597778 0
M  V30 34 C -1.108518 2.787545 1.562654 0
M  V30 35 N 1.834830 1.810782 0.670300 0
M  V30 36 C 3.123473 1.845633 0.284145 0
M  V30 37 S 2.173401 -1.191783 0.659948 0
M  V30 38 H 2.011007 -4.790192 0.088558 0
M  V30 39 H 2.191058 -4.476700 1.860139 0
M  V30 40 H 0.876706 -3.728689 0.957210 0
M  V30 41 H 4.616142 -3.700991 0.037659 0
M  V30 42 H 5.652980 -1.408132 -0.377476 0
M  V30 43 H 6.115435 0.543058 -0.602803 0
M  V30 44 H 4.966861 4.651985 -0.293557 0
M  V30 45 H 2.341101 4.936609 0.494480 0
M  V30 46 H -2.037963 5.861801 1.927490 0
M  V30 47 H -4.104602 3.989971 2.517584 0
M  V30 48 H -5.011942 0.082802 2.719904 0
M  V30 49 H -4.386651 -4.018411 2.275949 0
M  V30 50 H -1.235379 -4.581120 1.715149 0
M  V30 51 H -1.966348 -5.985784 -0.658038 0
M  V30 52 H -3.129460 -5.557122 -2.673453 0
M  V30 53 H -3.228000 -3.744266 -2.260265 0
M  V30 54 H -1.090697 -5.134884 -3.760263 0
M  V30 55 H -1.157458 -3.325857 -3.265607 0
M  V30 56 H 0.141305 -5.528362 -1.772398 0
M  V30 57 H 0.044966 -3.775110 -1.290202 0
M  V30 58 H -1.198991 -1.217022 1.404959 0
M  V30 59 H -0.582395 0.727500 1.338562 0
M  V30 END ATOM
M  V30 BEGIN BOND
M  V30 1 1 1 2
M  V30 2 2 2 3
M  V30 3 1 3 4
M  V30 4 2 4 5
M  V30 5 1 5 6
M  V30 6 2 6 7
M  V30 7 1 7 8
M  V30 8 2 8 9
M  V30 9 1 9 10
M  V30 10 1 10 11
M  V30 11 1 11 12
M  V30 12 1 12 13
M  V30 13 2 13 14
M  V30 14 1 14 15
M  V30 15 1 15 16
M  V30 16 2 16 17
M  V30 17 1 17 18
M  V30 18 2 18 19
M  V30 19 1 19 20
M  V30 20 2 20 21
M  V30 21 1 21 22
M  V30 22 2 22 23
M  V30 23 1 23 24
M  V30 24 1 24 25
M  V30 25 1 25 26
M  V30 26 2 26 27
M  V30 27 1 26 28
M  V30 28 1 28 29
M  V30 29 1 29 30
M  V30 30 1 30 31
M  V30 31 2 24 32
M  V30 32 1 19 33
M  V30 33 2 33 34
M  V30 34 2 12 35
M  V30 35 1 35 36
M  V30 36 1 5 37
M  V30 37 1 37 2
M  V30 38 1 36 6
M  V30 39 2 36 10
M  V30 40 1 34 13
M  V30 41 1 34 16
M  V30 42 1 32 20
M  V30 43 1 31 28
M  V30 44 1 1 38
M  V30 45 1 1 39
M  V30 46 1 1 40
M  V30 47 1 3 41
M  V30 48 1 4 42
M  V30 49 1 7 43
M  V30 50 1 9 44
M  V30 51 1 11 45
M  V30 52 1 15 46
M  V30 53 1 17 47
M  V30 54 1 21 48
M  V30 55 1 23 49
M  V30 56 1 25 50
M  V30 57 1 28 51
M  V30 58 1 29 52
M  V30 59 1 29 53
M  V30 60 1 30 54
M  V30 61 1 30 55
M  V30 62 1 31 56
M  V30 63 1 31 57
M  V30 64 1 32 58
M  V30 65 1 33 59
M  V30 END BOND
M  V30 END CTAB
M  END
>  <Dataset>  (135) 
ChEMBL_Kinases

>  <Ligand_Instance>  (135) 
nan

>  <PDB_ID>  (135) 
nan

>  <Standardized_SMILES>  (135) 
Cc1ccc(-c2cncc3[nH]c(-c4n[nH]c5cnc(-c6cncc(NC(=O)C7CCC7)c6)cc45)nc23)s1

>  <Name>  (135) 
nan

>  <Pocket>  (135) 
nan

>  <ATP_Site>  (135) 
nan

>  <Peripheral>  (135) 
nan

>  <Num_H_Atoms_ProtBoundConf>  (135) 
nan

>  <Num_Resolved_Atoms>  (135) 
nan

>  <Num_Not_Resolved_Atoms>  (135) 
nan

$$$$
CHEMBL4128288
     RDKit          3D

  0  0  0  0  0  0  0  0  0  0999 V3000
M  V30 BEGIN CTAB
M  V30 COUNTS 51 54 0 0 0
M  V30 BEGIN ATOM
M  V30 1 C 5.147575 -2.843977 0.947598 0
M  V30 2 N 5.268213 -1.416514 1.183364 0
M  V30 3 C 6.622124 -1.034986 1.510931 0
M  V30 4 C 4.278880 -0.913390 2.073611 0
M  V30 5 C 4.441813 0.575715 2.231517 0
M  V30 6 N 4.283451 1.189930 0.906090 0
M  V30 7 C 3.033734 0.657566 0.499769 0
M  V30 8 C 3.192402 -0.183684 -0.608746 0
M  V30 9 N 2.142202 -0.816814 -1.161402 0
M  V30 10 C 0.916109 -0.632725 -0.632278 0
M  V30 11 C 0.726597 0.188510 0.457621 0
M  V30 12 C -0.553855 0.450393 1.101406 0
M  V30 13 C -0.623818 1.287061 2.192498 0
M  V30 14 C -1.859469 1.534170 2.779408 0
M  V30 15 C -3.050465 0.969597 2.312516 0
M  V30 16 N -4.317283 1.088203 2.734103 0
M  V30 17 C -5.069729 0.327139 1.913954 0
M  V30 18 C -4.230035 -0.267822 0.970536 0
M  V30 19 C -4.673479 -1.161539 -0.085844 0
M  V30 20 C -5.016598 -0.660924 -1.322212 0
M  V30 21 C -5.434286 -1.519295 -2.320305 0
M  V30 22 C -5.779856 -0.965159 -3.579787 0
M  V30 23 N -6.048248 -0.496090 -4.616423 0
M  V30 24 C -5.530617 -2.887301 -2.146188 0
M  V30 25 C -5.180100 -3.368995 -0.894262 0
M  V30 26 C -4.755677 -2.507772 0.122774 0
M  V30 27 F -4.443133 -3.100947 1.298560 0
M  V30 28 C -2.913959 0.142575 1.220058 0
M  V30 29 C -1.705879 -0.124101 0.614532 0
M  V30 30 N 1.813344 0.808026 0.984453 0
M  V30 31 H 5.511453 -3.038855 -0.094819 0
M  V30 32 H 4.039314 -3.050788 0.933772 0
M  V30 33 H 5.697652 -3.472325 1.655375 0
M  V30 34 H 7.335723 -1.661522 0.920392 0
M  V30 35 H 6.871041 -1.112969 2.587013 0
M  V30 36 H 6.761172 0.024230 1.217669 0
M  V30 37 H 4.272779 -1.378806 3.083671 0
M  V30 38 H 3.261596 -1.167131 1.651504 0
M  V30 39 H 3.671577 0.998457 2.910494 0
M  V30 40 H 5.470649 0.739847 2.628138 0
M  V30 41 H 4.841584 1.835587 0.326896 0
M  V30 42 H 4.114215 -0.422129 -1.140406 0
M  V30 43 H 0.058691 -1.131937 -1.060024 0
M  V30 44 H 0.256577 1.775704 2.628829 0
M  V30 45 H -1.951102 2.198600 3.654718 0
M  V30 46 H -4.709340 1.640632 3.526512 0
M  V30 47 H -6.144401 0.172426 1.941753 0
M  V30 48 H -4.941909 0.406826 -1.466445 0
M  V30 49 H -5.854162 -3.587485 -2.904872 0
M  V30 50 H -5.252779 -4.433693 -0.745016 0
M  V30 51 H -1.742586 -0.778228 -0.218349 0
M  V30 END ATOM
M  V30 BEGIN BOND
M  V30 1 1 1 2
M  V30 2 1 2 3
M  V30 3 1 2 4
M  V30 4 1 4 5
M  V30 5 1 5 6
M  V30 6 1 6 7
M  V30 7 2 7 8
M  V30 8 1 8 9
M  V30 9 2 9 10
M  V30 10 1 10 11
M  V30 11 1 11 12
M  V30 12 2 12 13
M  V30 13 1 13 14
M  V30 14 2 14 15
M  V30 15 1 15 16
M  V30 16 1 16 17
M  V30 17 2 17 18
M  V30 18 1 18 19
M  V30 19 2 19 20
M  V30 20 1 20 21
M  V30 21 1 21 22
M  V30 22 3 22 23
M  V30 23 2 21 24
M  V30 24 1 24 25
M  V30 25 2 25 26
M  V30 26 1 26 27
M  V30 27 1 18 28
M  V30 28 2 28 29
M  V30 29 2 11 30
M  V30 30 1 30 7
M  V30 31 1 29 12
M  V30 32 1 28 15
M  V30 33 1 26 19
M  V30 34 1 1 31
M  V30 35 1 1 32
M  V30 36 1 1 33
M  V30 37 1 3 34
M  V30 38 1 3 35
M  V30 39 1 3 36
M  V30 40 1 4 37
M  V30 41 1 4 38
M  V30 42 1 5 39
M  V30 43 1 5 40
M  V30 44 1 6 41
M  V30 45 1 8 42
M  V30 46 1 10 43
M  V30 47 1 13 44
M  V30 48 1 14 45
M  V30 49 1 16 46
M  V30 50 1 17 47
M  V30 51 1 20 48
M  V30 52 1 24 49
M  V30 53 1 25 50
M  V30 54 1 29 51
M  V30 END BOND
M  V30 END CTAB
M  END
>  <Dataset>  (136) 
ChEMBL_Kinases

>  <Ligand_Instance>  (136) 
nan

>  <PDB_ID>  (136) 
nan

>  <Standardized_SMILES>  (136) 
CN(C)CCNc1cncc(-c2ccc3[nH]cc(-c4cc(C#N)ccc4F)c3c2)n1

>  <Name>  (136) 
nan

>  <Pocket>  (136) 
nan

>  <ATP_Site>  (136) 
nan

>  <Peripheral>  (136) 
nan

>  <Num_H_Atoms_ProtBoundConf>  (136) 
nan

>  <Num_Resolved_Atoms>  (136) 
nan

>  <Num_Not_Resolved_Atoms>  (136) 
nan

$$$$
CHEMBL1673041
     RDKit          3D

  0  0  0  0  0  0  0  0  0  0999 V3000
M  V30 BEGIN CTAB
M  V30 COUNTS 59 63 0 0 0
M  V30 BEGIN ATOM
M  V30 1 C 0.457536 -0.448422 5.479043 0
M  V30 2 O 0.196054 -0.605253 4.092833 0
M  V30 3 C 0.834986 0.227379 3.184651 0
M  V30 4 C 1.714126 1.195201 3.614853 0
M  V30 5 C 2.366029 2.038735 2.742278 0
M  V30 6 N 3.252504 2.996769 3.307141 0
M  V30 7 C 3.478772 2.980217 4.739827 0
M  V30 8 C 4.725383 3.806245 5.005077 0
M  V30 9 O 5.752134 3.500729 4.141090 0
M  V30 10 C 5.478979 3.810921 2.823874 0
M  V30 11 C 3.980769 4.027963 2.595933 0
M  V30 12 C 2.124583 1.903179 1.390651 0
M  V30 13 C 1.238117 0.923089 0.995864 0
M  V30 14 C 0.557935 0.052073 1.820559 0
M  V30 15 N -0.349097 -0.942903 1.369009 0
M  V30 16 C -0.743036 -1.260323 0.041373 0
M  V30 17 N -0.306889 -0.654616 -1.067160 0
M  V30 18 C -0.666703 -0.939035 -2.325952 0
M  V30 19 C -1.573137 -1.958046 -2.446629 0
M  V30 20 C -2.057304 -2.617776 -1.342705 0
M  V30 21 N -1.630142 -2.252395 -0.126726 0
M  V30 22 N -2.992667 -3.688718 -1.252215 0
M  V30 23 C -3.671696 -3.863521 -0.001221 0
M  V30 24 C -3.329411 -4.612063 -2.281359 0
M  V30 25 C -3.884766 -5.756737 -1.793964 0
M  V30 26 C -4.255604 -6.731349 -2.700350 0
M  V30 27 C -4.074371 -6.562225 -4.056432 0
M  V30 28 C -3.515878 -5.415149 -4.570615 0
M  V30 29 C -3.144742 -4.436055 -3.641187 0
M  V30 30 C -2.574677 -3.302385 -4.377098 0
M  V30 31 O -2.696879 -3.291871 -5.646940 0
M  V30 32 N -1.872304 -2.162084 -3.841754 0
M  V30 33 C -1.423726 -1.133147 -4.749871 0
M  V30 34 H 1.515003 -0.489020 5.743861 0
M  V30 35 H 0.060184 0.545300 5.830427 0
M  V30 36 H -0.087962 -1.196999 6.086500 0
M  V30 37 H 1.856525 1.248223 4.689667 0
M  V30 38 H 2.645807 3.373560 5.334012 0
M  V30 39 H 3.745639 1.928796 4.992862 0
M  V30 40 H 4.443929 4.868759 4.856454 0
M  V30 41 H 5.088666 3.672420 6.045107 0
M  V30 42 H 5.956169 4.796037 2.602039 0
M  V30 43 H 5.883889 3.078937 2.090798 0
M  V30 44 H 3.722451 5.045580 2.966579 0
M  V30 45 H 3.848040 3.940238 1.501921 0
M  V30 46 H 2.622150 2.548974 0.707201 0
M  V30 47 H 1.104172 0.880521 -0.062890 0
M  V30 48 H -0.777175 -1.512812 2.152539 0
M  V30 49 H -0.236573 -0.368083 -3.147815 0
M  V30 50 H -3.597153 -2.885654 0.562359 0
M  V30 51 H -3.226629 -4.596677 0.683957 0
M  V30 52 H -4.777348 -3.979027 -0.138522 0
M  V30 53 H -4.003255 -5.839509 -0.735028 0
M  V30 54 H -4.693862 -7.630345 -2.286618 0
M  V30 55 H -4.375201 -7.342060 -4.731489 0
M  V30 56 H -3.369559 -5.273661 -5.635225 0
M  V30 57 H -1.780096 -0.114098 -4.488333 0
M  V30 58 H -1.944017 -1.353990 -5.724448 0
M  V30 59 H -0.349802 -1.188774 -5.008243 0
M  V30 END ATOM
M  V30 BEGIN BOND
M  V30 1 1 1 2
M  V30 2 1 2 3
M  V30 3 2 3 4
M  V30 4 1 4 5
M  V30 5 1 5 6
M  V30 6 1 6 7
M  V30 7 1 7 8
M  V30 8 1 8 9
M  V30 9 1 9 10
M  V30 10 1 10 11
M  V30 11 2 5 12
M  V30 12 1 12 13
M  V30 13 2 13 14
M  V30 14 1 14 15
M  V30 15 1 15 16
M  V30 16 2 16 17
M  V30 17 1 17 18
M  V30 18 2 18 19
M  V30 19 1 19 20
M  V30 20 2 20 21
M  V30 21 1 20 22
M  V30 22 1 22 23
M  V30 23 1 22 24
M  V30 24 2 24 25
M  V30 25 1 25 26
M  V30 26 2 26 27
M  V30 27 1 27 28
M  V30 28 2 28 29
M  V30 29 1 29 30
M  V30 30 2 30 31
M  V30 31 1 30 32
M  V30 32 1 32 33
M  V30 33 1 14 3
M  V30 34 1 21 16
M  V30 35 1 29 24
M  V30 36 1 11 6
M  V30 37 1 32 19
M  V30 38 1 1 34
M  V30 39 1 1 35
M  V30 40 1 1 36
M  V30 41 1 4 37
M  V30 42 1 7 38
M  V30 43 1 7 39
M  V30 44 1 8 40
M  V30 45 1 8 41
M  V30 46 1 10 42
M  V30 47 1 10 43
M  V30 48 1 11 44
M  V30 49 1 11 45
M  V30 50 1 12 46
M  V30 51 1 13 47
M  V30 52 1 15 48
M  V30 53 1 18 49
M  V30 54 1 23 50
M  V30 55 1 23 51
M  V30 56 1 23 52
M  V30 57 1 25 53
M  V30 58 1 26 54
M  V30 59 1 27 55
M  V30 60 1 28 56
M  V30 61 1 33 57
M  V30 62 1 33 58
M  V30 63 1 33 59
M  V30 END BOND
M  V30 END CTAB
M  END
>  <Dataset>  (137) 
ChEMBL_Kinases

>  <Ligand_Instance>  (137) 
nan

>  <PDB_ID>  (137) 
nan

>  <Standardized_SMILES>  (137) 
COc1cc(N2CCOCC2)ccc1Nc1ncc2c(n1)N(C)c1ccccc1C(=O)N2C

>  <Name>  (137) 
nan

>  <Pocket>  (137) 
nan

>  <ATP_Site>  (137) 
nan

>  <Peripheral>  (137) 
nan

>  <Num_H_Atoms_ProtBoundConf>  (137) 
nan

>  <Num_Resolved_Atoms>  (137) 
nan

>  <Num_Not_Resolved_Atoms>  (137) 
nan

$$$$
CHEMBL1673042
     RDKit          3D

  0  0  0  0  0  0  0  0  0  0999 V3000
M  V30 BEGIN CTAB
M  V30 COUNTS 60 64 0 0 0
M  V30 BEGIN ATOM
M  V30 1 C 1.952863 -1.516848 4.858455 0
M  V30 2 O 1.254612 -1.422040 3.651267 0
M  V30 3 C 1.460902 -0.330543 2.820138 0
M  V30 4 C 2.349369 0.657841 3.179543 0
M  V30 5 C 2.582142 1.756720 2.382579 0
M  V30 6 N 3.520846 2.716492 2.852054 0
M  V30 7 C 4.172573 2.491765 4.128390 0
M  V30 8 C 5.240629 3.497100 4.398976 0
M  V30 9 N 6.131520 3.530293 3.254009 0
M  V30 10 C 5.433314 4.062366 2.103541 0
M  V30 11 C 3.939492 3.928315 2.225447 0
M  V30 12 C 1.902136 1.855137 1.200501 0
M  V30 13 C 1.019698 0.847365 0.871211 0
M  V30 14 C 0.747955 -0.272127 1.628285 0
M  V30 15 N -0.169177 -1.287771 1.252348 0
M  V30 16 C -0.971679 -1.386276 0.085023 0
M  V30 17 N -1.016063 -0.510739 -0.914293 0
M  V30 18 C -1.745189 -0.558913 -2.018607 0
M  V30 19 C -2.556944 -1.661143 -2.135457 0
M  V30 20 C -2.547639 -2.592784 -1.132222 0
M  V30 21 N -1.771219 -2.455130 -0.047904 0
M  V30 22 N -3.312169 -3.810012 -1.052312 0
M  V30 23 C -3.539236 -4.342066 0.254715 0
M  V30 24 C -3.861945 -4.529401 -2.168517 0
M  V30 25 C -4.135525 -5.826482 -1.813470 0
M  V30 26 C -4.669856 -6.646140 -2.781605 0
M  V30 27 C -4.940329 -6.223902 -4.083345 0
M  V30 28 C -4.659015 -4.912953 -4.426323 0
M  V30 29 C -4.119411 -4.074981 -3.458559 0
M  V30 30 C -3.905235 -2.739898 -4.046365 0
M  V30 31 O -4.248111 -2.504507 -5.215032 0
M  V30 32 N -3.304618 -1.634021 -3.349125 0
M  V30 33 C -3.459685 -0.319962 -3.923054 0
M  V30 34 H 3.054128 -1.480892 4.713829 0
M  V30 35 H 1.704129 -0.710955 5.576036 0
M  V30 36 H 1.716604 -2.483521 5.367270 0
M  V30 37 H 2.858888 0.516380 4.137078 0
M  V30 38 H 4.661489 1.485904 4.080087 0
M  V30 39 H 3.388285 2.508656 4.911956 0
M  V30 40 H 4.835798 4.508680 4.542583 0
M  V30 41 H 5.844157 3.162575 5.267692 0
M  V30 42 H 6.554245 2.594923 3.062528 0
M  V30 43 H 5.753806 3.471288 1.221871 0
M  V30 44 H 5.761989 5.101012 1.949136 0
M  V30 45 H 3.600539 4.827171 2.815687 0
M  V30 46 H 3.461195 4.029715 1.232587 0
M  V30 47 H 2.071966 2.710620 0.562143 0
M  V30 48 H 0.526260 1.001948 -0.074769 0
M  V30 49 H -0.249783 -2.076725 1.961657 0
M  V30 50 H -1.726758 0.197361 -2.791865 0
M  V30 51 H -2.827353 -5.117213 0.584679 0
M  V30 52 H -4.609168 -4.664328 0.416041 0
M  V30 53 H -3.425401 -3.507693 1.004610 0
M  V30 54 H -3.925645 -6.142110 -0.815018 0
M  V30 55 H -4.885306 -7.679641 -2.490300 0
M  V30 56 H -5.358130 -6.902491 -4.803778 0
M  V30 57 H -4.848572 -4.531902 -5.421245 0
M  V30 58 H -3.719570 0.449162 -3.159734 0
M  V30 59 H -4.382465 -0.373408 -4.570095 0
M  V30 60 H -2.653658 -0.024231 -4.596088 0
M  V30 END ATOM
M  V30 BEGIN BOND
M  V30 1 1 1 2
M  V30 2 1 2 3
M  V30 3 2 3 4
M  V30 4 1 4 5
M  V30 5 1 5 6
M  V30 6 1 6 7
M  V30 7 1 7 8
M  V30 8 1 8 9
M  V30 9 1 9 10
M  V30 10 1 10 11
M  V30 11 2 5 12
M  V30 12 1 12 13
M  V30 13 2 13 14
M  V30 14 1 14 15
M  V30 15 1 15 16
M  V30 16 2 16 17
M  V30 17 1 17 18
M  V30 18 2 18 19
M  V30 19 1 19 20
M  V30 20 2 20 21
M  V30 21 1 20 22
M  V30 22 1 22 23
M  V30 23 1 22 24
M  V30 24 2 24 25
M  V30 25 1 25 26
M  V30 26 2 26 27
M  V30 27 1 27 28
M  V30 28 2 28 29
M  V30 29 1 29 30
M  V30 30 2 30 31
M  V30 31 1 30 32
M  V30 32 1 32 33
M  V30 33 1 14 3
M  V30 34 1 21 16
M  V30 35 1 29 24
M  V30 36 1 11 6
M  V30 37 1 32 19
M  V30 38 1 1 34
M  V30 39 1 1 35
M  V30 40 1 1 36
M  V30 41 1 4 37
M  V30 42 1 7 38
M  V30 43 1 7 39
M  V30 44 1 8 40
M  V30 45 1 8 41
M  V30 46 1 9 42
M  V30 47 1 10 43
M  V30 48 1 10 44
M  V30 49 1 11 45
M  V30 50 1 11 46
M  V30 51 1 12 47
M  V30 52 1 13 48
M  V30 53 1 15 49
M  V30 54 1 18 50
M  V30 55 1 23 51
M  V30 56 1 23 52
M  V30 57 1 23 53
M  V30 58 1 25 54
M  V30 59 1 26 55
M  V30 60 1 27 56
M  V30 61 1 28 57
M  V30 62 1 33 58
M  V30 63 1 33 59
M  V30 64 1 33 60
M  V30 END BOND
M  V30 END CTAB
M  END
>  <Dataset>  (138) 
ChEMBL_Kinases

>  <Ligand_Instance>  (138) 
nan

>  <PDB_ID>  (138) 
nan

>  <Standardized_SMILES>  (138) 
COc1cc(N2CCNCC2)ccc1Nc1ncc2c(n1)N(C)c1ccccc1C(=O)N2C

>  <Name>  (138) 
nan

>  <Pocket>  (138) 
nan

>  <ATP_Site>  (138) 
nan

>  <Peripheral>  (138) 
nan

>  <Num_H_Atoms_ProtBoundConf>  (138) 
nan

>  <Num_Resolved_Atoms>  (138) 
nan

>  <Num_Not_Resolved_Atoms>  (138) 
nan

$$$$
CHEMBL1673048
     RDKit          3D

  0  0  0  0  0  0  0  0  0  0999 V3000
M  V30 BEGIN CTAB
M  V30 COUNTS 68 72 0 0 0
M  V30 BEGIN ATOM
M  V30 1 C 1.346953 0.319577 6.678492 0
M  V30 2 O 1.208044 -0.565700 5.595063 0
M  V30 3 C 0.948180 -0.055495 4.342172 0
M  V30 4 C 0.802199 1.276546 4.021625 0
M  V30 5 C 0.546837 1.720063 2.768465 0
M  V30 6 C 0.408159 3.129495 2.536052 0
M  V30 7 O 0.586605 3.968314 3.460393 0
M  V30 8 N 0.065614 3.633449 1.266490 0
M  V30 9 C -0.145504 4.958646 0.723131 0
M  V30 10 C 0.726543 5.262413 -0.438192 0
M  V30 11 C 0.112388 4.987054 -1.777190 0
M  V30 12 N -0.885542 3.948880 -1.614750 0
M  V30 13 C -1.307518 3.380321 -2.855040 0
M  V30 14 C -2.000591 4.582591 -0.926302 0
M  V30 15 C -1.619806 5.062405 0.432154 0
M  V30 16 C 0.423220 0.811786 1.747160 0
M  V30 17 C 0.566298 -0.516508 2.054010 0
M  V30 18 C 0.829485 -1.009915 3.335980 0
M  V30 19 N 0.933348 -2.437971 3.524411 0
M  V30 20 C 0.847184 -3.287363 2.388144 0
M  V30 21 N 2.051521 -3.870839 2.160115 0
M  V30 22 C 2.255591 -4.726409 1.122583 0
M  V30 23 C 1.185723 -4.988290 0.294303 0
M  V30 24 C -0.036359 -4.392998 0.528976 0
M  V30 25 N -0.201692 -3.538468 1.583998 0
M  V30 26 N -1.286111 -4.468272 -0.166067 0
M  V30 27 C -2.506549 -4.198215 0.523629 0
M  V30 28 C -1.410093 -4.802309 -1.565701 0
M  V30 29 C -2.587064 -4.277057 -2.110826 0
M  V30 30 C -2.856995 -4.503163 -3.449620 0
M  V30 31 C -1.955519 -5.237972 -4.196288 0
M  V30 32 C -0.798576 -5.751416 -3.649841 0
M  V30 33 C -0.512316 -5.536828 -2.318366 0
M  V30 34 C 0.750267 -6.157402 -1.932555 0
M  V30 35 O 1.234335 -7.021036 -2.714243 0
M  V30 36 N 1.525642 -5.898339 -0.744090 0
M  V30 37 C 2.766890 -6.628687 -0.576834 0
M  V30 38 H 1.218380 -0.250825 7.625554 0
M  V30 39 H 2.399476 0.707124 6.696350 0
M  V30 40 H 0.647436 1.161599 6.680924 0
M  V30 41 H 0.900969 1.991670 4.833035 0
M  V30 42 H -0.106041 3.040157 0.428786 0
M  V30 43 H 0.079309 5.677674 1.538198 0
M  V30 44 H 1.008810 6.354711 -0.449497 0
M  V30 45 H 1.686807 4.721847 -0.345930 0
M  V30 46 H 0.897041 4.661147 -2.468938 0
M  V30 47 H -0.442089 5.889875 -2.105168 0
M  V30 48 H -2.283121 2.875934 -2.702958 0
M  V30 49 H -1.311699 4.106684 -3.687143 0
M  V30 50 H -0.590482 2.538481 -3.084242 0
M  V30 51 H -2.822932 3.844486 -0.861573 0
M  V30 52 H -2.300566 5.431198 -1.600325 0
M  V30 53 H -2.232063 4.529845 1.183557 0
M  V30 54 H -1.931611 6.145707 0.504595 0
M  V30 55 H 0.221642 1.076553 0.720154 0
M  V30 56 H 0.471735 -1.242954 1.254823 0
M  V30 57 H 1.070198 -2.697122 4.544943 0
M  V30 58 H 3.208168 -5.195996 0.931696 0
M  V30 59 H -2.362267 -4.449583 1.617571 0
M  V30 60 H -3.343971 -4.893373 0.235402 0
M  V30 61 H -2.813346 -3.134584 0.544293 0
M  V30 62 H -3.217284 -3.719307 -1.433564 0
M  V30 63 H -3.773699 -4.084933 -3.844561 0
M  V30 64 H -2.214238 -5.390026 -5.257566 0
M  V30 65 H -0.102063 -6.329292 -4.261567 0
M  V30 66 H 2.833041 -7.147106 0.409582 0
M  V30 67 H 3.665678 -6.078581 -0.857498 0
M  V30 68 H 2.710771 -7.492760 -1.305606 0
M  V30 END ATOM
M  V30 BEGIN BOND
M  V30 1 1 1 2
M  V30 2 1 2 3
M  V30 3 2 3 4
M  V30 4 1 4 5
M  V30 5 1 5 6
M  V30 6 2 6 7
M  V30 7 1 6 8
M  V30 8 1 8 9
M  V30 9 1 9 10
M  V30 10 1 10 11
M  V30 11 1 11 12
M  V30 12 1 12 13
M  V30 13 1 12 14
M  V30 14 1 14 15
M  V30 15 2 5 16
M  V30 16 1 16 17
M  V30 17 2 17 18
M  V30 18 1 18 19
M  V30 19 1 19 20
M  V30 20 2 20 21
M  V30 21 1 21 22
M  V30 22 2 22 23
M  V30 23 1 23 24
M  V30 24 2 24 25
M  V30 25 1 24 26
M  V30 26 1 26 27
M  V30 27 1 26 28
M  V30 28 2 28 29
M  V30 29 1 29 30
M  V30 30 2 30 31
M  V30 31 1 31 32
M  V30 32 2 32 33
M  V30 33 1 33 34
M  V30 34 2 34 35
M  V30 35 1 34 36
M  V30 36 1 36 37
M  V30 37 1 18 3
M  V30 38 1 25 20
M  V30 39 1 33 28
M  V30 40 1 15 9
M  V30 41 1 36 23
M  V30 42 1 1 38
M  V30 43 1 1 39
M  V30 44 1 1 40
M  V30 45 1 4 41
M  V30 46 1 8 42
M  V30 47 1 9 43
M  V30 48 1 10 44
M  V30 49 1 10 45
M  V30 50 1 11 46
M  V30 51 1 11 47
M  V30 52 1 13 48
M  V30 53 1 13 49
M  V30 54 1 13 50
M  V30 55 1 14 51
M  V30 56 1 14 52
M  V30 57 1 15 53
M  V30 58 1 15 54
M  V30 59 1 16 55
M  V30 60 1 17 56
M  V30 61 1 19 57
M  V30 62 1 22 58
M  V30 63 1 27 59
M  V30 64 1 27 60
M  V30 65 1 27 61
M  V30 66 1 29 62
M  V30 67 1 30 63
M  V30 68 1 31 64
M  V30 69 1 32 65
M  V30 70 1 37 66
M  V30 71 1 37 67
M  V30 72 1 37 68
M  V30 END BOND
M  V30 END CTAB
M  END
>  <Dataset>  (139) 
ChEMBL_Kinases

>  <Ligand_Instance>  (139) 
nan

>  <PDB_ID>  (139) 
nan

>  <Standardized_SMILES>  (139) 
COc1cc(C(=O)NC2CCN(C)CC2)ccc1Nc1ncc2c(n1)N(C)c1ccccc1C(=O)N2C

>  <Name>  (139) 
nan

>  <Pocket>  (139) 
nan

>  <ATP_Site>  (139) 
nan

>  <Peripheral>  (139) 
nan

>  <Num_H_Atoms_ProtBoundConf>  (139) 
nan

>  <Num_Resolved_Atoms>  (139) 
nan

>  <Num_Not_Resolved_Atoms>  (139) 
nan

$$$$
CHEMBL4788156
     RDKit          3D

  0  0  0  0  0  0  0  0  0  0999 V3000
M  V30 BEGIN CTAB
M  V30 COUNTS 59 63 0 0 0
M  V30 BEGIN ATOM
M  V30 1 C 8.247765 -2.059365 3.166046 0
M  V30 2 N 7.102096 -2.069947 2.288391 0
M  V30 3 C 7.343189 -2.663960 1.014071 0
M  V30 4 C 6.274281 -2.235801 0.041310 0
M  V30 5 C 4.929295 -2.439242 0.688722 0
M  V30 6 O 4.209421 -1.257937 0.841875 0
M  V30 7 C 2.999749 -0.918355 0.314398 0
M  V30 8 C 2.640455 0.359084 0.702283 0
M  V30 9 C 1.437498 0.944865 0.294114 0
M  V30 10 C 0.596774 0.210904 -0.519184 0
M  V30 11 N -0.647457 0.601189 -1.042524 0
M  V30 12 C -1.214004 1.202514 -2.155379 0
M  V30 13 O -0.269602 1.480780 -2.934081 0
M  V30 14 C -2.566913 1.513803 -2.499628 0
M  V30 15 N -2.726206 2.183811 -3.670538 0
M  V30 16 N -4.021565 2.402524 -3.868874 0
M  V30 17 C -4.781975 1.918301 -2.892831 0
M  V30 18 C -6.102756 1.819322 -2.524203 0
M  V30 19 C -6.550024 1.216556 -1.387294 0
M  V30 20 C -5.559917 0.687665 -0.591814 0
M  V30 21 C -5.956832 0.009640 0.665201 0
M  V30 22 C -7.173428 -0.647628 0.688413 0
M  V30 23 C -7.564133 -1.289433 1.846068 0
M  V30 24 C -6.715770 -1.252859 2.959938 0
M  V30 25 N -7.095719 -1.917001 4.181983 0
M  V30 26 N -5.515332 -0.598576 2.923692 0
M  V30 27 C -5.129792 0.036478 1.774880 0
M  V30 28 C -4.195342 0.731563 -0.868383 0
M  V30 29 C -3.851383 1.363620 -2.041237 0
M  V30 30 C 0.938217 -1.068697 -0.918025 0
M  V30 31 C 2.145174 -1.633848 -0.498888 0
M  V30 32 C 4.995576 -3.268153 1.948965 0
M  V30 33 C 5.984391 -2.722369 2.943671 0
M  V30 34 H 8.353098 -3.004660 3.743722 0
M  V30 35 H 9.166868 -1.854064 2.607111 0
M  V30 36 H 8.048625 -1.262199 3.915388 0
M  V30 37 H 7.325736 -3.779531 1.144588 0
M  V30 38 H 8.364159 -2.431196 0.649077 0
M  V30 39 H 6.416263 -2.902015 -0.862423 0
M  V30 40 H 6.446618 -1.177969 -0.247264 0
M  V30 41 H 4.331586 -3.075801 -0.028279 0
M  V30 42 H 3.207539 1.051972 1.344198 0
M  V30 43 H 1.088334 1.933909 0.556416 0
M  V30 44 H -1.275217 0.302828 -0.272152 0
M  V30 45 H -4.429680 2.903526 -4.700373 0
M  V30 46 H -6.830150 2.272042 -3.218084 0
M  V30 47 H -7.587489 1.140234 -1.095477 0
M  V30 48 H -7.826509 -0.671705 -0.179647 0
M  V30 49 H -8.513087 -1.832622 1.939672 0
M  V30 50 H -6.468131 -2.734226 4.365163 0
M  V30 51 H -7.836305 -1.785578 4.927843 0
M  V30 52 H -4.186703 0.562800 1.715007 0
M  V30 53 H -3.486297 0.296601 -0.205723 0
M  V30 54 H 0.391297 -1.741934 -1.539535 0
M  V30 55 H 2.499558 -2.622480 -0.755159 0
M  V30 56 H 4.020499 -3.313128 2.427568 0
M  V30 57 H 5.308416 -4.301975 1.696756 0
M  V30 58 H 6.397080 -3.581344 3.510659 0
M  V30 59 H 5.537031 -2.045871 3.699356 0
M  V30 END ATOM
M  V30 BEGIN BOND
M  V30 1 1 1 2
M  V30 2 1 2 3
M  V30 3 1 3 4
M  V30 4 1 4 5
M  V30 5 1 5 6
M  V30 6 1 6 7
M  V30 7 2 7 8
M  V30 8 1 8 9
M  V30 9 2 9 10
M  V30 10 1 10 11
M  V30 11 1 11 12
M  V30 12 2 12 13
M  V30 13 1 12 14
M  V30 14 2 14 15
M  V30 15 1 15 16
M  V30 16 1 16 17
M  V30 17 2 17 18
M  V30 18 1 18 19
M  V30 19 2 19 20
M  V30 20 1 20 21
M  V30 21 2 21 22
M  V30 22 1 22 23
M  V30 23 2 23 24
M  V30 24 1 24 25
M  V30 25 1 24 26
M  V30 26 2 26 27
M  V30 27 1 20 28
M  V30 28 2 28 29
M  V30 29 1 10 30
M  V30 30 2 30 31
M  V30 31 1 5 32
M  V30 32 1 32 33
M  V30 33 1 33 2
M  V30 34 1 31 7
M  V30 35 1 29 14
M  V30 36 1 29 17
M  V30 37 1 27 21
M  V30 38 1 1 34
M  V30 39 1 1 35
M  V30 40 1 1 36
M  V30 41 1 3 37
M  V30 42 1 3 38
M  V30 43 1 4 39
M  V30 44 1 4 40
M  V30 45 1 5 41
M  V30 46 1 8 42
M  V30 47 1 9 43
M  V30 48 1 11 44
M  V30 49 1 16 45
M  V30 50 1 18 46
M  V30 51 1 19 47
M  V30 52 1 22 48
M  V30 53 1 23 49
M  V30 54 1 25 50
M  V30 55 1 25 51
M  V30 56 1 27 52
M  V30 57 1 28 53
M  V30 58 1 30 54
M  V30 59 1 31 55
M  V30 60 1 32 56
M  V30 61 1 32 57
M  V30 62 1 33 58
M  V30 63 1 33 59
M  V30 END BOND
M  V30 END CTAB
M  END
>  <Dataset>  (140) 
ChEMBL_Kinases

>  <Ligand_Instance>  (140) 
nan

>  <PDB_ID>  (140) 
nan

>  <Standardized_SMILES>  (140) 
CN1CCC(Oc2ccc(NC(=O)c3n[nH]c4ccc(-c5ccc(N)nc5)cc34)cc2)CC1

>  <Name>  (140) 
nan

>  <Pocket>  (140) 
nan

>  <ATP_Site>  (140) 
nan

>  <Peripheral>  (140) 
nan

>  <Num_H_Atoms_ProtBoundConf>  (140) 
nan

>  <Num_Resolved_Atoms>  (140) 
nan

>  <Num_Not_Resolved_Atoms>  (140) 
nan

$$$$
CHEMBL3338842
     RDKit          3D

  0  0  0  0  0  0  0  0  0  0999 V3000
M  V30 BEGIN CTAB
M  V30 COUNTS 39 42 0 0 0
M  V30 BEGIN ATOM
M  V30 1 N 1.671589 -4.952836 1.695013 0
M  V30 2 C 2.211694 -4.162596 2.751837 0
M  V30 3 C 1.196386 -3.227817 3.383306 0
M  V30 4 N 0.594223 -2.280144 2.564470 0
M  V30 5 C -0.012955 -1.320227 1.735332 0
M  V30 6 N 0.501959 -0.324208 0.995994 0
M  V30 7 C -0.217836 0.515944 0.252830 0
M  V30 8 C 0.486271 1.551072 -0.496071 0
M  V30 9 C -0.333338 2.371792 -1.240702 0
M  V30 10 C 0.329478 3.367618 -1.963609 0
M  V30 11 C 1.701899 3.474167 -1.899099 0
M  V30 12 N 2.589884 4.326986 -2.482917 0
M  V30 13 N 3.833161 4.037421 -2.116032 0
M  V30 14 C 3.825498 2.975342 -1.269213 0
M  V30 15 C 2.491623 2.627877 -1.137431 0
M  V30 16 C 1.858841 1.625476 -0.405954 0
M  V30 17 N -1.536500 0.320995 0.271340 0
M  V30 18 C -2.191602 -0.623147 0.954936 0
M  V30 19 C -3.562763 -0.635764 0.822079 0
M  V30 20 C -4.219170 -1.620118 1.536201 0
M  V30 21 C -3.515545 -2.509702 2.316839 0
M  V30 22 C -2.144252 -2.420113 2.388598 0
M  V30 23 C -1.397220 -1.464768 1.706965 0
M  V30 24 H 1.176740 -4.369151 0.983671 0
M  V30 25 H 1.140666 -5.789885 1.996304 0
M  V30 26 H 3.013575 -3.516889 2.320700 0
M  V30 27 H 2.688218 -4.806864 3.498602 0
M  V30 28 H 1.705440 -2.781370 4.288796 0
M  V30 29 H 0.393249 -3.877344 3.889073 0
M  V30 30 H 1.596675 -1.944496 2.380254 0
M  V30 31 H -1.402366 2.253987 -1.263636 0
M  V30 32 H -0.258083 4.047178 -2.570964 0
M  V30 33 H 2.301557 5.104521 -3.135165 0
M  V30 34 H 4.645346 2.461602 -0.769766 0
M  V30 35 H 2.415175 0.921527 0.216796 0
M  V30 36 H -4.065440 0.083803 0.197620 0
M  V30 37 H -5.296092 -1.663380 1.458322 0
M  V30 38 H -4.010505 -3.290752 2.885976 0
M  V30 39 H -1.618520 -3.126541 3.004817 0
M  V30 END ATOM
M  V30 BEGIN BOND
M  V30 1 1 1 2
M  V30 2 1 2 3
M  V30 3 1 3 4
M  V30 4 1 4 5
M  V30 5 2 5 6
M  V30 6 1 6 7
M  V30 7 1 7 8
M  V30 8 2 8 9
M  V30 9 1 9 10
M  V30 10 2 10 11
M  V30 11 1 11 12
M  V30 12 1 12 13
M  V30 13 2 13 14
M  V30 14 1 14 15
M  V30 15 2 15 16
M  V30 16 2 7 17
M  V30 17 1 17 18
M  V30 18 2 18 19
M  V30 19 1 19 20
M  V30 20 2 20 21
M  V30 21 1 21 22
M  V30 22 2 22 23
M  V30 23 1 23 5
M  V30 24 1 16 8
M  V30 25 1 23 18
M  V30 26 1 15 11
M  V30 27 1 1 24
M  V30 28 1 1 25
M  V30 29 1 2 26
M  V30 30 1 2 27
M  V30 31 1 3 28
M  V30 32 1 3 29
M  V30 33 1 4 30
M  V30 34 1 9 31
M  V30 35 1 10 32
M  V30 36 1 12 33
M  V30 37 1 14 34
M  V30 38 1 16 35
M  V30 39 1 19 36
M  V30 40 1 20 37
M  V30 41 1 21 38
M  V30 42 1 22 39
M  V30 END BOND
M  V30 END CTAB
M  END
>  <Dataset>  (141) 
ChEMBL_Kinases

>  <Ligand_Instance>  (141) 
nan

>  <PDB_ID>  (141) 
nan

>  <Standardized_SMILES>  (141) 
NCCNc1nc(-c2ccc3[nH]ncc3c2)nc2ccccc12

>  <Name>  (141) 
nan

>  <Pocket>  (141) 
nan

>  <ATP_Site>  (141) 
nan

>  <Peripheral>  (141) 
nan

>  <Num_H_Atoms_ProtBoundConf>  (141) 
nan

>  <Num_Resolved_Atoms>  (141) 
nan

>  <Num_Not_Resolved_Atoms>  (141) 
nan

$$$$
CHEMBL1673051
     RDKit          3D

  0  0  0  0  0  0  0  0  0  0999 V3000
M  V30 BEGIN CTAB
M  V30 COUNTS 66 70 0 0 0
M  V30 BEGIN ATOM
M  V30 1 C 1.346495 -0.251470 1.986423 0
M  V30 2 C 2.305681 0.803312 2.496141 0
M  V30 3 N 1.979926 2.075484 1.963350 0
M  V30 4 C 2.635221 3.167139 2.653367 0
M  V30 5 C 3.731341 2.807666 3.407061 0
M  V30 6 C 4.489737 3.696246 4.138713 0
M  V30 7 C 4.108217 5.015311 4.097356 0
M  V30 8 C 3.029556 5.485627 3.377604 0
M  V30 9 C 2.326946 4.531727 2.675627 0
M  V30 10 C 1.212649 5.217219 1.983094 0
M  V30 11 O 1.045461 6.457369 2.112952 0
M  V30 12 N 0.212852 4.634889 1.116627 0
M  V30 13 C -1.031799 5.312985 0.861115 0
M  V30 14 C 0.345797 3.386161 0.447956 0
M  V30 15 C -0.390454 3.303833 -0.715359 0
M  V30 16 N -0.317997 2.157460 -1.432546 0
M  V30 17 C 0.443984 1.102629 -1.049727 0
M  V30 18 N 0.499605 -0.088897 -1.821826 0
M  V30 19 C -0.345543 -1.210267 -1.614261 0
M  V30 20 C -1.242908 -1.107430 -0.571424 0
M  V30 21 C -2.091577 -2.156524 -0.300064 0
M  V30 22 C -2.100674 -3.327827 -1.020743 0
M  V30 23 N -2.946893 -4.447861 -0.794179 0
M  V30 24 C -2.973963 -5.703892 -1.511579 0
M  V30 25 C -2.583521 -6.805184 -0.563118 0
M  V30 26 N -2.517584 -6.454635 0.813971 0
M  V30 27 C -1.221907 -6.128732 1.260286 0
M  V30 28 C -3.529289 -5.544956 1.244755 0
M  V30 29 C -3.971495 -4.535947 0.226307 0
M  V30 30 C -1.201231 -3.419403 -2.059195 0
M  V30 31 C -0.336952 -2.387846 -2.358899 0
M  V30 32 O 0.614683 -2.330087 -3.362538 0
M  V30 33 C 0.862549 -3.354752 -4.275372 0
M  V30 34 N 1.145820 1.220863 0.088495 0
M  V30 35 C 1.126031 2.326297 0.856217 0
M  V30 36 H 1.705257 -0.786837 1.087126 0
M  V30 37 H 1.265675 -1.097543 2.752955 0
M  V30 38 H 0.299121 0.096627 1.909661 0
M  V30 39 H 2.194699 0.790592 3.613509 0
M  V30 40 H 3.314255 0.433264 2.182218 0
M  V30 41 H 4.015280 1.767065 3.436097 0
M  V30 42 H 5.334305 3.358648 4.708164 0
M  V30 43 H 4.705731 5.733500 4.677021 0
M  V30 44 H 2.741918 6.527409 3.354984 0
M  V30 45 H -1.917863 4.655574 0.876489 0
M  V30 46 H -1.178021 6.013086 1.729913 0
M  V30 47 H -0.991701 5.996539 -0.019409 0
M  V30 48 H -0.960726 4.168462 -0.946874 0
M  V30 49 H 1.210397 -0.146665 -2.596319 0
M  V30 50 H -1.308347 -0.227564 0.049011 0
M  V30 51 H -2.776376 -2.054361 0.511740 0
M  V30 52 H -2.353094 -5.708225 -2.434391 0
M  V30 53 H -4.026361 -5.908193 -1.887176 0
M  V30 54 H -3.302150 -7.671008 -0.632509 0
M  V30 55 H -1.586167 -7.244593 -0.865526 0
M  V30 56 H -0.465284 -6.928604 1.110669 0
M  V30 57 H -1.257014 -5.808001 2.337158 0
M  V30 58 H -0.838936 -5.247482 0.710879 0
M  V30 59 H -3.211864 -5.001790 2.165220 0
M  V30 60 H -4.421663 -6.155301 1.555935 0
M  V30 61 H -4.087826 -3.543173 0.706763 0
M  V30 62 H -4.954044 -4.850876 -0.204820 0
M  V30 63 H -1.046821 -4.232549 -2.732204 0
M  V30 64 H -0.067435 -3.904125 -4.464709 0
M  V30 65 H 1.251061 -2.949184 -5.259319 0
M  V30 66 H 1.612011 -4.095497 -3.871604 0
M  V30 END ATOM
M  V30 BEGIN BOND
M  V30 1 1 1 2
M  V30 2 1 2 3
M  V30 3 1 3 4
M  V30 4 2 4 5
M  V30 5 1 5 6
M  V30 6 2 6 7
M  V30 7 1 7 8
M  V30 8 2 8 9
M  V30 9 1 9 10
M  V30 10 2 10 11
M  V30 11 1 10 12
M  V30 12 1 12 13
M  V30 13 1 12 14
M  V30 14 2 14 15
M  V30 15 1 15 16
M  V30 16 2 16 17
M  V30 17 1 17 18
M  V30 18 1 18 19
M  V30 19 2 19 20
M  V30 20 1 20 21
M  V30 21 2 21 22
M  V30 22 1 22 23
M  V30 23 1 23 24
M  V30 24 1 24 25
M  V30 25 1 25 26
M  V30 26 1 26 27
M  V30 27 1 26 28
M  V30 28 1 28 29
M  V30 29 1 22 30
M  V30 30 2 30 31
M  V30 31 1 31 32
M  V30 32 1 32 33
M  V30 33 1 17 34
M  V30 34 2 34 35
M  V30 35 1 35 3
M  V30 36 1 9 4
M  V30 37 1 35 14
M  V30 38 1 31 19
M  V30 39 1 29 23
M  V30 40 1 1 36
M  V30 41 1 1 37
M  V30 42 1 1 38
M  V30 43 1 2 39
M  V30 44 1 2 40
M  V30 45 1 5 41
M  V30 46 1 6 42
M  V30 47 1 7 43
M  V30 48 1 8 44
M  V30 49 1 13 45
M  V30 50 1 13 46
M  V30 51 1 13 47
M  V30 52 1 15 48
M  V30 53 1 18 49
M  V30 54 1 20 50
M  V30 55 1 21 51
M  V30 56 1 24 52
M  V30 57 1 24 53
M  V30 58 1 25 54
M  V30 59 1 25 55
M  V30 60 1 27 56
M  V30 61 1 27 57
M  V30 62 1 27 58
M  V30 63 1 28 59
M  V30 64 1 28 60
M  V30 65 1 29 61
M  V30 66 1 29 62
M  V30 67 1 30 63
M  V30 68 1 33 64
M  V30 69 1 33 65
M  V30 70 1 33 66
M  V30 END BOND
M  V30 END CTAB
M  END
>  <Dataset>  (142) 
ChEMBL_Kinases

>  <Ligand_Instance>  (142) 
nan

>  <PDB_ID>  (142) 
nan

>  <Standardized_SMILES>  (142) 
CCN1c2ccccc2C(=O)N(C)c2cnc(Nc3ccc(N4CCN(C)CC4)cc3OC)nc21

>  <Name>  (142) 
nan

>  <Pocket>  (142) 
nan

>  <ATP_Site>  (142) 
nan

>  <Peripheral>  (142) 
nan

>  <Num_H_Atoms_ProtBoundConf>  (142) 
nan

>  <Num_Resolved_Atoms>  (142) 
nan

>  <Num_Not_Resolved_Atoms>  (142) 
nan

$$$$
CHEMBL1673052
     RDKit          3D

  0  0  0  0  0  0  0  0  0  0999 V3000
M  V30 BEGIN CTAB
M  V30 COUNTS 69 73 0 0 0
M  V30 BEGIN ATOM
M  V30 1 C -0.120762 0.899986 5.681147 0
M  V30 2 O -0.583937 0.773661 4.345475 0
M  V30 3 C 0.248507 0.956302 3.254963 0
M  V30 4 C 1.584411 1.273285 3.386440 0
M  V30 5 C 2.410414 1.454422 2.302167 0
M  V30 6 N 3.782061 1.778671 2.446791 0
M  V30 7 C 4.448515 1.921846 3.705720 0
M  V30 8 C 5.538755 0.878769 3.748008 0
M  V30 9 N 5.707138 0.131228 2.548460 0
M  V30 10 C 5.159281 -1.187092 2.538623 0
M  V30 11 C 5.646115 0.847513 1.317903 0
M  V30 12 C 4.677319 2.004309 1.331215 0
M  V30 13 C 1.792491 1.292986 1.085032 0
M  V30 14 C 0.460906 0.976425 0.907432 0
M  V30 15 C -0.329874 0.804109 2.025041 0
M  V30 16 N -1.705414 0.478597 1.868609 0
M  V30 17 C -2.318513 0.313997 0.595789 0
M  V30 18 N -2.896304 1.316719 -0.107344 0
M  V30 19 C -3.470334 1.115316 -1.318394 0
M  V30 20 C -3.487685 -0.131292 -1.885818 0
M  V30 21 C -2.878464 -1.128336 -1.118747 0
M  V30 22 N -2.305827 -0.935568 0.085877 0
M  V30 23 N -2.765133 -2.498999 -1.479911 0
M  V30 24 C -2.702530 -3.497852 -0.434185 0
M  V30 25 C -1.501153 -3.414646 0.442296 0
M  V30 26 C -3.883751 -3.113617 0.488426 0
M  V30 27 C -2.695617 -3.042913 -2.812731 0
M  V30 28 C -1.924686 -4.214777 -2.870162 0
M  V30 29 C -1.793567 -4.826527 -4.099591 0
M  V30 30 C -2.401294 -4.291263 -5.205079 0
M  V30 31 C -3.166573 -3.135387 -5.172586 0
M  V30 32 C -3.306571 -2.512816 -3.950130 0
M  V30 33 C -4.130690 -1.313584 -4.092020 0
M  V30 34 O -4.897730 -1.217986 -5.078619 0
M  V30 35 N -4.119619 -0.214562 -3.156631 0
M  V30 36 C -4.837745 0.965680 -3.539393 0
M  V30 37 H -0.998507 0.827641 6.330022 0
M  V30 38 H 0.618632 0.070097 5.836245 0
M  V30 39 H 0.394446 1.846649 5.853794 0
M  V30 40 H 1.912952 1.363323 4.389119 0
M  V30 41 H 4.997027 2.910399 3.689265 0
M  V30 42 H 3.830557 1.949873 4.594237 0
M  V30 43 H 5.241300 0.146566 4.553554 0
M  V30 44 H 6.519198 1.286106 4.068314 0
M  V30 45 H 4.808609 -1.401096 3.571631 0
M  V30 46 H 5.999854 -1.887682 2.346973 0
M  V30 47 H 4.402994 -1.367582 1.764768 0
M  V30 48 H 5.292581 0.142856 0.522973 0
M  V30 49 H 6.671009 1.130719 1.005915 0
M  V30 50 H 4.190516 2.170766 0.371113 0
M  V30 51 H 5.306311 2.915827 1.542104 0
M  V30 52 H 2.335658 1.408710 0.160970 0
M  V30 53 H 0.009670 0.857458 -0.066228 0
M  V30 54 H -2.314669 0.349189 2.706217 0
M  V30 55 H -3.923012 1.921946 -1.860429 0
M  V30 56 H -3.021875 -4.509187 -0.742641 0
M  V30 57 H -1.650759 -2.828112 1.381542 0
M  V30 58 H -0.603043 -2.983692 -0.064350 0
M  V30 59 H -1.220835 -4.439011 0.773174 0
M  V30 60 H -3.551990 -2.504755 1.324164 0
M  V30 61 H -4.331660 -4.031983 0.969494 0
M  V30 62 H -4.703217 -2.707387 -0.127476 0
M  V30 63 H -1.484544 -4.538990 -1.920055 0
M  V30 64 H -1.197022 -5.725445 -4.119028 0
M  V30 65 H -2.278709 -4.799687 -6.166110 0
M  V30 66 H -3.652910 -2.698075 -6.031692 0
M  V30 67 H -5.612769 1.290161 -2.804899 0
M  V30 68 H -5.429746 0.716188 -4.453781 0
M  V30 69 H -4.179352 1.805829 -3.878647 0
M  V30 END ATOM
M  V30 BEGIN BOND
M  V30 1 1 1 2
M  V30 2 1 2 3
M  V30 3 2 3 4
M  V30 4 1 4 5
M  V30 5 1 5 6
M  V30 6 1 6 7
M  V30 7 1 7 8
M  V30 8 1 8 9
M  V30 9 1 9 10
M  V30 10 1 9 11
M  V30 11 1 11 12
M  V30 12 2 5 13
M  V30 13 1 13 14
M  V30 14 2 14 15
M  V30 15 1 15 16
M  V30 16 1 16 17
M  V30 17 2 17 18
M  V30 18 1 18 19
M  V30 19 2 19 20
M  V30 20 1 20 21
M  V30 21 2 21 22
M  V30 22 1 21 23
M  V30 23 1 23 24
M  V30 24 1 24 25
M  V30 25 1 24 26
M  V30 26 1 23 27
M  V30 27 2 27 28
M  V30 28 1 28 29
M  V30 29 2 29 30
M  V30 30 1 30 31
M  V30 31 2 31 32
M  V30 32 1 32 33
M  V30 33 2 33 34
M  V30 34 1 33 35
M  V30 35 1 35 36
M  V30 36 1 15 3
M  V30 37 1 22 17
M  V30 38 1 32 27
M  V30 39 1 12 6
M  V30 40 1 35 20
M  V30 41 1 1 37
M  V30 42 1 1 38
M  V30 43 1 1 39
M  V30 44 1 4 40
M  V30 45 1 7 41
M  V30 46 1 7 42
M  V30 47 1 8 43
M  V30 48 1 8 44
M  V30 49 1 10 45
M  V30 50 1 10 46
M  V30 51 1 10 47
M  V30 52 1 11 48
M  V30 53 1 11 49
M  V30 54 1 12 50
M  V30 55 1 12 51
M  V30 56 1 13 52
M  V30 57 1 14 53
M  V30 58 1 16 54
M  V30 59 1 19 55
M  V30 60 1 24 56
M  V30 61 1 25 57
M  V30 62 1 25 58
M  V30 63 1 25 59
M  V30 64 1 26 60
M  V30 65 1 26 61
M  V30 66 1 26 62
M  V30 67 1 28 63
M  V30 68 1 29 64
M  V30 69 1 30 65
M  V30 70 1 31 66
M  V30 71 1 36 67
M  V30 72 1 36 68
M  V30 73 1 36 69
M  V30 END BOND
M  V30 END CTAB
M  END
>  <Dataset>  (143) 
ChEMBL_Kinases

>  <Ligand_Instance>  (143) 
nan

>  <PDB_ID>  (143) 
nan

>  <Standardized_SMILES>  (143) 
COc1cc(N2CCN(C)CC2)ccc1Nc1ncc2c(n1)N(C(C)C)c1ccccc1C(=O)N2C

>  <Name>  (143) 
nan

>  <Pocket>  (143) 
nan

>  <ATP_Site>  (143) 
nan

>  <Peripheral>  (143) 
nan

>  <Num_H_Atoms_ProtBoundConf>  (143) 
nan

>  <Num_Resolved_Atoms>  (143) 
nan

>  <Num_Not_Resolved_Atoms>  (143) 
nan

$$$$
CHEMBL3355165
     RDKit          3D

  0  0  0  0  0  0  0  0  0  0999 V3000
M  V30 BEGIN CTAB
M  V30 COUNTS 51 54 0 0 0
M  V30 BEGIN ATOM
M  V30 1 C 3.490342 -3.288848 7.640753 0
M  V30 2 C 2.822070 -3.427616 6.322960 0
M  V30 3 C 2.908838 -2.452629 5.364879 0
M  V30 4 C 2.333270 -2.477896 4.118614 0
M  V30 5 N 2.405237 -1.488687 3.110896 0
M  V30 6 C 3.068797 -0.243797 3.113011 0
M  V30 7 O 3.712711 0.099099 4.135956 0
M  V30 8 C 3.078803 0.708652 2.011257 0
M  V30 9 C 3.767787 1.881191 2.155124 0
M  V30 10 C 3.825193 2.846763 1.142909 0
M  V30 11 C 3.175860 2.643813 -0.057272 0
M  V30 12 C 2.476157 1.466086 -0.218777 0
M  V30 13 N 1.789473 1.218215 -1.448802 0
M  V30 14 C 0.498589 0.885449 -1.613894 0
M  V30 15 C 0.165154 0.719957 -2.938730 0
M  V30 16 N -1.059670 0.375228 -3.562905 0
M  V30 17 C -2.259252 0.118974 -2.864615 0
M  V30 18 O -2.225313 0.204139 -1.630640 0
M  V30 19 N -3.474605 -0.224317 -3.503448 0
M  V30 20 C -4.726862 -0.500752 -2.919185 0
M  V30 21 C -5.056673 -0.500449 -1.593524 0
M  V30 22 C -6.299718 -0.778407 -1.070419 0
M  V30 23 C -7.326568 -1.088887 -1.934334 0
M  V30 24 C -7.042251 -1.101924 -3.281839 0
M  V30 25 C -5.779243 -0.815416 -3.747903 0
M  V30 26 Cl -5.540949 -0.865279 -5.501090 0
M  V30 27 C 1.351265 0.975911 -3.589925 0
M  V30 28 N 2.287542 1.266922 -2.669721 0
M  V30 29 C 2.441524 0.537287 0.800529 0
M  V30 30 C 1.610379 -3.619596 3.863075 0
M  V30 31 C 1.497136 -4.622978 4.795961 0
M  V30 32 N 2.088574 -4.531399 5.999167 0
M  V30 33 H 2.994102 -3.863651 8.433204 0
M  V30 34 H 4.558316 -3.592092 7.522051 0
M  V30 35 H 3.442243 -2.186587 7.877750 0
M  V30 36 H 3.491473 -1.592424 5.641630 0
M  V30 37 H 1.916008 -1.644368 2.210015 0
M  V30 38 H 4.315423 2.144972 3.058032 0
M  V30 39 H 4.380453 3.779904 1.272788 0
M  V30 40 H 3.243136 3.408995 -0.811125 0
M  V30 41 H -0.161893 0.772694 -0.771312 0
M  V30 42 H -1.088410 0.303199 -4.606778 0
M  V30 43 H -3.381971 -0.265727 -4.541261 0
M  V30 44 H -4.298970 -0.265717 -0.866094 0
M  V30 45 H -6.483848 -0.758093 -0.007366 0
M  V30 46 H -8.296888 -1.305114 -1.513947 0
M  V30 47 H -7.829256 -1.341971 -3.977345 0
M  V30 48 H 1.536232 0.954877 -4.673978 0
M  V30 49 H 1.885013 -0.370232 0.637633 0
M  V30 50 H 1.108316 -3.738310 2.890026 0
M  V30 51 H 0.914628 -5.485871 4.522674 0
M  V30 END ATOM
M  V30 BEGIN BOND
M  V30 1 1 1 2
M  V30 2 2 2 3
M  V30 3 1 3 4
M  V30 4 1 4 5
M  V30 5 1 5 6
M  V30 6 2 6 7
M  V30 7 1 6 8
M  V30 8 2 8 9
M  V30 9 1 9 10
M  V30 10 2 10 11
M  V30 11 1 11 12
M  V30 12 1 12 13
M  V30 13 1 13 14
M  V30 14 2 14 15
M  V30 15 1 15 16
M  V30 16 1 16 17
M  V30 17 2 17 18
M  V30 18 1 17 19
M  V30 19 1 19 20
M  V30 20 2 20 21
M  V30 21 1 21 22
M  V30 22 2 22 23
M  V30 23 1 23 24
M  V30 24 2 24 25
M  V30 25 1 25 26
M  V30 26 1 15 27
M  V30 27 2 27 28
M  V30 28 2 12 29
M  V30 29 2 4 30
M  V30 30 1 30 31
M  V30 31 2 31 32
M  V30 32 1 32 2
M  V30 33 1 29 8
M  V30 34 1 28 13
M  V30 35 1 25 20
M  V30 36 1 1 33
M  V30 37 1 1 34
M  V30 38 1 1 35
M  V30 39 1 3 36
M  V30 40 1 5 37
M  V30 41 1 9 38
M  V30 42 1 10 39
M  V30 43 1 11 40
M  V30 44 1 14 41
M  V30 45 1 16 42
M  V30 46 1 19 43
M  V30 47 1 21 44
M  V30 48 1 22 45
M  V30 49 1 23 46
M  V30 50 1 24 47
M  V30 51 1 27 48
M  V30 52 1 29 49
M  V30 53 1 30 50
M  V30 54 1 31 51
M  V30 END BOND
M  V30 END CTAB
M  END
>  <Dataset>  (144) 
ChEMBL_Kinases

>  <Ligand_Instance>  (144) 
nan

>  <PDB_ID>  (144) 
nan

>  <Standardized_SMILES>  (144) 
Cc1cc(NC(=O)c2cccc(-n3cc(NC(=O)Nc4ccccc4Cl)cn3)c2)ccn1

>  <Name>  (144) 
nan

>  <Pocket>  (144) 
nan

>  <ATP_Site>  (144) 
nan

>  <Peripheral>  (144) 
nan

>  <Num_H_Atoms_ProtBoundConf>  (144) 
nan

>  <Num_Resolved_Atoms>  (144) 
nan

>  <Num_Not_Resolved_Atoms>  (144) 
nan

$$$$
CHEMBL1673053
     RDKit          3D

  0  0  0  0  0  0  0  0  0  0999 V3000
M  V30 BEGIN CTAB
M  V30 COUNTS 73 78 0 0 0
M  V30 BEGIN ATOM
M  V30 1 C 4.703780 2.729770 0.174617 0
M  V30 2 O 3.909944 1.587509 -0.051233 0
M  V30 3 C 2.542888 1.620353 0.233603 0
M  V30 4 C 2.026310 2.811850 0.740722 0
M  V30 5 C 0.692805 2.920890 1.046063 0
M  V30 6 N 0.088617 4.103862 1.553515 0
M  V30 7 C -1.209007 4.244294 2.163177 0
M  V30 8 C -1.978216 5.418412 1.629646 0
M  V30 9 N -1.418172 5.934057 0.425343 0
M  V30 10 C -1.683277 5.089238 -0.694635 0
M  V30 11 C -0.062144 6.340025 0.584853 0
M  V30 12 C 0.635123 5.446587 1.559881 0
M  V30 13 C -0.136122 1.843867 0.848205 0
M  V30 14 C 0.438655 0.684861 0.339663 0
M  V30 15 C 1.762868 0.504715 0.012862 0
M  V30 16 N 2.277046 -0.705057 -0.520073 0
M  V30 17 C 1.674805 -1.965852 -0.759625 0
M  V30 18 N 2.485689 -2.759693 -1.525188 0
M  V30 19 C 2.189209 -4.002247 -1.906136 0
M  V30 20 C 0.989579 -4.490803 -1.490578 0
M  V30 21 C 0.155882 -3.716608 -0.719947 0
M  V30 22 N 0.463668 -2.443018 -0.332023 0
M  V30 23 N -1.095651 -4.126066 -0.202904 0
M  V30 24 C -1.497360 -3.647612 1.062767 0
M  V30 25 C -0.381369 -3.871175 2.121256 0
M  V30 26 C -1.005464 -3.058884 3.261247 0
M  V30 27 C -1.148559 -1.735317 2.499801 0
M  V30 28 C -1.921382 -2.256031 1.276296 0
M  V30 29 C -2.026279 -5.020001 -0.864351 0
M  V30 30 C -3.333254 -4.720472 -0.526636 0
M  V30 31 C -4.326011 -5.513343 -1.094713 0
M  V30 32 C -4.034216 -6.543826 -1.949069 0
M  V30 33 C -2.733144 -6.852408 -2.294247 0
M  V30 34 C -1.734089 -6.077805 -1.741160 0
M  V30 35 C -0.398494 -6.526214 -2.203440 0
M  V30 36 O -0.328359 -7.606744 -2.819705 0
M  V30 37 N 0.856205 -5.827481 -2.010510 0
M  V30 38 C 2.058529 -6.548621 -2.375525 0
M  V30 39 H 5.766381 2.556224 -0.068017 0
M  V30 40 H 4.340838 3.560727 -0.492334 0
M  V30 41 H 4.637357 3.102472 1.214996 0
M  V30 42 H 2.680334 3.634972 0.889390 0
M  V30 43 H -1.851282 3.352822 2.098179 0
M  V30 44 H -1.004844 4.369749 3.268030 0
M  V30 45 H -2.054259 6.212493 2.423667 0
M  V30 46 H -3.054855 5.149236 1.431552 0
M  V30 47 H -2.550871 4.423621 -0.492124 0
M  V30 48 H -1.874993 5.675406 -1.627689 0
M  V30 49 H -0.800278 4.455325 -0.907985 0
M  V30 50 H 0.028601 7.383074 0.954701 0
M  V30 51 H 0.423626 6.245375 -0.422723 0
M  V30 52 H 1.721515 5.386661 1.246733 0
M  V30 53 H 0.670963 5.855766 2.588225 0
M  V30 54 H -1.205892 1.764158 1.034443 0
M  V30 55 H -0.147367 -0.180185 0.157510 0
M  V30 56 H 3.286180 -0.567849 -0.745039 0
M  V30 57 H 2.867727 -4.594384 -2.515581 0
M  V30 58 H -2.223556 -4.388036 1.551893 0
M  V30 59 H -0.221888 -4.915430 2.358329 0
M  V30 60 H 0.536110 -3.393728 1.837751 0
M  V30 61 H -2.038654 -3.436547 3.432094 0
M  V30 62 H -0.376976 -2.987189 4.144761 0
M  V30 63 H -1.716969 -0.991687 3.082117 0
M  V30 64 H -0.184107 -1.302724 2.266227 0
M  V30 65 H -2.990396 -2.180906 1.683259 0
M  V30 66 H -1.938994 -1.576365 0.433253 0
M  V30 67 H -3.481485 -3.890705 0.150141 0
M  V30 68 H -5.323886 -5.229146 -0.793031 0
M  V30 69 H -4.827198 -7.136174 -2.369292 0
M  V30 70 H -2.423300 -7.640076 -2.954617 0
M  V30 71 H 2.864448 -6.450866 -1.599060 0
M  V30 72 H 1.810020 -7.651691 -2.345092 0
M  V30 73 H 2.397655 -6.385029 -3.403359 0
M  V30 END ATOM
M  V30 BEGIN BOND
M  V30 1 1 1 2
M  V30 2 1 2 3
M  V30 3 2 3 4
M  V30 4 1 4 5
M  V30 5 1 5 6
M  V30 6 1 6 7
M  V30 7 1 7 8
M  V30 8 1 8 9
M  V30 9 1 9 10
M  V30 10 1 9 11
M  V30 11 1 11 12
M  V30 12 2 5 13
M  V30 13 1 13 14
M  V30 14 2 14 15
M  V30 15 1 15 16
M  V30 16 1 16 17
M  V30 17 2 17 18
M  V30 18 1 18 19
M  V30 19 2 19 20
M  V30 20 1 20 21
M  V30 21 2 21 22
M  V30 22 1 21 23
M  V30 23 1 23 24
M  V30 24 1 24 25
M  V30 25 1 25 26
M  V30 26 1 26 27
M  V30 27 1 27 28
M  V30 28 1 23 29
M  V30 29 2 29 30
M  V30 30 1 30 31
M  V30 31 2 31 32
M  V30 32 1 32 33
M  V30 33 2 33 34
M  V30 34 1 34 35
M  V30 35 2 35 36
M  V30 36 1 35 37
M  V30 37 1 37 38
M  V30 38 1 15 3
M  V30 39 1 22 17
M  V30 40 1 28 24
M  V30 41 1 34 29
M  V30 42 1 12 6
M  V30 43 1 37 20
M  V30 44 1 1 39
M  V30 45 1 1 40
M  V30 46 1 1 41
M  V30 47 1 4 42
M  V30 48 1 7 43
M  V30 49 1 7 44
M  V30 50 1 8 45
M  V30 51 1 8 46
M  V30 52 1 10 47
M  V30 53 1 10 48
M  V30 54 1 10 49
M  V30 55 1 11 50
M  V30 56 1 11 51
M  V30 57 1 12 52
M  V30 58 1 12 53
M  V30 59 1 13 54
M  V30 60 1 14 55
M  V30 61 1 16 56
M  V30 62 1 19 57
M  V30 63 1 24 58
M  V30 64 1 25 59
M  V30 65 1 25 60
M  V30 66 1 26 61
M  V30 67 1 26 62
M  V30 68 1 27 63
M  V30 69 1 27 64
M  V30 70 1 28 65
M  V30 71 1 28 66
M  V30 72 1 30 67
M  V30 73 1 31 68
M  V30 74 1 32 69
M  V30 75 1 33 70
M  V30 76 1 38 71
M  V30 77 1 38 72
M  V30 78 1 38 73
M  V30 END BOND
M  V30 END CTAB
M  END
>  <Dataset>  (145) 
ChEMBL_Kinases

>  <Ligand_Instance>  (145) 
nan

>  <PDB_ID>  (145) 
nan

>  <Standardized_SMILES>  (145) 
COc1cc(N2CCN(C)CC2)ccc1Nc1ncc2c(n1)N(C1CCCC1)c1ccccc1C(=O)N2C

>  <Name>  (145) 
nan

>  <Pocket>  (145) 
nan

>  <ATP_Site>  (145) 
nan

>  <Peripheral>  (145) 
nan

>  <Num_H_Atoms_ProtBoundConf>  (145) 
nan

>  <Num_Resolved_Atoms>  (145) 
nan

>  <Num_Not_Resolved_Atoms>  (145) 
nan

$$$$
CHEMBL3338841
     RDKit          3D

  0  0  0  0  0  0  0  0  0  0999 V3000
M  V30 BEGIN CTAB
M  V30 COUNTS 44 48 0 0 0
M  V30 BEGIN ATOM
M  V30 1 C -2.481429 -4.272889 0.136478 0
M  V30 2 C -1.812963 -4.109991 -1.059687 0
M  V30 3 C -0.890186 -3.107218 -1.274172 0
M  V30 4 C -0.622717 -2.217332 -0.229602 0
M  V30 5 C 0.285639 -1.189638 -0.365558 0
M  V30 6 N 0.989521 -1.005844 -1.603335 0
M  V30 7 C 0.455846 -0.742010 -2.942384 0
M  V30 8 C 1.016269 0.630489 -3.333011 0
M  V30 9 N 2.431657 0.496548 -3.487275 0
M  V30 10 C 3.104443 0.081332 -2.279598 0
M  V30 11 C 2.454341 -1.079139 -1.605079 0
M  V30 12 N 0.523245 -0.343009 0.666279 0
M  V30 13 C -0.118851 -0.486326 1.839603 0
M  V30 14 C 0.197112 0.467562 2.894078 0
M  V30 15 C 1.124701 1.450268 2.631928 0
M  V30 16 C 1.466241 2.391903 3.606440 0
M  V30 17 C 0.876247 2.348979 4.848504 0
M  V30 18 N 1.014960 3.109177 5.942095 0
M  V30 19 N 0.209570 2.643740 6.886091 0
M  V30 20 C -0.470052 1.576040 6.435902 0
M  V30 21 C -0.062057 1.365788 5.133762 0
M  V30 22 C -0.368475 0.462270 4.151010 0
M  V30 23 C -1.029807 -1.510590 1.987678 0
M  V30 24 C -1.306873 -2.406282 0.953594 0
M  V30 25 C -2.235114 -3.401518 1.194237 0
M  V30 26 H -3.206005 -5.063616 0.298716 0
M  V30 27 H -2.052098 -4.824491 -1.843840 0
M  V30 28 H -0.377382 -2.997808 -2.220281 0
M  V30 29 H 0.928083 -1.477249 -3.617471 0
M  V30 30 H -0.650832 -0.734001 -2.967298 0
M  V30 31 H 0.709996 1.326271 -2.533689 0
M  V30 32 H 0.571139 0.859845 -4.308430 0
M  V30 33 H 2.813723 1.451092 -3.718237 0
M  V30 34 H 3.320320 0.918197 -1.584295 0
M  V30 35 H 4.122736 -0.265878 -2.621708 0
M  V30 36 H 2.834656 -1.156382 -0.570762 0
M  V30 37 H 2.733577 -2.055416 -2.083955 0
M  V30 38 H 1.630176 1.559146 1.701000 0
M  V30 39 H 2.192857 3.168038 3.412836 0
M  V30 40 H 1.653916 3.928239 6.024071 0
M  V30 41 H -1.212795 0.934461 6.914235 0
M  V30 42 H -1.092483 -0.288877 4.385021 0
M  V30 43 H -1.549617 -1.633229 2.925227 0
M  V30 44 H -2.723349 -3.471469 2.158474 0
M  V30 END ATOM
M  V30 BEGIN BOND
M  V30 1 2 1 2
M  V30 2 1 2 3
M  V30 3 2 3 4
M  V30 4 1 4 5
M  V30 5 1 5 6
M  V30 6 1 6 7
M  V30 7 1 7 8
M  V30 8 1 8 9
M  V30 9 1 9 10
M  V30 10 1 10 11
M  V30 11 2 5 12
M  V30 12 1 12 13
M  V30 13 1 13 14
M  V30 14 2 14 15
M  V30 15 1 15 16
M  V30 16 2 16 17
M  V30 17 1 17 18
M  V30 18 1 18 19
M  V30 19 2 19 20
M  V30 20 1 20 21
M  V30 21 2 21 22
M  V30 22 2 13 23
M  V30 23 1 23 24
M  V30 24 2 24 25
M  V30 25 1 25 1
M  V30 26 1 24 4
M  V30 27 1 11 6
M  V30 28 1 22 14
M  V30 29 1 21 17
M  V30 30 1 1 26
M  V30 31 1 2 27
M  V30 32 1 3 28
M  V30 33 1 7 29
M  V30 34 1 7 30
M  V30 35 1 8 31
M  V30 36 1 8 32
M  V30 37 1 9 33
M  V30 38 1 10 34
M  V30 39 1 10 35
M  V30 40 1 11 36
M  V30 41 1 11 37
M  V30 42 1 15 38
M  V30 43 1 16 39
M  V30 44 1 18 40
M  V30 45 1 20 41
M  V30 46 1 22 42
M  V30 47 1 23 43
M  V30 48 1 25 44
M  V30 END BOND
M  V30 END CTAB
M  END
>  <Dataset>  (146) 
ChEMBL_Kinases

>  <Ligand_Instance>  (146) 
nan

>  <PDB_ID>  (146) 
nan

>  <Standardized_SMILES>  (146) 
c1ccc2c(N3CCNCC3)nc(-c3ccc4[nH]ncc4c3)cc2c1

>  <Name>  (146) 
nan

>  <Pocket>  (146) 
nan

>  <ATP_Site>  (146) 
nan

>  <Peripheral>  (146) 
nan

>  <Num_H_Atoms_ProtBoundConf>  (146) 
nan

>  <Num_Resolved_Atoms>  (146) 
nan

>  <Num_Not_Resolved_Atoms>  (146) 
nan

$$$$
CHEMBL416056
     RDKit          3D

  0  0  0  0  0  0  0  0  0  0999 V3000
M  V30 BEGIN CTAB
M  V30 COUNTS 56 63 0 0 0
M  V30 BEGIN ATOM
M  V30 1 C 0.925195 -1.664873 6.303478 0
M  V30 2 O 0.525986 -1.578892 4.949759 0
M  V30 3 C 1.405537 -1.327938 3.895623 0
M  V30 4 O 2.568162 -1.200464 4.374354 0
M  V30 5 C 0.836411 -1.266890 2.529778 0 CFG=2
M  V30 6 O -0.558518 -1.482877 2.533032 0
M  V30 7 C 1.419386 -2.420479 1.740336 0
M  V30 8 C 2.009470 -1.734130 0.560243 0 CFG=2
M  V30 9 O 2.153908 -0.405110 0.807504 0
M  V30 10 C 1.194927 -0.012768 1.783657 0 CFG=2
M  V30 11 C 1.928374 0.997428 2.571262 0
M  V30 12 N 0.037327 0.456842 1.052431 0
M  V30 13 C -0.835741 1.441569 1.307686 0
M  V30 14 C -0.902267 2.305140 2.372423 0
M  V30 15 C -1.905675 3.247801 2.422895 0
M  V30 16 C -2.865201 3.370515 1.439942 0
M  V30 17 C -2.802552 2.510596 0.376199 0
M  V30 18 C -1.797504 1.572728 0.333933 0
M  V30 19 C -1.522344 0.606934 -0.605983 0
M  V30 20 C -2.096928 0.214408 -1.798657 0
M  V30 21 C -1.579564 -0.822718 -2.535366 0
M  V30 22 C -0.481258 -1.466206 -2.069857 0
M  V30 23 C 0.231361 -2.509659 -2.572053 0
M  V30 24 C 0.232649 -3.342238 -3.648670 0
M  V30 25 C 1.131191 -4.355980 -3.890514 0
M  V30 26 C 2.146342 -4.566199 -2.952858 0
M  V30 27 C 2.189463 -3.743139 -1.835649 0
M  V30 28 C 1.245067 -2.750123 -1.675296 0
M  V30 29 N 1.174033 -1.889590 -0.645695 0
M  V30 30 C 0.095620 -1.083881 -0.888324 0
M  V30 31 C -0.416574 -0.040401 -0.138769 0
M  V30 32 C -2.399979 -0.969710 -3.700575 0
M  V30 33 O -2.403291 -1.720826 -4.682834 0
M  V30 34 N -3.432706 -0.000734 -3.664266 0
M  V30 35 C -3.302158 0.805073 -2.459254 0
M  V30 36 H 0.547699 -2.637358 6.702993 0
M  V30 37 H 2.024303 -1.691479 6.398150 0
M  V30 38 H 0.511925 -0.849534 6.923997 0
M  V30 39 H -0.725618 -2.306463 3.027806 0
M  V30 40 H 2.143231 -3.009259 2.333936 0
M  V30 41 H 0.670183 -3.141267 1.373665 0
M  V30 42 H 3.001145 -2.166418 0.311916 0
M  V30 43 H 3.037438 0.737257 2.554099 0
M  V30 44 H 1.719685 1.013062 3.654758 0
M  V30 45 H 1.890492 1.971699 2.061095 0
M  V30 46 H -0.189031 2.235779 3.143654 0
M  V30 47 H -1.948091 3.931502 3.277658 0
M  V30 48 H -3.640821 4.123086 1.510456 0
M  V30 49 H -3.525446 2.540482 -0.446955 0
M  V30 50 H -0.505229 -3.247408 -4.405328 0
M  V30 51 H 1.098157 -4.999799 -4.763602 0
M  V30 52 H 2.893624 -5.337056 -3.060457 0
M  V30 53 H 2.965242 -3.912161 -1.129904 0
M  V30 54 H -4.223846 0.233535 -4.298435 0
M  V30 55 H -3.052398 1.829600 -2.765095 0
M  V30 56 H -4.217289 0.703128 -1.871480 0
M  V30 END ATOM
M  V30 BEGIN BOND
M  V30 1 1 1 2
M  V30 2 1 2 3
M  V30 3 2 3 4
M  V30 4 1 3 5
M  V30 5 1 5 6 CFG=1
M  V30 6 1 5 7
M  V30 7 1 7 8
M  V30 8 1 8 9
M  V30 9 1 9 10
M  V30 10 1 10 11 CFG=1
M  V30 11 1 10 12
M  V30 12 1 12 13
M  V30 13 2 13 14
M  V30 14 1 14 15
M  V30 15 2 15 16
M  V30 16 1 16 17
M  V30 17 2 17 18
M  V30 18 1 18 19
M  V30 19 2 19 20
M  V30 20 1 20 21
M  V30 21 2 21 22
M  V30 22 1 22 23
M  V30 23 2 23 24
M  V30 24 1 24 25
M  V30 25 2 25 26
M  V30 26 1 26 27
M  V30 27 2 27 28
M  V30 28 1 28 29
M  V30 29 1 29 30
M  V30 30 2 30 31
M  V30 31 1 21 32
M  V30 32 2 32 33
M  V30 33 1 32 34
M  V30 34 1 34 35
M  V30 35 1 10 5
M  V30 36 1 31 12
M  V30 37 1 29 8
M  V30 38 1 18 13
M  V30 39 1 31 19
M  V30 40 1 35 20
M  V30 41 1 30 22
M  V30 42 1 28 23
M  V30 43 1 1 36
M  V30 44 1 1 37
M  V30 45 1 1 38
M  V30 46 1 6 39
M  V30 47 1 7 40
M  V30 48 1 7 41
M  V30 49 1 8 42 CFG=3
M  V30 50 1 11 43
M  V30 51 1 11 44
M  V30 52 1 11 45
M  V30 53 1 14 46
M  V30 54 1 15 47
M  V30 55 1 16 48
M  V30 56 1 17 49
M  V30 57 1 24 50
M  V30 58 1 25 51
M  V30 59 1 26 52
M  V30 60 1 27 53
M  V30 61 1 34 54
M  V30 62 1 35 55
M  V30 63 1 35 56
M  V30 END BOND
M  V30 END CTAB
M  END
>  <Dataset>  (147) 
ChEMBL_Kinases

>  <Ligand_Instance>  (147) 
nan

>  <PDB_ID>  (147) 
nan

>  <Standardized_SMILES>  (147) 
COC(=O)[C@]1(O)C[C@@H]2O[C@@]1(C)n1c3ccccc3c3c4c(c5c6ccccc6n2c5c31)C(=O)NC4

>  <Name>  (147) 
nan

>  <Pocket>  (147) 
nan

>  <ATP_Site>  (147) 
nan

>  <Peripheral>  (147) 
nan

>  <Num_H_Atoms_ProtBoundConf>  (147) 
nan

>  <Num_Resolved_Atoms>  (147) 
nan

>  <Num_Not_Resolved_Atoms>  (147) 
nan

$$$$
CHEMBL4129219
     RDKit          3D

  0  0  0  0  0  0  0  0  0  0999 V3000
M  V30 BEGIN CTAB
M  V30 COUNTS 48 50 0 0 0
M  V30 BEGIN ATOM
M  V30 1 C 4.717479 -5.012322 1.471887 0
M  V30 2 O 4.190392 -3.741935 1.224706 0
M  V30 3 C 4.177693 -2.748047 2.179630 0
M  V30 4 C 4.666162 -2.859561 3.471847 0
M  V30 5 C 4.593164 -1.784379 4.334610 0
M  V30 6 C 4.029705 -0.610690 3.886454 0
M  V30 7 C 3.538112 -0.475872 2.608505 0
M  V30 8 C 3.615497 -1.559484 1.749946 0
M  V30 9 N 3.088887 -1.366300 0.429832 0
M  V30 10 C 2.506907 -0.135394 -0.015027 0
M  V30 11 N 3.222039 0.847678 -0.596957 0
M  V30 12 C 2.651124 2.000583 -1.008636 0
M  V30 13 C 1.295802 2.167861 -0.823923 0
M  V30 14 F 0.665191 3.304043 -1.216572 0
M  V30 15 C 0.540221 1.186775 -0.235121 0
M  V30 16 C -0.890511 1.295262 -0.009298 0
M  V30 17 C -1.447539 2.438440 0.502887 0
M  V30 18 C -2.812847 2.439387 0.678491 0
M  V30 19 C -3.500217 1.298661 0.326990 0
M  V30 20 C -4.927899 1.438129 0.546874 0
M  V30 21 O -5.566702 2.418255 1.006738 0
M  V30 22 O -6.260145 1.119683 0.575009 0
M  V30 23 C -2.969994 0.137584 -0.188154 0
M  V30 24 C -3.778456 -1.046936 -0.528600 0
M  V30 25 C -4.398226 -0.940922 -1.906527 0
M  V30 26 C -4.729822 -1.491893 0.536489 0
M  V30 27 C -1.579667 0.166811 -0.355616 0
M  V30 28 N 1.194397 0.057888 0.149700 0
M  V30 29 H 4.591473 -5.609796 0.533085 0
M  V30 30 H 5.816925 -4.941533 1.686866 0
M  V30 31 H 4.186082 -5.584390 2.258803 0
M  V30 32 H 5.083554 -3.825710 3.707351 0
M  V30 33 H 5.007467 -2.012479 5.297478 0
M  V30 34 H 4.023290 0.175741 4.652500 0
M  V30 35 H 3.114075 0.480533 2.344190 0
M  V30 36 H 3.119657 -2.151965 -0.264892 0
M  V30 37 H 3.264351 2.774583 -1.476449 0
M  V30 38 H -0.762104 3.239536 0.723726 0
M  V30 39 H -3.248131 3.340721 1.081829 0
M  V30 40 H -6.767813 0.614849 -0.169227 0
M  V30 41 H -3.018457 -1.883783 -0.649697 0
M  V30 42 H -5.116466 -1.728217 -2.116372 0
M  V30 43 H -3.571564 -0.998536 -2.643790 0
M  V30 44 H -4.825407 0.078390 -1.961576 0
M  V30 45 H -4.485201 -2.543707 0.825818 0
M  V30 46 H -5.783261 -1.540831 0.195292 0
M  V30 47 H -4.580020 -0.855326 1.435331 0
M  V30 48 H -1.135174 -0.738596 -0.761701 0
M  V30 END ATOM
M  V30 BEGIN BOND
M  V30 1 1 1 2
M  V30 2 1 2 3
M  V30 3 2 3 4
M  V30 4 1 4 5
M  V30 5 2 5 6
M  V30 6 1 6 7
M  V30 7 2 7 8
M  V30 8 1 8 9
M  V30 9 1 9 10
M  V30 10 2 10 11
M  V30 11 1 11 12
M  V30 12 2 12 13
M  V30 13 1 13 14
M  V30 14 1 13 15
M  V30 15 1 15 16
M  V30 16 2 16 17
M  V30 17 1 17 18
M  V30 18 2 18 19
M  V30 19 1 19 20
M  V30 20 2 20 21
M  V30 21 1 20 22
M  V30 22 1 19 23
M  V30 23 1 23 24
M  V30 24 1 24 25
M  V30 25 1 24 26
M  V30 26 2 23 27
M  V30 27 2 15 28
M  V30 28 1 8 3
M  V30 29 1 28 10
M  V30 30 1 27 16
M  V30 31 1 1 29
M  V30 32 1 1 30
M  V30 33 1 1 31
M  V30 34 1 4 32
M  V30 35 1 5 33
M  V30 36 1 6 34
M  V30 37 1 7 35
M  V30 38 1 9 36
M  V30 39 1 12 37
M  V30 40 1 17 38
M  V30 41 1 18 39
M  V30 42 1 22 40
M  V30 43 1 24 41
M  V30 44 1 25 42
M  V30 45 1 25 43
M  V30 46 1 25 44
M  V30 47 1 26 45
M  V30 48 1 26 46
M  V30 49 1 26 47
M  V30 50 1 27 48
M  V30 END BOND
M  V30 END CTAB
M  END
>  <Dataset>  (148) 
ChEMBL_Kinases

>  <Ligand_Instance>  (148) 
nan

>  <PDB_ID>  (148) 
nan

>  <Standardized_SMILES>  (148) 
COc1ccccc1Nc1ncc(F)c(-c2ccc(C(=O)O)c(C(C)C)c2)n1

>  <Name>  (148) 
nan

>  <Pocket>  (148) 
nan

>  <ATP_Site>  (148) 
nan

>  <Peripheral>  (148) 
nan

>  <Num_H_Atoms_ProtBoundConf>  (148) 
nan

>  <Num_Resolved_Atoms>  (148) 
nan

>  <Num_Not_Resolved_Atoms>  (148) 
nan

$$$$
CHEMBL3355166
     RDKit          3D

  0  0  0  0  0  0  0  0  0  0999 V3000
M  V30 BEGIN CTAB
M  V30 COUNTS 54 57 0 0 0
M  V30 BEGIN ATOM
M  V30 1 C 2.425947 -6.160084 3.567739 0
M  V30 2 C 2.209232 -5.625324 2.196580 0
M  V30 3 C 2.357820 -4.255665 1.956553 0
M  V30 4 C 2.173015 -3.681951 0.707331 0
M  V30 5 N 2.341908 -2.278417 0.538712 0
M  V30 6 C 3.532071 -1.582482 0.202169 0
M  V30 7 O 4.624571 -2.175627 0.007357 0
M  V30 8 C 3.526450 -0.127504 0.068682 0
M  V30 9 C 4.720927 0.489845 -0.261536 0
M  V30 10 C 4.862755 1.871963 -0.421985 0
M  V30 11 C 3.738997 2.673890 -0.239404 0
M  V30 12 C 2.554262 2.047233 0.089448 0
M  V30 13 N 1.356630 2.802804 0.293203 0
M  V30 14 C 0.259497 2.610640 -0.465483 0
M  V30 15 C -0.758151 3.472382 -0.057471 0
M  V30 16 N -2.077641 3.561393 -0.627719 0
M  V30 17 C -3.063627 2.701624 -0.031045 0
M  V30 18 O -2.619886 1.979452 0.925090 0
M  V30 19 N -4.432378 2.602820 -0.411529 0
M  V30 20 C -5.287956 1.699377 0.280026 0
M  V30 21 C -6.041067 1.972000 1.400992 0
M  V30 22 C -6.824459 0.984031 1.957090 0
M  V30 23 C -6.859653 -0.289315 1.392564 0
M  V30 24 C -6.100889 -0.575999 0.257420 0
M  V30 25 C -5.316695 0.427530 -0.292269 0
M  V30 26 Cl -4.406413 -0.023402 -1.705417 0
M  V30 27 C -0.198685 4.185630 0.987113 0
M  V30 28 N 1.050054 3.744188 1.144932 0
M  V30 29 C 2.441473 0.670835 0.242730 0
M  V30 30 C 1.827790 -4.568653 -0.295194 0
M  V30 31 C 1.673832 -5.912745 -0.097518 0
M  V30 32 C 1.299014 -6.790653 -1.243623 0
M  V30 33 N 1.870132 -6.393326 1.141855 0
M  V30 34 H 2.354036 -5.340804 4.288226 0
M  V30 35 H 1.697944 -6.996982 3.777835 0
M  V30 36 H 3.466355 -6.588309 3.558964 0
M  V30 37 H 2.628637 -3.629421 2.790124 0
M  V30 38 H 1.429161 -1.800764 0.703134 0
M  V30 39 H 5.657096 -0.067060 -0.423935 0
M  V30 40 H 5.813413 2.315166 -0.680335 0
M  V30 41 H 3.791536 3.743012 -0.350449 0
M  V30 42 H 0.134645 1.904476 -1.283326 0
M  V30 43 H -2.427352 4.161089 -1.414985 0
M  V30 44 H -4.625820 3.259920 -1.206296 0
M  V30 45 H -5.972615 2.960335 1.785074 0
M  V30 46 H -7.420933 1.187290 2.838834 0
M  V30 47 H -7.471443 -1.079848 1.817749 0
M  V30 48 H -6.163705 -1.570684 -0.137117 0
M  V30 49 H -0.722987 4.952667 1.542670 0
M  V30 50 H 1.510556 0.227059 0.496623 0
M  V30 51 H 1.677761 -4.139923 -1.284182 0
M  V30 52 H 0.953156 -7.785457 -0.858485 0
M  V30 53 H 0.524237 -6.327353 -1.889525 0
M  V30 54 H 2.198406 -6.964349 -1.869289 0
M  V30 END ATOM
M  V30 BEGIN BOND
M  V30 1 1 1 2
M  V30 2 2 2 3
M  V30 3 1 3 4
M  V30 4 1 4 5
M  V30 5 1 5 6
M  V30 6 2 6 7
M  V30 7 1 6 8
M  V30 8 2 8 9
M  V30 9 1 9 10
M  V30 10 2 10 11
M  V30 11 1 11 12
M  V30 12 1 12 13
M  V30 13 1 13 14
M  V30 14 2 14 15
M  V30 15 1 15 16
M  V30 16 1 16 17
M  V30 17 2 17 18
M  V30 18 1 17 19
M  V30 19 1 19 20
M  V30 20 2 20 21
M  V30 21 1 21 22
M  V30 22 2 22 23
M  V30 23 1 23 24
M  V30 24 2 24 25
M  V30 25 1 25 26
M  V30 26 1 15 27
M  V30 27 2 27 28
M  V30 28 2 12 29
M  V30 29 2 4 30
M  V30 30 1 30 31
M  V30 31 1 31 32
M  V30 32 2 31 33
M  V30 33 1 33 2
M  V30 34 1 29 8
M  V30 35 1 28 13
M  V30 36 1 25 20
M  V30 37 1 1 34
M  V30 38 1 1 35
M  V30 39 1 1 36
M  V30 40 1 3 37
M  V30 41 1 5 38
M  V30 42 1 9 39
M  V30 43 1 10 40
M  V30 44 1 11 41
M  V30 45 1 14 42
M  V30 46 1 16 43
M  V30 47 1 19 44
M  V30 48 1 21 45
M  V30 49 1 22 46
M  V30 50 1 23 47
M  V30 51 1 24 48
M  V30 52 1 27 49
M  V30 53 1 29 50
M  V30 54 1 30 51
M  V30 55 1 32 52
M  V30 56 1 32 53
M  V30 57 1 32 54
M  V30 END BOND
M  V30 END CTAB
M  END
>  <Dataset>  (149) 
ChEMBL_Kinases

>  <Ligand_Instance>  (149) 
nan

>  <PDB_ID>  (149) 
nan

>  <Standardized_SMILES>  (149) 
Cc1cc(NC(=O)c2cccc(-n3cc(NC(=O)Nc4ccccc4Cl)cn3)c2)cc(C)n1

>  <Name>  (149) 
nan

>  <Pocket>  (149) 
nan

>  <ATP_Site>  (149) 
nan

>  <Peripheral>  (149) 
nan

>  <Num_H_Atoms_ProtBoundConf>  (149) 
nan

>  <Num_Resolved_Atoms>  (149) 
nan

>  <Num_Not_Resolved_Atoms>  (149) 
nan

$$$$
CHEMBL4791186
     RDKit          3D

  0  0  0  0  0  0  0  0  0  0999 V3000
M  V30 BEGIN CTAB
M  V30 COUNTS 54 57 0 0 0
M  V30 BEGIN ATOM
M  V30 1 C 3.141831 -9.038667 0.696947 0
M  V30 2 C 3.628939 -7.636083 0.681350 0
M  V30 3 N 4.731870 -7.152866 1.278667 0
M  V30 4 C 4.754493 -5.827087 0.981674 0
M  V30 5 C 3.647601 -5.496203 0.190464 0
M  V30 6 C 3.504470 -4.103926 -0.229432 0
M  V30 7 C 4.632448 -3.449082 -0.709271 0
M  V30 8 C 4.685498 -2.141608 -1.148017 0
M  V30 9 C 3.477457 -1.455686 -1.086395 0
M  V30 10 C 3.437473 -0.155779 -1.501154 0
M  V30 11 N 2.289543 0.557431 -1.463046 0
M  V30 12 C 1.132232 -0.004030 -1.006768 0
M  V30 13 N -0.111000 0.698797 -0.943154 0
M  V30 14 C -0.392858 1.391624 0.253118 0
M  V30 15 O 0.490036 1.314791 1.144275 0
M  V30 16 C -1.598173 2.166504 0.521009 0
M  V30 17 C -1.703638 2.775138 1.753649 0
M  V30 18 C -2.793575 3.522889 2.099255 0
M  V30 19 C -3.844491 3.704903 1.226881 0
M  V30 20 O -5.043303 4.380577 1.277922 0
M  V30 21 C -5.418894 5.091317 2.408003 0
M  V30 22 C -5.746168 6.542200 2.036284 0
M  V30 23 C -6.714494 4.549851 3.009200 0
M  V30 24 C -3.745202 3.093517 -0.019438 0
M  V30 25 C -2.625842 2.325709 -0.373776 0
M  V30 26 C 1.146449 -1.321919 -0.580033 0
M  V30 27 C 2.325907 -2.049134 -0.620992 0
M  V30 28 C 2.340752 -3.356177 -0.198379 0
M  V30 29 N 2.977358 -6.651970 0.030108 0
M  V30 30 C 1.761478 -6.633622 -0.757605 0
M  V30 31 H 3.508894 -9.578148 1.595735 0
M  V30 32 H 2.035588 -9.122587 0.684205 0
M  V30 33 H 3.615475 -9.536905 -0.187263 0
M  V30 34 H 5.573548 -5.208390 1.364194 0
M  V30 35 H 5.572470 -4.007139 -0.749237 0
M  V30 36 H 5.615401 -1.721017 -1.504659 0
M  V30 37 H 4.330329 0.329754 -1.870203 0
M  V30 38 H -0.818458 0.736055 -1.710374 0
M  V30 39 H -0.941056 2.696378 2.505908 0
M  V30 40 H -2.967886 4.033091 3.028001 0
M  V30 41 H -4.681452 5.047093 3.220079 0
M  V30 42 H -6.687394 6.522297 1.458837 0
M  V30 43 H -4.888121 6.882241 1.387818 0
M  V30 44 H -5.750375 7.210162 2.908016 0
M  V30 45 H -6.566984 3.561489 3.495580 0
M  V30 46 H -7.467790 4.520382 2.212972 0
M  V30 47 H -6.980653 5.257628 3.826269 0
M  V30 48 H -4.457156 3.105633 -0.858976 0
M  V30 49 H -2.490861 1.827953 -1.322826 0
M  V30 50 H 0.227508 -1.794700 -0.208898 0
M  V30 51 H 1.469048 -3.848858 0.168450 0
M  V30 52 H 1.427132 -7.691411 -0.936297 0
M  V30 53 H 0.911820 -6.143246 -0.249703 0
M  V30 54 H 1.933735 -6.242620 -1.800277 0
M  V30 END ATOM
M  V30 BEGIN BOND
M  V30 1 1 1 2
M  V30 2 2 2 3
M  V30 3 1 3 4
M  V30 4 2 4 5
M  V30 5 1 5 6
M  V30 6 2 6 7
M  V30 7 1 7 8
M  V30 8 2 8 9
M  V30 9 1 9 10
M  V30 10 2 10 11
M  V30 11 1 11 12
M  V30 12 1 12 13
M  V30 13 1 13 14
M  V30 14 2 14 15
M  V30 15 1 14 16
M  V30 16 2 16 17
M  V30 17 1 17 18
M  V30 18 2 18 19
M  V30 19 1 19 20
M  V30 20 1 20 21
M  V30 21 1 21 22
M  V30 22 1 21 23
M  V30 23 1 19 24
M  V30 24 2 24 25
M  V30 25 2 12 26
M  V30 26 1 26 27
M  V30 27 2 27 28
M  V30 28 1 5 29
M  V30 29 1 29 30
M  V30 30 1 29 2
M  V30 31 1 28 6
M  V30 32 1 27 9
M  V30 33 1 25 16
M  V30 34 1 1 31
M  V30 35 1 1 32
M  V30 36 1 1 33
M  V30 37 1 4 34
M  V30 38 1 7 35
M  V30 39 1 8 36
M  V30 40 1 10 37
M  V30 41 1 13 38
M  V30 42 1 17 39
M  V30 43 1 18 40
M  V30 44 1 21 41
M  V30 45 1 22 42
M  V30 46 1 22 43
M  V30 47 1 22 44
M  V30 48 1 23 45
M  V30 49 1 23 46
M  V30 50 1 23 47
M  V30 51 1 24 48
M  V30 52 1 25 49
M  V30 53 1 26 50
M  V30 54 1 28 51
M  V30 55 1 30 52
M  V30 56 1 30 53
M  V30 57 1 30 54
M  V30 END BOND
M  V30 END CTAB
M  END
>  <Dataset>  (150) 
ChEMBL_Kinases

>  <Ligand_Instance>  (150) 
nan

>  <PDB_ID>  (150) 
nan

>  <Standardized_SMILES>  (150) 
Cc1ncc(-c2ccc3cnc(NC(=O)c4ccc(OC(C)C)cc4)cc3c2)n1C

>  <Name>  (150) 
nan

>  <Pocket>  (150) 
nan

>  <ATP_Site>  (150) 
nan

>  <Peripheral>  (150) 
nan

>  <Num_H_Atoms_ProtBoundConf>  (150) 
nan

>  <Num_Resolved_Atoms>  (150) 
nan

>  <Num_Not_Resolved_Atoms>  (150) 
nan

$$$$
CHEMBL1673040
     RDKit          3D

  0  0  0  0  0  0  0  0  0  0999 V3000
M  V30 BEGIN CTAB
M  V30 COUNTS 62 66 0 0 0
M  V30 BEGIN ATOM
M  V30 1 C 2.541986 1.050726 5.049373 0
M  V30 2 O 1.365769 0.687100 4.327820 0
M  V30 3 C 1.276438 0.905808 2.956614 0
M  V30 4 C 2.309659 1.480077 2.206893 0
M  V30 5 C 2.160853 1.672282 0.849603 0
M  V30 6 N 3.253102 2.240426 0.172826 0
M  V30 7 C 4.569715 2.251039 0.779090 0
M  V30 8 C 5.658987 2.300620 -0.266935 0
M  V30 9 C 5.289799 1.514107 -1.502674 0
M  V30 10 O 5.342141 0.135621 -1.242609 0
M  V30 11 C 3.948382 1.850764 -2.053673 0
M  V30 12 C 3.303849 2.878022 -1.124491 0
M  V30 13 C 0.979587 1.286244 0.258815 0
M  V30 14 C -0.075657 0.716041 0.934311 0
M  V30 15 C 0.105291 0.537988 2.289936 0
M  V30 16 N -0.951553 -0.068170 3.052942 0
M  V30 17 C -2.161579 -0.462134 2.418253 0
M  V30 18 N -3.440670 0.004230 2.487892 0
M  V30 19 C -4.411825 -0.559562 1.747972 0
M  V30 20 C -4.149322 -1.616949 0.902784 0
M  V30 21 C -2.841137 -2.094256 0.831662 0
M  V30 22 N -1.876204 -1.500570 1.596380 0
M  V30 23 N -2.327961 -3.172540 0.020905 0
M  V30 24 C -0.913227 -3.112238 -0.209188 0
M  V30 25 C -3.067867 -4.267106 -0.561377 0
M  V30 26 C -2.153281 -5.269292 -0.797540 0
M  V30 27 C -2.704307 -6.418797 -1.362356 0
M  V30 28 C -4.064842 -6.505314 -1.646327 0
M  V30 29 C -4.921081 -5.433438 -1.371050 0
M  V30 30 C -4.422711 -4.266291 -0.809509 0
M  V30 31 C -5.416759 -3.227818 -0.576917 0
M  V30 32 O -6.504194 -3.407854 -1.179376 0
M  V30 33 N -5.333472 -2.037651 0.236175 0
M  V30 34 C -6.538658 -1.231816 0.373582 0
M  V30 35 H 2.656530 2.150326 5.131409 0
M  V30 36 H 3.462815 0.588339 4.610996 0
M  V30 37 H 2.468573 0.616056 6.085204 0
M  V30 38 H 3.195633 1.745884 2.782261 0
M  V30 39 H 4.720327 1.390374 1.475349 0
M  V30 40 H 4.644093 3.173657 1.383864 0
M  V30 41 H 5.840565 3.356796 -0.564702 0
M  V30 42 H 6.569813 1.826154 0.166813 0
M  V30 43 H 6.057722 1.682855 -2.287864 0
M  V30 44 H 5.486651 -0.321400 -2.093575 0
M  V30 45 H 4.051067 2.294274 -3.059997 0
M  V30 46 H 3.295855 0.945442 -2.057960 0
M  V30 47 H 3.911204 3.800179 -1.110051 0
M  V30 48 H 2.300874 3.173486 -1.480963 0
M  V30 49 H 0.875697 1.438223 -0.807549 0
M  V30 50 H -0.998667 0.422297 0.418133 0
M  V30 51 H -0.842422 -0.223195 4.079053 0
M  V30 52 H -5.395695 -0.155218 1.848050 0
M  V30 53 H -0.621998 -3.304142 -1.262648 0
M  V30 54 H -0.311168 -3.713583 0.514986 0
M  V30 55 H -0.556219 -2.071963 -0.025730 0
M  V30 56 H -1.110664 -5.214700 -0.585206 0
M  V30 57 H -2.085541 -7.277745 -1.596377 0
M  V30 58 H -4.551120 -7.366792 -2.083691 0
M  V30 59 H -5.987058 -5.443114 -1.569844 0
M  V30 60 H -7.243493 -1.603314 -0.431131 0
M  V30 61 H -6.393920 -0.168530 0.106211 0
M  V30 62 H -7.069889 -1.422187 1.308862 0
M  V30 END ATOM
M  V30 BEGIN BOND
M  V30 1 1 1 2
M  V30 2 1 2 3
M  V30 3 2 3 4
M  V30 4 1 4 5
M  V30 5 1 5 6
M  V30 6 1 6 7
M  V30 7 1 7 8
M  V30 8 1 8 9
M  V30 9 1 9 10
M  V30 10 1 9 11
M  V30 11 1 11 12
M  V30 12 2 5 13
M  V30 13 1 13 14
M  V30 14 2 14 15
M  V30 15 1 15 16
M  V30 16 1 16 17
M  V30 17 2 17 18
M  V30 18 1 18 19
M  V30 19 2 19 20
M  V30 20 1 20 21
M  V30 21 2 21 22
M  V30 22 1 21 23
M  V30 23 1 23 24
M  V30 24 1 23 25
M  V30 25 2 25 26
M  V30 26 1 26 27
M  V30 27 2 27 28
M  V30 28 1 28 29
M  V30 29 2 29 30
M  V30 30 1 30 31
M  V30 31 2 31 32
M  V30 32 1 31 33
M  V30 33 1 33 34
M  V30 34 1 15 3
M  V30 35 1 22 17
M  V30 36 1 30 25
M  V30 37 1 12 6
M  V30 38 1 33 20
M  V30 39 1 1 35
M  V30 40 1 1 36
M  V30 41 1 1 37
M  V30 42 1 4 38
M  V30 43 1 7 39
M  V30 44 1 7 40
M  V30 45 1 8 41
M  V30 46 1 8 42
M  V30 47 1 9 43
M  V30 48 1 10 44
M  V30 49 1 11 45
M  V30 50 1 11 46
M  V30 51 1 12 47
M  V30 52 1 12 48
M  V30 53 1 13 49
M  V30 54 1 14 50
M  V30 55 1 16 51
M  V30 56 1 19 52
M  V30 57 1 24 53
M  V30 58 1 24 54
M  V30 59 1 24 55
M  V30 60 1 26 56
M  V30 61 1 27 57
M  V30 62 1 28 58
M  V30 63 1 29 59
M  V30 64 1 34 60
M  V30 65 1 34 61
M  V30 66 1 34 62
M  V30 END BOND
M  V30 END CTAB
M  END
>  <Dataset>  (151) 
ChEMBL_Kinases

>  <Ligand_Instance>  (151) 
nan

>  <PDB_ID>  (151) 
nan

>  <Standardized_SMILES>  (151) 
COc1cc(N2CCC(O)CC2)ccc1Nc1ncc2c(n1)N(C)c1ccccc1C(=O)N2C

>  <Name>  (151) 
nan

>  <Pocket>  (151) 
nan

>  <ATP_Site>  (151) 
nan

>  <Peripheral>  (151) 
nan

>  <Num_H_Atoms_ProtBoundConf>  (151) 
nan

>  <Num_Resolved_Atoms>  (151) 
nan

>  <Num_Not_Resolved_Atoms>  (151) 
nan

$$$$
CHEMBL4790637
     RDKit          3D

  0  0  0  0  0  0  0  0  0  0999 V3000
M  V30 BEGIN CTAB
M  V30 COUNTS 60 65 0 0 0
M  V30 BEGIN ATOM
M  V30 1 C 1.262458 -1.970585 2.083039 0
M  V30 2 C 2.627610 -2.150334 2.631338 0
M  V30 3 C 2.734159 -2.842007 3.813338 0
M  V30 4 C 3.952669 -3.086426 4.354118 0
M  V30 5 N 5.009611 -2.620904 3.675835 0
M  V30 6 C 4.880625 -1.949914 2.527787 0
M  V30 7 C 3.673824 -1.658289 1.910679 0
M  V30 8 C 3.725788 -0.939121 0.668911 0
M  V30 9 C 2.785214 -0.241357 -0.023030 0
M  V30 10 C 2.987894 0.434661 -1.181201 0
M  V30 11 C 2.210846 1.196282 -2.020387 0
M  V30 12 C 0.807589 1.539686 -1.886225 0
M  V30 13 N -0.135565 1.207392 -0.988915 0
M  V30 14 C -1.306183 1.814074 -1.346523 0
M  V30 15 C -2.570986 1.852194 -0.814328 0
M  V30 16 C -2.923187 1.068533 0.358331 0
M  V30 17 C -3.388909 1.463237 1.594784 0
M  V30 18 C -3.725600 0.521781 2.541268 0
M  V30 19 F -4.168044 1.011178 3.712443 0
M  V30 20 C -3.595439 -0.812181 2.246387 0
M  V30 21 C -3.128320 -1.266687 1.007516 0
M  V30 22 C -3.063532 -2.729556 0.823313 0
M  V30 23 N -1.774624 -3.306561 1.188983 0
M  V30 24 S -1.962071 -5.021221 0.885742 0
M  V30 25 C -3.265549 -5.579044 1.957405 0
M  V30 26 O -2.467299 -5.120709 -0.543125 0
M  V30 27 O -0.693090 -5.757782 1.076179 0
M  V30 28 C -2.793031 -0.294918 0.067528 0
M  V30 29 C -3.624185 2.558168 -1.335642 0
M  V30 30 C -3.398127 3.296710 -2.500782 0
M  V30 31 C -2.136869 3.270418 -3.051529 0
M  V30 32 C -1.102398 2.547680 -2.495526 0
M  V30 33 N 0.206112 2.356586 -2.800973 0
M  V30 34 N 2.998690 1.621262 -3.021682 0
M  V30 35 N 4.231767 1.175353 -2.870992 0
M  V30 36 C 4.242340 0.445019 -1.745378 0
M  V30 37 C 5.210970 -0.251623 -1.067001 0
M  V30 38 N 4.931665 -0.895112 0.072910 0
M  V30 39 H 1.212293 -2.220053 1.008689 0
M  V30 40 H 0.845511 -0.967830 2.244132 0
M  V30 41 H 0.547376 -2.688812 2.610015 0
M  V30 42 H 1.853733 -3.195599 4.320045 0
M  V30 43 H 4.019163 -3.628423 5.279031 0
M  V30 44 H 5.876392 -1.666920 2.151550 0
M  V30 45 H 1.810505 -0.180466 0.357597 0
M  V30 46 H -3.432665 2.542818 1.666349 0
M  V30 47 H -3.886244 -1.493169 3.057613 0
M  V30 48 H -3.889374 -3.193909 1.398095 0
M  V30 49 H -3.246856 -3.022027 -0.231742 0
M  V30 50 H -1.011943 -2.921001 0.585366 0
M  V30 51 H -2.931293 -6.507981 2.460499 0
M  V30 52 H -4.211525 -5.738784 1.422831 0
M  V30 53 H -3.497125 -4.827320 2.766929 0
M  V30 54 H -2.442748 -0.750768 -0.851953 0
M  V30 55 H -4.613121 2.589976 -0.919682 0
M  V30 56 H -4.170311 3.892970 -2.996147 0
M  V30 57 H -1.954999 3.836354 -3.949635 0
M  V30 58 H 0.575639 2.834525 -3.656934 0
M  V30 59 H 5.027312 1.364692 -3.512097 0
M  V30 60 H 6.220133 -0.289119 -1.450277 0
M  V30 END ATOM
M  V30 BEGIN BOND
M  V30 1 1 1 2
M  V30 2 2 2 3
M  V30 3 1 3 4
M  V30 4 2 4 5
M  V30 5 1 5 6
M  V30 6 2 6 7
M  V30 7 1 7 8
M  V30 8 2 8 9
M  V30 9 1 9 10
M  V30 10 1 10 11
M  V30 11 1 11 12
M  V30 12 2 12 13
M  V30 13 1 13 14
M  V30 14 2 14 15
M  V30 15 1 15 16
M  V30 16 2 16 17
M  V30 17 1 17 18
M  V30 18 1 18 19
M  V30 19 2 18 20
M  V30 20 1 20 21
M  V30 21 1 21 22
M  V30 22 1 22 23
M  V30 23 1 23 24
M  V30 24 1 24 25
M  V30 25 2 24 26
M  V30 26 2 24 27
M  V30 27 2 21 28
M  V30 28 1 15 29
M  V30 29 2 29 30
M  V30 30 1 30 31
M  V30 31 2 31 32
M  V30 32 1 32 33
M  V30 33 2 11 34
M  V30 34 1 34 35
M  V30 35 1 35 36
M  V30 36 1 36 37
M  V30 37 2 37 38
M  V30 38 1 7 2
M  V30 39 1 38 8
M  V30 40 2 36 10
M  V30 41 1 33 12
M  V30 42 1 32 14
M  V30 43 1 28 16
M  V30 44 1 1 39
M  V30 45 1 1 40
M  V30 46 1 1 41
M  V30 47 1 3 42
M  V30 48 1 4 43
M  V30 49 1 6 44
M  V30 50 1 9 45
M  V30 51 1 17 46
M  V30 52 1 20 47
M  V30 53 1 22 48
M  V30 54 1 22 49
M  V30 55 1 23 50
M  V30 56 1 25 51
M  V30 57 1 25 52
M  V30 58 1 25 53
M  V30 59 1 28 54
M  V30 60 1 29 55
M  V30 61 1 30 56
M  V30 62 1 31 57
M  V30 63 1 33 58
M  V30 64 1 35 59
M  V30 65 1 37 60
M  V30 END BOND
M  V30 END CTAB
M  END
>  <Dataset>  (152) 
ChEMBL_Kinases

>  <Ligand_Instance>  (152) 
nan

>  <PDB_ID>  (152) 
nan

>  <Standardized_SMILES>  (152) 
Cc1ccncc1-c1cc2c(-c3nc4c(-c5cc(F)cc(CNS(C)(=O)=O)c5)cccc4[nH]3)n[nH]c2cn1

>  <Name>  (152) 
nan

>  <Pocket>  (152) 
nan

>  <ATP_Site>  (152) 
nan

>  <Peripheral>  (152) 
nan

>  <Num_H_Atoms_ProtBoundConf>  (152) 
nan

>  <Num_Resolved_Atoms>  (152) 
nan

>  <Num_Not_Resolved_Atoms>  (152) 
nan

$$$$
CHEMBL4790668
     RDKit          3D

  0  0  0  0  0  0  0  0  0  0999 V3000
M  V30 BEGIN CTAB
M  V30 COUNTS 57 62 0 0 0
M  V30 BEGIN ATOM
M  V30 1 C 2.983693 -2.928724 3.923530 0
M  V30 2 C 3.608127 -2.068194 2.838019 0
M  V30 3 C 4.208134 -2.990259 1.797096 0
M  V30 4 N 2.587910 -1.229062 2.264103 0
M  V30 5 C 2.855657 -0.284807 1.240443 0
M  V30 6 C 4.105888 -0.068749 0.702134 0
M  V30 7 N 4.339784 0.832519 -0.272856 0
M  V30 8 C 3.371555 1.600110 -0.805372 0
M  V30 9 C 2.091807 1.436095 -0.312399 0
M  V30 10 C 0.953555 2.219019 -0.816126 0
M  V30 11 C 1.037680 3.519975 -1.285014 0
M  V30 12 C -0.093035 4.166332 -1.737019 0
M  V30 13 C -1.325381 3.534667 -1.731939 0
M  V30 14 N -2.546043 3.976281 -2.124685 0
M  V30 15 N -3.395413 2.978867 -1.911999 0
M  V30 16 C -2.764110 1.925111 -1.401489 0
M  V30 17 C -3.358877 0.643585 -1.036100 0
M  V30 18 N -2.722559 -0.425195 -0.519874 0
M  V30 19 C -3.624274 -1.419648 -0.319096 0
M  V30 20 C -3.524309 -2.704170 0.176750 0
M  V30 21 C -2.201334 -3.131272 0.582785 0
M  V30 22 C -1.577078 -3.028097 1.808134 0
M  V30 23 C -0.294938 -3.511293 1.966775 0
M  V30 24 C 0.393246 -4.102816 0.925301 0
M  V30 25 C -0.219771 -4.211848 -0.303833 0
M  V30 26 C -1.518573 -3.727757 -0.482968 0
M  V30 27 F -1.986837 -3.904150 -1.739538 0
M  V30 28 C -4.652950 -3.518403 0.267963 0
M  V30 29 N -5.835401 -3.033482 -0.133422 0
M  V30 30 C -5.942162 -1.783090 -0.617859 0
M  V30 31 C -4.861660 -0.923933 -0.734846 0
M  V30 32 N -4.662610 0.338212 -1.166583 0
M  V30 33 C -1.428160 2.248731 -1.272220 0
M  V30 34 C -0.285489 1.590385 -0.813479 0
M  V30 35 C 1.866566 0.502892 0.692790 0
M  V30 36 H 2.703963 -3.906216 3.528501 0
M  V30 37 H 3.642889 -2.973937 4.826913 0
M  V30 38 H 2.059109 -2.418856 4.270568 0
M  V30 39 H 4.367040 -1.393525 3.291024 0
M  V30 40 H 5.303623 -2.887211 1.798927 0
M  V30 41 H 3.821732 -2.722801 0.784725 0
M  V30 42 H 3.911883 -4.036690 2.016870 0
M  V30 43 H 1.592808 -1.295971 2.597396 0
M  V30 44 H 4.951124 -0.634660 1.063910 0
M  V30 45 H 3.568753 2.321274 -1.588321 0
M  V30 46 H 2.031724 3.962267 -1.263940 0
M  V30 47 H 0.008529 5.170795 -2.092427 0
M  V30 48 H -2.749574 4.934364 -2.519498 0
M  V30 49 H -2.194172 -2.553534 2.553128 0
M  V30 50 H 0.142720 -3.397593 2.965882 0
M  V30 51 H 1.411359 -4.469644 1.107931 0
M  V30 52 H 0.353849 -4.683254 -1.097902 0
M  V30 53 H -4.473484 -4.513703 0.671631 0
M  V30 54 H -6.919631 -1.433474 -0.930268 0
M  V30 55 H -5.444229 0.914306 -1.526915 0
M  V30 56 H -0.466508 0.592652 -0.475786 0
M  V30 57 H 0.855866 0.393832 1.061633 0
M  V30 END ATOM
M  V30 BEGIN BOND
M  V30 1 1 1 2
M  V30 2 1 2 3
M  V30 3 1 2 4
M  V30 4 1 4 5
M  V30 5 2 5 6
M  V30 6 1 6 7
M  V30 7 2 7 8
M  V30 8 1 8 9
M  V30 9 1 9 10
M  V30 10 2 10 11
M  V30 11 1 11 12
M  V30 12 2 12 13
M  V30 13 1 13 14
M  V30 14 1 14 15
M  V30 15 2 15 16
M  V30 16 1 16 17
M  V30 17 2 17 18
M  V30 18 1 18 19
M  V30 19 2 19 20
M  V30 20 1 20 21
M  V30 21 2 21 22
M  V30 22 1 22 23
M  V30 23 2 23 24
M  V30 24 1 24 25
M  V30 25 2 25 26
M  V30 26 1 26 27
M  V30 27 1 20 28
M  V30 28 2 28 29
M  V30 29 1 29 30
M  V30 30 2 30 31
M  V30 31 1 31 32
M  V30 32 1 16 33
M  V30 33 2 33 34
M  V30 34 2 9 35
M  V30 35 1 35 5
M  V30 36 1 34 10
M  V30 37 1 33 13
M  V30 38 1 32 17
M  V30 39 1 31 19
M  V30 40 1 26 21
M  V30 41 1 1 36
M  V30 42 1 1 37
M  V30 43 1 1 38
M  V30 44 1 2 39
M  V30 45 1 3 40
M  V30 46 1 3 41
M  V30 47 1 3 42
M  V30 48 1 4 43
M  V30 49 1 6 44
M  V30 50 1 8 45
M  V30 51 1 11 46
M  V30 52 1 12 47
M  V30 53 1 14 48
M  V30 54 1 22 49
M  V30 55 1 23 50
M  V30 56 1 24 51
M  V30 57 1 25 52
M  V30 58 1 28 53
M  V30 59 1 30 54
M  V30 60 1 32 55
M  V30 61 1 34 56
M  V30 62 1 35 57
M  V30 END BOND
M  V30 END CTAB
M  END
>  <Dataset>  (153) 
ChEMBL_Kinases

>  <Ligand_Instance>  (153) 
nan

>  <PDB_ID>  (153) 
nan

>  <Standardized_SMILES>  (153) 
CC(C)Nc1cncc(-c2ccc3[nH]nc(-c4nc5c(-c6ccccc6F)cncc5[nH]4)c3c2)c1

>  <Name>  (153) 
nan

>  <Pocket>  (153) 
nan

>  <ATP_Site>  (153) 
nan

>  <Peripheral>  (153) 
nan

>  <Num_H_Atoms_ProtBoundConf>  (153) 
nan

>  <Num_Resolved_Atoms>  (153) 
nan

>  <Num_Not_Resolved_Atoms>  (153) 
nan

$$$$
CHEMBL3352845
     RDKit          3D

  0  0  0  0  0  0  0  0  0  0999 V3000
M  V30 BEGIN CTAB
M  V30 COUNTS 60 63 0 0 0
M  V30 BEGIN ATOM
M  V30 1 C 2.849900 -3.071168 3.143292 0
M  V30 2 N 4.221475 -3.479838 3.063500 0
M  V30 3 C 4.882682 -3.224416 4.328038 0
M  V30 4 C 4.961670 -2.920041 1.986659 0
M  V30 5 C 5.284308 -1.456120 2.063100 0
M  V30 6 N 4.166229 -0.581011 2.120869 0
M  V30 7 C 3.575388 -0.104538 0.982842 0
M  V30 8 C 2.535720 0.736111 1.312061 0
M  V30 9 N 1.557104 1.520743 0.645300 0
M  V30 10 C 1.556379 2.857754 0.184873 0
M  V30 11 O 2.570101 3.587107 0.342402 0
M  V30 12 C 0.390985 3.415871 -0.476581 0
M  V30 13 C 0.481170 4.717479 -0.923258 0
M  V30 14 C -0.624776 5.290917 -1.562845 0
M  V30 15 C -1.803688 4.572183 -1.752436 0
M  V30 16 C -1.892434 3.272959 -1.305904 0
M  V30 17 N -3.085403 2.513409 -1.483281 0
M  V30 18 C -3.217002 1.180363 -1.331334 0
M  V30 19 C -4.506819 0.774802 -1.578698 0
M  V30 20 N -5.087228 -0.522829 -1.537984 0
M  V30 21 C -4.367113 -1.692861 -1.219869 0
M  V30 22 O -3.161516 -1.653406 -0.953815 0
M  V30 23 N -4.937979 -2.987986 -1.175763 0
M  V30 24 C -4.067480 -4.067789 -0.838261 0
M  V30 25 C -3.406205 -4.716201 -1.888224 0
M  V30 26 C -2.551373 -5.764992 -1.638114 0
M  V30 27 C -2.309663 -6.221357 -0.349087 0
M  V30 28 C -2.960553 -5.583304 0.684357 0
M  V30 29 C -3.824989 -4.525508 0.454138 0
M  V30 30 Cl -4.662069 -3.701523 1.756514 0
M  V30 31 C -5.158179 1.947650 -1.892578 0
M  V30 32 N -4.266777 2.970893 -1.823650 0
M  V30 33 C -0.780645 2.743346 -0.680530 0
M  V30 34 C 2.529550 0.742856 2.713388 0
M  V30 35 N 3.514309 -0.052806 3.171019 0
M  V30 36 H 2.592849 -2.486209 2.247825 0
M  V30 37 H 2.622199 -2.493621 4.066368 0
M  V30 38 H 2.164030 -3.978969 3.112172 0
M  V30 39 H 4.952262 -2.133426 4.573302 0
M  V30 40 H 5.933476 -3.609191 4.313345 0
M  V30 41 H 4.280876 -3.667239 5.169119 0
M  V30 42 H 4.359065 -3.060400 1.027956 0
M  V30 43 H 5.898318 -3.507420 1.767864 0
M  V30 44 H 5.986366 -1.304728 2.943347 0
M  V30 45 H 5.918071 -1.172414 1.178392 0
M  V30 46 H 3.765139 -0.258844 -0.075778 0
M  V30 47 H 0.736613 0.877144 0.531745 0
M  V30 48 H 1.347355 5.362749 -0.827091 0
M  V30 49 H -0.600718 6.316925 -1.932750 0
M  V30 50 H -2.662165 5.040684 -2.257200 0
M  V30 51 H -2.397138 0.543981 -1.050748 0
M  V30 52 H -6.100964 -0.635699 -1.752338 0
M  V30 53 H -5.972580 -3.106870 -1.390795 0
M  V30 54 H -3.594483 -4.358170 -2.910388 0
M  V30 55 H -2.079092 -6.210589 -2.516375 0
M  V30 56 H -1.630596 -7.046787 -0.208502 0
M  V30 57 H -2.808642 -5.896735 1.697464 0
M  V30 58 H -6.220885 1.981447 -2.147133 0
M  V30 59 H -0.880954 1.725166 -0.342665 0
M  V30 60 H 1.943194 1.217503 3.507595 0
M  V30 END ATOM
M  V30 BEGIN BOND
M  V30 1 1 1 2
M  V30 2 1 2 3
M  V30 3 1 2 4
M  V30 4 1 4 5
M  V30 5 1 5 6
M  V30 6 1 6 7
M  V30 7 2 7 8
M  V30 8 1 8 9
M  V30 9 1 9 10
M  V30 10 2 10 11
M  V30 11 1 10 12
M  V30 12 2 12 13
M  V30 13 1 13 14
M  V30 14 2 14 15
M  V30 15 1 15 16
M  V30 16 1 16 17
M  V30 17 1 17 18
M  V30 18 2 18 19
M  V30 19 1 19 20
M  V30 20 1 20 21
M  V30 21 2 21 22
M  V30 22 1 21 23
M  V30 23 1 23 24
M  V30 24 2 24 25
M  V30 25 1 25 26
M  V30 26 2 26 27
M  V30 27 1 27 28
M  V30 28 2 28 29
M  V30 29 1 29 30
M  V30 30 1 19 31
M  V30 31 2 31 32
M  V30 32 2 16 33
M  V30 33 1 8 34
M  V30 34 2 34 35
M  V30 35 1 35 6
M  V30 36 1 33 12
M  V30 37 1 32 17
M  V30 38 1 29 24
M  V30 39 1 1 36
M  V30 40 1 1 37
M  V30 41 1 1 38
M  V30 42 1 3 39
M  V30 43 1 3 40
M  V30 44 1 3 41
M  V30 45 1 4 42
M  V30 46 1 4 43
M  V30 47 1 5 44
M  V30 48 1 5 45
M  V30 49 1 7 46
M  V30 50 1 9 47
M  V30 51 1 13 48
M  V30 52 1 14 49
M  V30 53 1 15 50
M  V30 54 1 18 51
M  V30 55 1 20 52
M  V30 56 1 23 53
M  V30 57 1 25 54
M  V30 58 1 26 55
M  V30 59 1 27 56
M  V30 60 1 28 57
M  V30 61 1 31 58
M  V30 62 1 33 59
M  V30 63 1 34 60
M  V30 END BOND
M  V30 END CTAB
M  END
>  <Dataset>  (154) 
ChEMBL_Kinases

>  <Ligand_Instance>  (154) 
nan

>  <PDB_ID>  (154) 
nan

>  <Standardized_SMILES>  (154) 
CN(C)CCn1cc(NC(=O)c2cccc(-n3cc(NC(=O)Nc4ccccc4Cl)cn3)c2)cn1

>  <Name>  (154) 
nan

>  <Pocket>  (154) 
nan

>  <ATP_Site>  (154) 
nan

>  <Peripheral>  (154) 
nan

>  <Num_H_Atoms_ProtBoundConf>  (154) 
nan

>  <Num_Resolved_Atoms>  (154) 
nan

>  <Num_Not_Resolved_Atoms>  (154) 
nan

$$$$
CHEMBL4788972
     RDKit          3D

  0  0  0  0  0  0  0  0  0  0999 V3000
M  V30 BEGIN CTAB
M  V30 COUNTS 45 49 0 0 0
M  V30 BEGIN ATOM
M  V30 1 O 0.338644 -4.139972 1.561267 0
M  V30 2 C -0.657764 -3.998594 0.776599 0
M  V30 3 N -0.412687 -3.404691 -0.494127 0
M  V30 4 C 0.929178 -3.023467 -0.768278 0
M  V30 5 C 1.869324 -3.862639 -1.366360 0
M  V30 6 N 2.979408 -3.099105 -1.428767 0
M  V30 7 N 2.741554 -1.898164 -0.914677 0
M  V30 8 C 1.490227 -1.794915 -0.490619 0
M  V30 9 C 0.885603 -0.620244 0.126599 0
M  V30 10 N 1.502210 0.560737 0.369776 0
M  V30 11 C 0.654816 1.422350 0.946790 0
M  V30 12 C 0.754568 2.736156 1.397892 0
M  V30 13 C 2.059517 3.382407 1.232837 0
M  V30 14 C 2.716539 4.140781 2.190234 0
M  V30 15 C 3.944951 4.691913 1.897394 0
M  V30 16 C 4.563228 4.518962 0.667831 0
M  V30 17 C 3.900985 3.758384 -0.287981 0
M  V30 18 F 4.530370 3.602470 -1.491212 0
M  V30 19 C 2.662700 3.199681 -0.000338 0
M  V30 20 C -0.344457 3.372466 1.969791 0
M  V30 21 C -1.556655 2.703789 2.097960 0
M  V30 22 C -1.651854 1.406007 1.651330 0
M  V30 23 C -0.555451 0.786931 1.086556 0
M  V30 24 N -0.363238 -0.442853 0.576336 0
M  V30 25 C -2.011044 -4.415445 1.128499 0
M  V30 26 C -3.148097 -4.305943 0.354600 0
M  V30 27 C -4.366855 -4.747660 0.825751 0
M  V30 28 C -4.524048 -5.315885 2.075892 0
M  V30 29 N -3.410813 -5.430587 2.850997 0
M  V30 30 C -2.210322 -4.995487 2.386911 0
M  V30 31 H -1.148419 -3.240834 -1.212017 0
M  V30 32 H 1.763227 -4.882142 -1.707763 0
M  V30 33 H 3.930253 -3.368001 -1.820885 0
M  V30 34 H 2.198280 4.248373 3.131080 0
M  V30 35 H 4.428566 5.276971 2.666594 0
M  V30 36 H 5.544148 4.969709 0.459573 0
M  V30 37 H 2.257515 2.626256 -0.844863 0
M  V30 38 H -0.234706 4.393668 2.310478 0
M  V30 39 H -2.365220 3.284286 2.559946 0
M  V30 40 H -2.606683 0.907918 1.762788 0
M  V30 41 H -1.132111 -1.147511 0.554633 0
M  V30 42 H -2.999543 -3.858465 -0.618523 0
M  V30 43 H -5.185900 -4.598265 0.104239 0
M  V30 44 H -5.521929 -5.617125 2.321093 0
M  V30 45 H -1.409182 -5.155227 3.124291 0
M  V30 END ATOM
M  V30 BEGIN BOND
M  V30 1 2 1 2
M  V30 2 1 2 3
M  V30 3 1 3 4
M  V30 4 2 4 5
M  V30 5 1 5 6
M  V30 6 1 6 7
M  V30 7 2 7 8
M  V30 8 1 8 9
M  V30 9 2 9 10
M  V30 10 1 10 11
M  V30 11 2 11 12
M  V30 12 1 12 13
M  V30 13 2 13 14
M  V30 14 1 14 15
M  V30 15 2 15 16
M  V30 16 1 16 17
M  V30 17 1 17 18
M  V30 18 2 17 19
M  V30 19 1 12 20
M  V30 20 2 20 21
M  V30 21 1 21 22
M  V30 22 2 22 23
M  V30 23 1 23 24
M  V30 24 1 2 25
M  V30 25 2 25 26
M  V30 26 1 26 27
M  V30 27 2 27 28
M  V30 28 1 28 29
M  V30 29 2 29 30
M  V30 30 1 8 4
M  V30 31 1 24 9
M  V30 32 1 30 25
M  V30 33 1 23 11
M  V30 34 1 19 13
M  V30 35 1 3 31
M  V30 36 1 5 32
M  V30 37 1 6 33
M  V30 38 1 14 34
M  V30 39 1 15 35
M  V30 40 1 16 36
M  V30 41 1 19 37
M  V30 42 1 20 38
M  V30 43 1 21 39
M  V30 44 1 22 40
M  V30 45 1 24 41
M  V30 46 1 26 42
M  V30 47 1 27 43
M  V30 48 1 28 44
M  V30 49 1 30 45
M  V30 END BOND
M  V30 END CTAB
M  END
>  <Dataset>  (155) 
ChEMBL_Kinases

>  <Ligand_Instance>  (155) 
nan

>  <PDB_ID>  (155) 
nan

>  <Standardized_SMILES>  (155) 
O=C(Nc1c[nH]nc1-c1nc2c(-c3cccc(F)c3)cccc2[nH]1)c1cccnc1

>  <Name>  (155) 
nan

>  <Pocket>  (155) 
nan

>  <ATP_Site>  (155) 
nan

>  <Peripheral>  (155) 
nan

>  <Num_H_Atoms_ProtBoundConf>  (155) 
nan

>  <Num_Resolved_Atoms>  (155) 
nan

>  <Num_Not_Resolved_Atoms>  (155) 
nan

$$$$
CHEMBL4790819
     RDKit          3D

  0  0  0  0  0  0  0  0  0  0999 V3000
M  V30 BEGIN CTAB
M  V30 COUNTS 64 67 0 0 0
M  V30 BEGIN ATOM
M  V30 1 C 3.161529 0.877554 7.119207 0
M  V30 2 C 3.226754 0.306935 5.717460 0
M  V30 3 C 2.912779 -1.176476 5.740383 0
M  V30 4 O 2.409882 1.008346 4.833055 0
M  V30 5 C 2.809348 1.712894 3.717718 0
M  V30 6 C 4.070120 1.910037 3.192865 0
M  V30 7 N 4.239031 2.642975 2.078258 0
M  V30 8 C 3.218411 3.220363 1.413909 0
M  V30 9 C 1.930815 3.064413 1.882878 0
M  V30 10 C 0.853345 3.698833 1.144243 0
M  V30 11 O 1.154077 4.355654 0.114791 0
M  V30 12 N -0.511678 3.659000 1.458498 0
M  V30 13 C -1.405715 4.367983 0.574736 0
M  V30 14 C -1.775445 5.709429 0.731511 0
M  V30 15 N -2.625541 6.025385 -0.287436 0
M  V30 16 N -2.783007 4.934741 -1.048873 0
M  V30 17 C -2.066175 3.933641 -0.555665 0
M  V30 18 C -1.917385 2.564275 -1.031820 0
M  V30 19 O -1.175156 1.765691 -0.403271 0
M  V30 20 N -2.555576 2.023890 -2.183008 0
M  V30 21 C -2.156439 0.642010 -2.319377 0
M  V30 22 C -1.056679 0.199659 -3.029718 0
M  V30 23 C -0.782747 -1.153865 -3.082775 0
M  V30 24 C -1.645597 -1.995276 -2.407069 0
M  V30 25 O -1.414096 -3.384840 -2.427337 0
M  V30 26 C -2.268235 -4.285883 -1.752979 0
M  V30 27 C -2.707004 -5.318681 -2.771580 0
M  V30 28 C -1.437308 -5.761632 -3.491316 0
M  V30 29 N -0.690266 -6.576411 -2.550724 0
M  V30 30 C -0.852200 -7.962630 -2.962483 0
M  V30 31 C -1.107500 -6.431766 -1.192329 0
M  V30 32 C -1.376988 -5.025508 -0.756496 0
M  V30 33 N -2.714957 -1.547428 -1.718165 0
M  V30 34 C -3.007017 -0.216012 -1.650454 0
M  V30 35 C 1.760027 2.314492 3.022963 0
M  V30 36 H 2.344867 0.461096 7.729997 0
M  V30 37 H 3.137998 1.972059 7.078277 0
M  V30 38 H 4.104274 0.600571 7.632095 0
M  V30 39 H 4.280155 0.390736 5.395337 0
M  V30 40 H 3.487521 -1.680882 4.942135 0
M  V30 41 H 3.246685 -1.645551 6.698481 0
M  V30 42 H 1.823892 -1.357995 5.680400 0
M  V30 43 H 4.855862 1.430537 3.755665 0
M  V30 44 H 3.470721 3.783957 0.534121 0
M  V30 45 H -0.797186 3.116855 2.315322 0
M  V30 46 H -1.472029 6.414552 1.502676 0
M  V30 47 H -3.060653 6.965810 -0.421129 0
M  V30 48 H -3.179366 2.655024 -2.729850 0
M  V30 49 H -0.456814 0.956068 -3.516756 0
M  V30 50 H 0.076249 -1.504089 -3.637344 0
M  V30 51 H -3.091441 -3.774002 -1.246921 0
M  V30 52 H -3.206360 -6.170726 -2.278958 0
M  V30 53 H -3.363886 -4.843744 -3.514574 0
M  V30 54 H -1.673123 -6.307503 -4.426894 0
M  V30 55 H -0.801064 -4.875702 -3.692717 0
M  V30 56 H -1.886486 -8.185701 -3.230204 0
M  V30 57 H -0.190757 -8.213006 -3.834483 0
M  V30 58 H -0.511490 -8.662718 -2.149160 0
M  V30 59 H -0.258240 -6.787487 -0.540001 0
M  V30 60 H -1.944949 -7.134249 -0.909514 0
M  V30 61 H -0.397668 -4.532182 -0.610895 0
M  V30 62 H -1.881771 -5.076398 0.230447 0
M  V30 63 H -3.877049 0.088995 -1.084111 0
M  V30 64 H 0.719169 2.228503 3.342673 0
M  V30 END ATOM
M  V30 BEGIN BOND
M  V30 1 1 1 2
M  V30 2 1 2 3
M  V30 3 1 2 4
M  V30 4 1 4 5
M  V30 5 2 5 6
M  V30 6 1 6 7
M  V30 7 2 7 8
M  V30 8 1 8 9
M  V30 9 1 9 10
M  V30 10 2 10 11
M  V30 11 1 10 12
M  V30 12 1 12 13
M  V30 13 2 13 14
M  V30 14 1 14 15
M  V30 15 1 15 16
M  V30 16 2 16 17
M  V30 17 1 17 18
M  V30 18 2 18 19
M  V30 19 1 18 20
M  V30 20 1 20 21
M  V30 21 2 21 22
M  V30 22 1 22 23
M  V30 23 2 23 24
M  V30 24 1 24 25
M  V30 25 1 25 26
M  V30 26 1 26 27
M  V30 27 1 27 28
M  V30 28 1 28 29
M  V30 29 1 29 30
M  V30 30 1 29 31
M  V30 31 1 31 32
M  V30 32 1 24 33
M  V30 33 2 33 34
M  V30 34 2 9 35
M  V30 35 1 35 5
M  V30 36 1 17 13
M  V30 37 1 34 21
M  V30 38 1 32 26
M  V30 39 1 1 36
M  V30 40 1 1 37
M  V30 41 1 1 38
M  V30 42 1 2 39
M  V30 43 1 3 40
M  V30 44 1 3 41
M  V30 45 1 3 42
M  V30 46 1 6 43
M  V30 47 1 8 44
M  V30 48 1 12 45
M  V30 49 1 14 46
M  V30 50 1 15 47
M  V30 51 1 20 48
M  V30 52 1 22 49
M  V30 53 1 23 50
M  V30 54 1 26 51
M  V30 55 1 27 52
M  V30 56 1 27 53
M  V30 57 1 28 54
M  V30 58 1 28 55
M  V30 59 1 30 56
M  V30 60 1 30 57
M  V30 61 1 30 58
M  V30 62 1 31 59
M  V30 63 1 31 60
M  V30 64 1 32 61
M  V30 65 1 32 62
M  V30 66 1 34 63
M  V30 67 1 35 64
M  V30 END BOND
M  V30 END CTAB
M  END
>  <Dataset>  (156) 
ChEMBL_Kinases

>  <Ligand_Instance>  (156) 
nan

>  <PDB_ID>  (156) 
nan

>  <Standardized_SMILES>  (156) 
CC(C)Oc1cncc(C(=O)Nc2c[nH]nc2C(=O)Nc2ccc(OC3CCN(C)CC3)nc2)c1

>  <Name>  (156) 
nan

>  <Pocket>  (156) 
nan

>  <ATP_Site>  (156) 
nan

>  <Peripheral>  (156) 
nan

>  <Num_H_Atoms_ProtBoundConf>  (156) 
nan

>  <Num_Resolved_Atoms>  (156) 
nan

>  <Num_Not_Resolved_Atoms>  (156) 
nan

$$$$
CHEMBL4161572
     RDKit          3D

  0  0  0  0  0  0  0  0  0  0999 V3000
M  V30 BEGIN CTAB
M  V30 COUNTS 57 61 0 0 0
M  V30 BEGIN ATOM
M  V30 1 C 0.298913 -3.530190 4.372711 0
M  V30 2 C 0.184588 -2.874072 3.014522 0
M  V30 3 C 1.026157 -3.561196 1.978650 0 CFG=2
M  V30 4 C 2.454436 -3.486622 2.454624 0
M  V30 5 O 3.326973 -4.341371 2.811764 0
M  V30 6 N 2.952208 -2.133446 2.522792 0
M  V30 7 C 4.020675 -1.644986 3.405451 0
M  V30 8 C 2.416176 -1.114723 1.686141 0
M  V30 9 C 2.804740 0.202339 1.665199 0
M  V30 10 N 2.210218 1.067445 0.822013 0
M  V30 11 C 1.229779 0.725320 -0.031014 0
M  V30 12 N 0.597677 1.637417 -0.925085 0
M  V30 13 C 1.192116 2.238171 -1.965918 0
M  V30 14 C 0.273235 3.063709 -2.620277 0
M  V30 15 C -0.906360 2.912290 -1.897601 0
M  V30 16 C -2.154465 3.477022 -2.068281 0
M  V30 17 C -3.141344 3.124067 -1.171716 0
M  V30 18 C -4.458596 3.722975 -1.355632 0
M  V30 19 N -5.562058 3.444611 -0.502042 0
M  V30 20 O -4.745662 4.531637 -2.271700 0
M  V30 21 C -2.993533 2.251681 -0.112213 0
M  V30 22 C -1.720497 1.710677 0.016706 0
M  V30 23 C -0.706399 2.035126 -0.855252 0
M  V30 24 N 0.801363 -0.549820 -0.061853 0
M  V30 25 C 1.394424 -1.440493 0.787465 0
M  V30 26 N 0.927938 -2.778503 0.739587 0
M  V30 27 C 0.379102 -3.432787 -0.398691 0
M  V30 28 C -1.067004 -3.817735 -0.306175 0
M  V30 29 C -1.713943 -3.437707 -1.648904 0
M  V30 30 C -0.771616 -2.402491 -2.246333 0
M  V30 31 C 0.610256 -2.807017 -1.726580 0
M  V30 32 H -0.704163 -3.802826 4.753531 0
M  V30 33 H 0.980266 -4.428483 4.316720 0
M  V30 34 H 0.697136 -2.782252 5.089165 0
M  V30 35 H -0.880080 -2.857031 2.714080 0
M  V30 36 H 0.496823 -1.799735 3.062726 0
M  V30 37 H 0.758310 -4.611405 1.833033 0
M  V30 38 H 4.310107 -2.438294 4.136001 0
M  V30 39 H 3.666081 -0.788550 4.012685 0
M  V30 40 H 4.893427 -1.288634 2.817356 0
M  V30 41 H 3.590946 0.489828 2.345250 0
M  V30 42 H 2.244705 2.100997 -2.259459 0
M  V30 43 H 0.442261 3.681968 -3.493545 0
M  V30 44 H -2.368036 4.176826 -2.875709 0
M  V30 45 H -5.956640 2.771978 0.166129 0
M  V30 46 H -5.939982 2.744960 0.173015 0
M  V30 47 H -3.812960 2.018373 0.555119 0
M  V30 48 H -1.518058 1.015409 0.823235 0
M  V30 49 H 0.930280 -4.437562 -0.435095 0
M  V30 50 H -1.623918 -3.371071 0.528104 0
M  V30 51 H -1.236917 -4.911329 -0.234544 0
M  V30 52 H -1.773355 -4.303188 -2.338079 0
M  V30 53 H -2.711482 -3.011372 -1.486746 0
M  V30 54 H -0.844610 -2.515705 -3.354816 0
M  V30 55 H -1.039501 -1.379361 -1.992090 0
M  V30 56 H 0.958740 -3.570580 -2.491657 0
M  V30 57 H 1.343136 -2.008043 -1.785675 0
M  V30 END ATOM
M  V30 BEGIN BOND
M  V30 1 1 1 2
M  V30 2 1 2 3
M  V30 3 1 3 4
M  V30 4 2 4 5
M  V30 5 1 4 6
M  V30 6 1 6 7
M  V30 7 1 6 8
M  V30 8 2 8 9
M  V30 9 1 9 10
M  V30 10 2 10 11
M  V30 11 1 11 12
M  V30 12 1 12 13
M  V30 13 2 13 14
M  V30 14 1 14 15
M  V30 15 2 15 16
M  V30 16 1 16 17
M  V30 17 1 17 18
M  V30 18 1 18 19
M  V30 19 2 18 20
M  V30 20 2 17 21
M  V30 21 1 21 22
M  V30 22 2 22 23
M  V30 23 1 11 24
M  V30 24 2 24 25
M  V30 25 1 25 26
M  V30 26 1 26 27
M  V30 27 1 27 28
M  V30 28 1 28 29
M  V30 29 1 29 30
M  V30 30 1 30 31
M  V30 31 1 26 3
M  V30 32 1 31 27
M  V30 33 1 25 8
M  V30 34 1 23 12
M  V30 35 1 23 15
M  V30 36 1 1 32
M  V30 37 1 1 33
M  V30 38 1 1 34
M  V30 39 1 2 35
M  V30 40 1 2 36
M  V30 41 1 3 37 CFG=3
M  V30 42 1 7 38
M  V30 43 1 7 39
M  V30 44 1 7 40
M  V30 45 1 9 41
M  V30 46 1 13 42
M  V30 47 1 14 43
M  V30 48 1 16 44
M  V30 49 1 19 45
M  V30 50 1 19 46
M  V30 51 1 21 47
M  V30 52 1 22 48
M  V30 53 1 27 49
M  V30 54 1 28 50
M  V30 55 1 28 51
M  V30 56 1 29 52
M  V30 57 1 29 53
M  V30 58 1 30 54
M  V30 59 1 30 55
M  V30 60 1 31 56
M  V30 61 1 31 57
M  V30 END BOND
M  V30 END CTAB
M  END
>  <Dataset>  (157) 
ChEMBL_Kinases

>  <Ligand_Instance>  (157) 
nan

>  <PDB_ID>  (157) 
nan

>  <Standardized_SMILES>  (157) 
CC[C@@H]1C(=O)N(C)c2cnc(-n3ccc4cc(C(N)=O)ccc43)nc2N1C1CCCC1

>  <Name>  (157) 
nan

>  <Pocket>  (157) 
nan

>  <ATP_Site>  (157) 
nan

>  <Peripheral>  (157) 
nan

>  <Num_H_Atoms_ProtBoundConf>  (157) 
nan

>  <Num_Resolved_Atoms>  (157) 
nan

>  <Num_Not_Resolved_Atoms>  (157) 
nan

$$$$
CHEMBL4788867
     RDKit          3D

  0  0  0  0  0  0  0  0  0  0999 V3000
M  V30 BEGIN CTAB
M  V30 COUNTS 61 65 0 0 0
M  V30 BEGIN ATOM
M  V30 1 C 7.169984 3.502002 8.155338 0
M  V30 2 C 6.203523 3.208883 7.062453 0
M  V30 3 N 5.442787 2.190724 6.798082 0
M  V30 4 N 4.685748 2.204298 5.761892 0
M  V30 5 C 4.632933 3.181291 4.954783 0
M  V30 6 C 3.792572 3.329897 3.704969 0
M  V30 7 C 3.956919 4.523074 3.030521 0
M  V30 8 C 3.172781 4.647552 1.880045 0
M  V30 9 C 2.302764 3.635976 1.466915 0
M  V30 10 C 1.542996 3.803323 0.317982 0
M  V30 11 N 0.700732 2.818022 -0.076492 0
M  V30 12 C 0.597434 1.671564 0.645243 0
M  V30 13 N -0.241840 0.557411 0.354859 0
M  V30 14 C 0.407123 -0.373588 -0.468425 0
M  V30 15 O 1.583316 -0.072057 -0.799688 0
M  V30 16 C -0.152445 -1.627685 -0.958833 0
M  V30 17 C 0.649219 -2.406550 -1.772091 0
M  V30 18 C 0.026900 -3.571802 -2.180270 0
M  V30 19 N -1.207565 -4.006952 -1.887873 0
M  V30 20 C -1.973417 -3.237410 -1.095796 0
M  V30 21 N -3.297723 -3.593010 -0.716457 0
M  V30 22 C -4.023591 -2.660770 0.161812 0
M  V30 23 C -4.042066 -4.740589 -1.069601 0
M  V30 24 C -5.277366 -4.257123 -1.843603 0
M  V30 25 C -4.657248 -3.559331 -3.047881 0
M  V30 26 N -4.010792 -4.460204 -3.922787 0
M  V30 27 C -3.073534 -3.731443 -4.752051 0
M  V30 28 C -3.383113 -5.610492 -3.359982 0
M  V30 29 C -3.418266 -5.785136 -1.895359 0
M  V30 30 C -1.426908 -2.051890 -0.642118 0
M  V30 31 C 1.349840 1.477647 1.804034 0
M  V30 32 C 2.227068 2.486260 2.228272 0
M  V30 33 C 2.979376 2.299616 3.382429 0
M  V30 34 S 5.747948 4.336930 5.595717 0
M  V30 35 H 7.446965 4.576513 8.176663 0
M  V30 36 H 8.056919 2.841198 8.119615 0
M  V30 37 H 6.622413 3.277175 9.089558 0
M  V30 38 H 4.634825 5.299472 3.361626 0
M  V30 39 H 3.268991 5.574095 1.313788 0
M  V30 40 H 1.608914 4.702886 -0.268416 0
M  V30 41 H -1.219802 0.355761 0.658271 0
M  V30 42 H 1.657795 -2.181582 -2.087916 0
M  V30 43 H 0.595336 -4.253613 -2.833275 0
M  V30 44 H -3.358617 -2.504879 1.040852 0
M  V30 45 H -4.084651 -1.690282 -0.343235 0
M  V30 46 H -5.015310 -2.999864 0.445063 0
M  V30 47 H -4.422601 -5.193031 -0.118235 0
M  V30 48 H -5.900436 -3.567702 -1.285305 0
M  V30 49 H -5.793895 -5.167674 -2.226425 0
M  V30 50 H -3.888546 -2.832616 -2.653380 0
M  V30 51 H -5.466314 -3.013213 -3.570192 0
M  V30 52 H -3.463991 -3.570324 -5.778740 0
M  V30 53 H -2.823738 -2.793495 -4.217736 0
M  V30 54 H -2.082656 -4.271817 -4.821461 0
M  V30 55 H -2.349861 -5.716013 -3.763238 0
M  V30 56 H -3.916856 -6.489786 -3.835741 0
M  V30 57 H -3.956073 -6.752583 -1.636607 0
M  V30 58 H -2.371853 -6.012540 -1.533560 0
M  V30 59 H -2.012129 -1.393126 0.003457 0
M  V30 60 H 1.311882 0.591857 2.417565 0
M  V30 61 H 2.909386 1.396132 3.966397 0
M  V30 END ATOM
M  V30 BEGIN BOND
M  V30 1 1 1 2
M  V30 2 2 2 3
M  V30 3 1 3 4
M  V30 4 2 4 5
M  V30 5 1 5 6
M  V30 6 2 6 7
M  V30 7 1 7 8
M  V30 8 2 8 9
M  V30 9 1 9 10
M  V30 10 2 10 11
M  V30 11 1 11 12
M  V30 12 1 12 13
M  V30 13 1 13 14
M  V30 14 2 14 15
M  V30 15 1 14 16
M  V30 16 2 16 17
M  V30 17 1 17 18
M  V30 18 2 18 19
M  V30 19 1 19 20
M  V30 20 1 20 21
M  V30 21 1 21 22
M  V30 22 1 21 23
M  V30 23 1 23 24
M  V30 24 1 24 25
M  V30 25 1 25 26
M  V30 26 1 26 27
M  V30 27 1 26 28
M  V30 28 1 28 29
M  V30 29 2 20 30
M  V30 30 2 12 31
M  V30 31 1 31 32
M  V30 32 2 32 33
M  V30 33 1 5 34
M  V30 34 1 34 2
M  V30 35 1 33 6
M  V30 36 1 32 9
M  V30 37 1 30 16
M  V30 38 1 29 23
M  V30 39 1 1 35
M  V30 40 1 1 36
M  V30 41 1 1 37
M  V30 42 1 7 38
M  V30 43 1 8 39
M  V30 44 1 10 40
M  V30 45 1 13 41
M  V30 46 1 17 42
M  V30 47 1 18 43
M  V30 48 1 22 44
M  V30 49 1 22 45
M  V30 50 1 22 46
M  V30 51 1 23 47
M  V30 52 1 24 48
M  V30 53 1 24 49
M  V30 54 1 25 50
M  V30 55 1 25 51
M  V30 56 1 27 52
M  V30 57 1 27 53
M  V30 58 1 27 54
M  V30 59 1 28 55
M  V30 60 1 28 56
M  V30 61 1 29 57
M  V30 62 1 29 58
M  V30 63 1 30 59
M  V30 64 1 31 60
M  V30 65 1 33 61
M  V30 END BOND
M  V30 END CTAB
M  END
>  <Dataset>  (158) 
ChEMBL_Kinases

>  <Ligand_Instance>  (158) 
nan

>  <PDB_ID>  (158) 
nan

>  <Standardized_SMILES>  (158) 
Cc1nnc(-c2ccc3cnc(NC(=O)c4ccnc(N(C)C5CCN(C)CC5)c4)cc3c2)s1

>  <Name>  (158) 
nan

>  <Pocket>  (158) 
nan

>  <ATP_Site>  (158) 
nan

>  <Peripheral>  (158) 
nan

>  <Num_H_Atoms_ProtBoundConf>  (158) 
nan

>  <Num_Resolved_Atoms>  (158) 
nan

>  <Num_Not_Resolved_Atoms>  (158) 
nan

$$$$
CHEMBL4790835
     RDKit          3D

  0  0  0  0  0  0  0  0  0  0999 V3000
M  V30 BEGIN CTAB
M  V30 COUNTS 64 68 0 0 0
M  V30 BEGIN ATOM
M  V30 1 C 3.717405 -1.077751 2.126207 0
M  V30 2 C 4.161111 -1.319827 0.679359 0
M  V30 3 C 5.487592 -2.041618 0.765799 0
M  V30 4 O 4.319975 -0.119980 -0.020118 0
M  V30 5 C 3.601801 0.239405 -1.127518 0
M  V30 6 O 2.766439 -0.674395 -1.434778 0
M  V30 7 N 3.576682 1.366747 -1.986675 0
M  V30 8 C 2.629915 1.325973 -3.063375 0
M  V30 9 C 2.137038 2.666570 -3.487318 0
M  V30 10 C 2.287096 3.762693 -2.486595 0
M  V30 11 N 1.152722 3.771555 -1.557468 0
M  V30 12 C 0.751336 2.696207 -0.859044 0
M  V30 13 C -0.333543 3.039908 -0.080784 0
M  V30 14 C -1.219002 2.388207 0.877984 0
M  V30 15 O -2.186637 2.834229 1.507693 0
M  V30 16 N -0.865186 1.020950 1.082354 0
M  V30 17 C -1.351571 -0.059321 1.870725 0
M  V30 18 C -2.317163 -0.873482 1.300018 0
M  V30 19 C -2.793851 -1.933142 2.074161 0
M  V30 20 C -3.745440 -2.744136 1.525847 0
M  V30 21 C -4.233708 -3.798595 2.269441 0
M  V30 22 C -5.262534 -4.655461 1.647512 0
M  V30 23 C -5.808189 -4.530674 0.386773 0
M  V30 24 N -6.708535 -5.528363 0.242230 0
M  V30 25 N -6.745348 -6.258375 1.344466 0
M  V30 26 C -7.581136 -7.437678 1.616907 0
M  V30 27 C -5.872329 -5.752781 2.227535 0
M  V30 28 N -3.785453 -4.032246 3.516338 0
M  V30 29 C -2.835732 -3.238228 4.088079 0
M  V30 30 C -2.324105 -2.171916 3.371031 0
M  V30 31 C -1.347006 -1.305654 3.879690 0
M  V30 32 N -0.880524 -0.275830 3.134200 0
M  V30 33 C -0.577329 4.394126 -0.342053 0
M  V30 34 N 0.347140 4.780762 -1.237236 0
M  V30 35 C 3.601321 3.807532 -1.776047 0
M  V30 36 C 4.400899 2.535283 -1.879174 0
M  V30 37 H 3.284803 -2.046350 2.480513 0
M  V30 38 H 2.914255 -0.334457 2.187461 0
M  V30 39 H 4.577490 -0.871974 2.775777 0
M  V30 40 H 3.366949 -1.962206 0.221858 0
M  V30 41 H 6.133782 -1.423786 1.450227 0
M  V30 42 H 5.978793 -2.117946 -0.206156 0
M  V30 43 H 5.256104 -3.032572 1.237178 0
M  V30 44 H 1.796516 0.628465 -2.819500 0
M  V30 45 H 3.144490 0.848350 -3.946714 0
M  V30 46 H 2.624573 2.959523 -4.440373 0
M  V30 47 H 1.035487 2.553592 -3.703639 0
M  V30 48 H 2.170249 4.727757 -3.067999 0
M  V30 49 H 1.088763 1.691701 -0.795751 0
M  V30 50 H -0.063760 0.505187 0.613649 0
M  V30 51 H -2.686183 -0.699349 0.302427 0
M  V30 52 H -4.131002 -2.581843 0.514897 0
M  V30 53 H -5.570525 -3.785377 -0.350821 0
M  V30 54 H -6.939170 -8.258683 2.008835 0
M  V30 55 H -7.938650 -7.782296 0.610701 0
M  V30 56 H -8.440017 -7.194292 2.243603 0
M  V30 57 H -5.648209 -6.105667 3.230156 0
M  V30 58 H -2.469190 -3.417373 5.089031 0
M  V30 59 H -0.974047 -1.487228 4.896778 0
M  V30 60 H -1.307347 5.077352 0.027234 0
M  V30 61 H 4.246685 4.629652 -2.203619 0
M  V30 62 H 3.434812 4.000805 -0.686252 0
M  V30 63 H 5.099824 2.624430 -2.744288 0
M  V30 64 H 5.060840 2.468511 -0.987664 0
M  V30 END ATOM
M  V30 BEGIN BOND
M  V30 1 1 1 2
M  V30 2 1 2 3
M  V30 3 1 2 4
M  V30 4 1 4 5
M  V30 5 2 5 6
M  V30 6 1 5 7
M  V30 7 1 7 8
M  V30 8 1 8 9
M  V30 9 1 9 10
M  V30 10 1 10 11
M  V30 11 1 11 12
M  V30 12 2 12 13
M  V30 13 1 13 14
M  V30 14 2 14 15
M  V30 15 1 14 16
M  V30 16 1 16 17
M  V30 17 2 17 18
M  V30 18 1 18 19
M  V30 19 2 19 20
M  V30 20 1 20 21
M  V30 21 1 21 22
M  V30 22 1 22 23
M  V30 23 2 23 24
M  V30 24 1 24 25
M  V30 25 1 25 26
M  V30 26 1 25 27
M  V30 27 2 21 28
M  V30 28 1 28 29
M  V30 29 2 29 30
M  V30 30 1 30 31
M  V30 31 2 31 32
M  V30 32 1 13 33
M  V30 33 2 33 34
M  V30 34 1 10 35
M  V30 35 1 35 36
M  V30 36 1 36 7
M  V30 37 1 34 11
M  V30 38 1 32 17
M  V30 39 1 30 19
M  V30 40 2 27 22
M  V30 41 1 1 37
M  V30 42 1 1 38
M  V30 43 1 1 39
M  V30 44 1 2 40
M  V30 45 1 3 41
M  V30 46 1 3 42
M  V30 47 1 3 43
M  V30 48 1 8 44
M  V30 49 1 8 45
M  V30 50 1 9 46
M  V30 51 1 9 47
M  V30 52 1 10 48
M  V30 53 1 12 49
M  V30 54 1 16 50
M  V30 55 1 18 51
M  V30 56 1 20 52
M  V30 57 1 23 53
M  V30 58 1 26 54
M  V30 59 1 26 55
M  V30 60 1 26 56
M  V30 61 1 27 57
M  V30 62 1 29 58
M  V30 63 1 31 59
M  V30 64 1 33 60
M  V30 65 1 35 61
M  V30 66 1 35 62
M  V30 67 1 36 63
M  V30 68 1 36 64
M  V30 END BOND
M  V30 END CTAB
M  END
>  <Dataset>  (159) 
ChEMBL_Kinases

>  <Ligand_Instance>  (159) 
nan

>  <PDB_ID>  (159) 
nan

>  <Standardized_SMILES>  (159) 
CC(C)OC(=O)N1CCC(n2cc(C(=O)Nc3cc4cc(-c5cnn(C)c5)ncc4cn3)cn2)CC1

>  <Name>  (159) 
nan

>  <Pocket>  (159) 
nan

>  <ATP_Site>  (159) 
nan

>  <Peripheral>  (159) 
nan

>  <Num_H_Atoms_ProtBoundConf>  (159) 
nan

>  <Num_Resolved_Atoms>  (159) 
nan

>  <Num_Not_Resolved_Atoms>  (159) 
nan

$$$$
CHEMBL4788785
     RDKit          3D

  0  0  0  0  0  0  0  0  0  0999 V3000
M  V30 BEGIN CTAB
M  V30 COUNTS 61 67 0 0 0
M  V30 BEGIN ATOM
M  V30 1 F 2.984742 -5.078345 -0.987047 0
M  V30 2 C 3.370671 -3.864440 -0.519297 0
M  V30 3 C 4.491855 -3.139123 -0.842949 0
M  V30 4 C 4.710591 -1.909555 -0.252866 0
M  V30 5 C 3.809100 -1.379252 0.675839 0
M  V30 6 C 4.263338 -0.081066 1.154699 0
M  V30 7 N 5.552443 0.073964 1.529179 0
M  V30 8 C 5.993012 1.265919 1.972756 0
M  V30 9 C 5.141654 2.364512 2.058171 0
M  V30 10 C 3.812091 2.249489 1.684095 0
M  V30 11 N 2.746034 3.042370 1.626509 0
M  V30 12 C 1.635812 2.424880 1.167223 0
M  V30 13 C 0.387879 3.141117 1.040802 0
M  V30 14 N 0.210142 4.426431 1.350374 0
M  V30 15 N -1.030773 4.819581 1.136421 0
M  V30 16 C -1.765216 3.800188 0.663294 0
M  V30 17 C -3.081125 3.649753 0.279342 0
M  V30 18 N -3.471304 2.438448 -0.157463 0
M  V30 19 C -2.648789 1.384266 -0.235318 0
M  V30 20 C -3.184263 0.123836 -0.722838 0
M  V30 21 C -4.512240 0.083565 -1.078566 0
M  V30 22 N -5.117916 -1.032926 -1.544059 0
M  V30 23 C -4.439824 -2.187327 -1.686852 0
M  V30 24 C -3.095611 -2.206669 -1.343333 0
M  V30 25 C -2.345792 -3.465408 -1.493640 0
M  V30 26 N -2.315402 -4.325153 -0.373910 0
M  V30 27 C -3.585873 -4.784980 0.083511 0
M  V30 28 C -3.401253 -5.091822 1.578215 0
M  V30 29 C -2.419700 -3.997395 1.942558 0
M  V30 30 F -1.691000 -4.318510 3.071045 0
M  V30 31 F -3.076217 -2.791190 2.149533 0
M  V30 32 C -1.517051 -3.971497 0.735690 0
M  V30 33 C -2.479803 -1.048136 -0.863667 0
M  V30 34 C -1.342340 1.568088 0.155363 0
M  V30 35 C -0.856762 2.763457 0.612580 0
M  V30 36 C 2.092814 1.157958 0.935550 0
M  V30 37 C 3.423808 1.006423 1.239741 0
M  V30 38 C 2.693659 -2.112683 0.991048 0
M  V30 39 C 2.470985 -3.338220 0.405883 0
M  V30 40 H 5.138981 -3.612515 -1.565323 0
M  V30 41 H 5.634414 -1.442916 -0.598342 0
M  V30 42 H 7.032966 1.355017 2.264937 0
M  V30 43 H 5.484529 3.311218 2.408913 0
M  V30 44 H 2.892938 4.036652 1.939792 0
M  V30 45 H -1.351997 5.795597 1.323105 0
M  V30 46 H -3.745325 4.502465 0.342645 0
M  V30 47 H -5.157798 0.951696 -1.006578 0
M  V30 48 H -4.999267 -3.029208 -2.065609 0
M  V30 49 H -1.348021 -3.187972 -1.888317 0
M  V30 50 H -2.815269 -4.050837 -2.339492 0
M  V30 51 H -3.873043 -5.705939 -0.471099 0
M  V30 52 H -4.364555 -3.991835 0.031719 0
M  V30 53 H -4.360850 -4.988525 2.115906 0
M  V30 54 H -2.887917 -6.059719 1.741756 0
M  V30 55 H -0.942504 -3.037588 0.648260 0
M  V30 56 H -0.740261 -4.766956 0.903461 0
M  V30 57 H -1.441383 -1.045166 -0.593730 0
M  V30 58 H -0.694646 0.716407 0.088008 0
M  V30 59 H 1.484276 0.360774 0.553757 0
M  V30 60 H 2.066632 -1.627168 1.713267 0
M  V30 61 H 1.547903 -3.804647 0.750780 0
M  V30 END ATOM
M  V30 BEGIN BOND
M  V30 1 1 1 2
M  V30 2 2 2 3
M  V30 3 1 3 4
M  V30 4 2 4 5
M  V30 5 1 5 6
M  V30 6 2 6 7
M  V30 7 1 7 8
M  V30 8 2 8 9
M  V30 9 1 9 10
M  V30 10 1 10 11
M  V30 11 1 11 12
M  V30 12 1 12 13
M  V30 13 2 13 14
M  V30 14 1 14 15
M  V30 15 1 15 16
M  V30 16 2 16 17
M  V30 17 1 17 18
M  V30 18 2 18 19
M  V30 19 1 19 20
M  V30 20 2 20 21
M  V30 21 1 21 22
M  V30 22 2 22 23
M  V30 23 1 23 24
M  V30 24 1 24 25
M  V30 25 1 25 26
M  V30 26 1 26 27
M  V30 27 1 27 28
M  V30 28 1 28 29
M  V30 29 1 29 30
M  V30 30 1 29 31
M  V30 31 1 29 32
M  V30 32 2 24 33
M  V30 33 1 19 34
M  V30 34 2 34 35
M  V30 35 2 12 36
M  V30 36 1 36 37
M  V30 37 1 5 38
M  V30 38 2 38 39
M  V30 39 1 39 2
M  V30 40 1 37 6
M  V30 41 2 37 10
M  V30 42 1 35 13
M  V30 43 1 35 16
M  V30 44 1 33 20
M  V30 45 1 32 26
M  V30 46 1 3 40
M  V30 47 1 4 41
M  V30 48 1 8 42
M  V30 49 1 9 43
M  V30 50 1 11 44
M  V30 51 1 15 45
M  V30 52 1 17 46
M  V30 53 1 21 47
M  V30 54 1 23 48
M  V30 55 1 25 49
M  V30 56 1 25 50
M  V30 57 1 27 51
M  V30 58 1 27 52
M  V30 59 1 28 53
M  V30 60 1 28 54
M  V30 61 1 32 55
M  V30 62 1 32 56
M  V30 63 1 33 57
M  V30 64 1 34 58
M  V30 65 1 36 59
M  V30 66 1 38 60
M  V30 67 1 39 61
M  V30 END BOND
M  V30 END CTAB
M  END
>  <Dataset>  (160) 
ChEMBL_Kinases

>  <Ligand_Instance>  (160) 
nan

>  <PDB_ID>  (160) 
nan

>  <Standardized_SMILES>  (160) 
Fc1ccc(-c2nccc3[nH]c(-c4n[nH]c5cnc(-c6cncc(CN7CCC(F)(F)C7)c6)cc45)cc23)cc1

>  <Name>  (160) 
nan

>  <Pocket>  (160) 
nan

>  <ATP_Site>  (160) 
nan

>  <Peripheral>  (160) 
nan

>  <Num_H_Atoms_ProtBoundConf>  (160) 
nan

>  <Num_Resolved_Atoms>  (160) 
nan

>  <Num_Not_Resolved_Atoms>  (160) 
nan

$$$$
CHEMBL4788759
     RDKit          3D

  0  0  0  0  0  0  0  0  0  0999 V3000
M  V30 BEGIN CTAB
M  V30 COUNTS 49 54 0 0 0
M  V30 BEGIN ATOM
M  V30 1 C 1.904748 -4.499842 0.661256 0
M  V30 2 O 3.131061 -3.863765 0.348070 0
M  V30 3 C 3.352082 -2.530738 0.282462 0
M  V30 4 C 4.679949 -2.283790 -0.068780 0
M  V30 5 N 5.174625 -1.023793 -0.209461 0
M  V30 6 C 4.412885 0.059232 -0.019153 0
M  V30 7 C 3.093060 -0.101095 0.331160 0
M  V30 8 C 2.142687 0.937080 0.566809 0
M  V30 9 C 2.669899 2.179771 0.059271 0
M  V30 10 C 2.111434 3.469631 0.020453 0
M  V30 11 C 0.813420 3.558347 0.576683 0
M  V30 12 N -0.138248 4.525518 0.816383 0
M  V30 13 N -1.160972 3.953910 1.413998 0
M  V30 14 C -0.958812 2.616410 1.598346 0
M  V30 15 C -1.960277 1.839609 2.367704 0
M  V30 16 N -1.837919 0.640434 1.642291 0
M  V30 17 C -2.599269 -0.358590 2.004833 0
M  V30 18 C -2.868793 -1.690202 1.595546 0
M  V30 19 C -2.206493 -2.272894 0.407300 0
M  V30 20 C -2.196908 -1.309105 -0.618465 0
M  V30 21 C -1.671493 -1.747924 -1.840471 0
M  V30 22 C -1.195255 -3.045312 -2.013307 0
M  V30 23 C -1.250219 -3.906832 -0.939873 0
M  V30 24 F -0.817313 -5.191142 -1.016028 0
M  V30 25 C -1.750775 -3.553294 0.292271 0
M  V30 26 C -3.811143 -2.409588 2.273116 0
M  V30 27 N -4.525286 -1.895628 3.349720 0
M  V30 28 C -4.270291 -0.620398 3.739631 0
M  V30 29 C -3.340232 0.067326 3.055414 0
M  V30 30 N -2.776275 1.230348 2.991055 0
M  V30 31 C 0.256185 2.398203 1.081359 0
M  V30 32 N 1.239941 1.696571 0.799627 0
M  V30 33 C 2.648659 -1.375663 0.459287 0
M  V30 34 H 1.071232 -3.744495 0.655445 0
M  V30 35 H 1.976733 -4.991745 1.638728 0
M  V30 36 H 1.714605 -5.218711 -0.194613 0
M  V30 37 H 5.440337 -3.008658 -0.268089 0
M  V30 38 H 4.847976 1.043123 -0.126338 0
M  V30 39 H 3.658867 2.459904 -0.455120 0
M  V30 40 H 2.501949 4.441692 -0.356705 0
M  V30 41 H -0.032090 5.547305 0.536336 0
M  V30 42 H -2.513801 -0.275451 -0.702622 0
M  V30 43 H -1.581811 -1.162940 -2.748212 0
M  V30 44 H -0.773351 -3.520171 -2.889262 0
M  V30 45 H -1.841533 -4.147237 1.189586 0
M  V30 46 H -4.042161 -3.421005 1.990315 0
M  V30 47 H -4.710505 -0.055437 4.553281 0
M  V30 48 H -3.033763 2.060185 3.687729 0
M  V30 49 H 1.615557 -1.606609 0.726634 0
M  V30 END ATOM
M  V30 BEGIN BOND
M  V30 1 1 1 2
M  V30 2 1 2 3
M  V30 3 2 3 4
M  V30 4 1 4 5
M  V30 5 2 5 6
M  V30 6 1 6 7
M  V30 7 1 7 8
M  V30 8 2 8 9
M  V30 9 1 9 10
M  V30 10 2 10 11
M  V30 11 1 11 12
M  V30 12 1 12 13
M  V30 13 2 13 14
M  V30 14 1 14 15
M  V30 15 2 15 16
M  V30 16 1 16 17
M  V30 17 2 17 18
M  V30 18 1 18 19
M  V30 19 2 19 20
M  V30 20 1 20 21
M  V30 21 2 21 22
M  V30 22 1 22 23
M  V30 23 1 23 24
M  V30 24 2 23 25
M  V30 25 1 18 26
M  V30 26 2 26 27
M  V30 27 1 27 28
M  V30 28 2 28 29
M  V30 29 1 29 30
M  V30 30 1 14 31
M  V30 31 2 31 32
M  V30 32 2 7 33
M  V30 33 1 33 3
M  V30 34 1 32 8
M  V30 35 1 31 11
M  V30 36 1 30 15
M  V30 37 1 29 17
M  V30 38 1 25 19
M  V30 39 1 1 34
M  V30 40 1 1 35
M  V30 41 1 1 36
M  V30 42 1 4 37
M  V30 43 1 6 38
M  V30 44 1 9 39
M  V30 45 1 10 40
M  V30 46 1 12 41
M  V30 47 1 20 42
M  V30 48 1 21 43
M  V30 49 1 22 44
M  V30 50 1 25 45
M  V30 51 1 26 46
M  V30 52 1 28 47
M  V30 53 1 30 48
M  V30 54 1 33 49
M  V30 END BOND
M  V30 END CTAB
M  END
>  <Dataset>  (161) 
ChEMBL_Kinases

>  <Ligand_Instance>  (161) 
nan

>  <PDB_ID>  (161) 
nan

>  <Standardized_SMILES>  (161) 
COc1cncc(-c2ccc3[nH]nc(-c4nc5c(-c6cccc(F)c6)cncc5[nH]4)c3n2)c1

>  <Name>  (161) 
nan

>  <Pocket>  (161) 
nan

>  <ATP_Site>  (161) 
nan

>  <Peripheral>  (161) 
nan

>  <Num_H_Atoms_ProtBoundConf>  (161) 
nan

>  <Num_Resolved_Atoms>  (161) 
nan

>  <Num_Not_Resolved_Atoms>  (161) 
nan

$$$$
CHEMBL4129023
     RDKit          3D

  0  0  0  0  0  0  0  0  0  0999 V3000
M  V30 BEGIN CTAB
M  V30 COUNTS 50 53 0 0 0
M  V30 BEGIN ATOM
M  V30 1 C -0.614032 -2.352965 3.621075 0
M  V30 2 N 0.558144 -2.588388 4.454032 0
M  V30 3 C 0.810574 -1.473431 5.340998 0
M  V30 4 C 1.650477 -2.803672 3.520220 0
M  V30 5 C 1.973995 -1.537719 2.791975 0
M  V30 6 N 3.064628 -1.809416 1.846662 0
M  V30 7 C 3.432746 -0.641931 1.130801 0
M  V30 8 C 4.631905 0.079402 1.130898 0
M  V30 9 N 4.753971 1.175291 0.373636 0
M  V30 10 C 3.728829 1.605824 -0.400562 0
M  V30 11 C 2.514340 0.913564 -0.427668 0
M  V30 12 C 1.368668 1.351484 -1.237496 0
M  V30 13 C 1.408630 2.465885 -2.048308 0
M  V30 14 C 0.285182 2.858271 -2.788505 0
M  V30 15 C -0.816802 2.045715 -2.625830 0
M  V30 16 N -2.045502 2.181491 -3.209978 0
M  V30 17 C -2.873916 1.195134 -2.804640 0
M  V30 18 C -2.176829 0.368005 -1.917663 0
M  V30 19 C -2.593849 -0.825275 -1.203126 0
M  V30 20 C -3.814680 -0.782929 -0.517515 0
M  V30 21 C -4.280708 -1.896633 0.191240 0
M  V30 22 C -3.554370 -3.065834 0.236038 0
M  V30 23 C -2.352188 -3.120408 -0.433934 0
M  V30 24 F -1.628811 -4.264631 -0.398194 0
M  V30 25 C -1.917892 -2.018855 -1.119538 0
M  V30 26 C -0.916903 0.925108 -1.835431 0
M  V30 27 C 0.226219 0.581328 -1.123573 0
M  V30 28 N 2.462701 -0.177694 0.356229 0
M  V30 29 H -0.654352 -1.304855 3.247057 0
M  V30 30 H -0.520608 -3.065014 2.764509 0
M  V30 31 H -1.568360 -2.515119 4.169375 0
M  V30 32 H 1.844824 -1.526838 5.685446 0
M  V30 33 H 0.042066 -1.550080 6.147202 0
M  V30 34 H 0.587160 -0.543324 4.742881 0
M  V30 35 H 1.330575 -3.602036 2.812421 0
M  V30 36 H 2.515227 -3.144374 4.099807 0
M  V30 37 H 2.279983 -0.778177 3.560285 0
M  V30 38 H 1.076873 -1.199177 2.199847 0
M  V30 39 H 3.539757 -2.732270 1.688876 0
M  V30 40 H 5.378730 -0.372782 1.797743 0
M  V30 41 H 3.860462 2.488842 -0.998247 0
M  V30 42 H 2.289351 3.054871 -2.133507 0
M  V30 43 H 0.297797 3.723213 -3.425320 0
M  V30 44 H -2.315306 2.951244 -3.886905 0
M  V30 45 H -3.904738 1.020866 -3.080263 0
M  V30 46 H -4.450971 0.101577 -0.502033 0
M  V30 47 H -5.247839 -1.809499 0.712907 0
M  V30 48 H -3.981021 -3.880096 0.804157 0
M  V30 49 H -0.976649 -2.060719 -1.643448 0
M  V30 50 H 0.194034 -0.284411 -0.495367 0
M  V30 END ATOM
M  V30 BEGIN BOND
M  V30 1 1 1 2
M  V30 2 1 2 3
M  V30 3 1 2 4
M  V30 4 1 4 5
M  V30 5 1 5 6
M  V30 6 1 6 7
M  V30 7 2 7 8
M  V30 8 1 8 9
M  V30 9 2 9 10
M  V30 10 1 10 11
M  V30 11 1 11 12
M  V30 12 2 12 13
M  V30 13 1 13 14
M  V30 14 2 14 15
M  V30 15 1 15 16
M  V30 16 1 16 17
M  V30 17 2 17 18
M  V30 18 1 18 19
M  V30 19 2 19 20
M  V30 20 1 20 21
M  V30 21 2 21 22
M  V30 22 1 22 23
M  V30 23 1 23 24
M  V30 24 2 23 25
M  V30 25 1 18 26
M  V30 26 2 26 27
M  V30 27 2 11 28
M  V30 28 1 28 7
M  V30 29 1 27 12
M  V30 30 1 26 15
M  V30 31 1 25 19
M  V30 32 1 1 29
M  V30 33 1 1 30
M  V30 34 1 1 31
M  V30 35 1 3 32
M  V30 36 1 3 33
M  V30 37 1 3 34
M  V30 38 1 4 35
M  V30 39 1 4 36
M  V30 40 1 5 37
M  V30 41 1 5 38
M  V30 42 1 6 39
M  V30 43 1 8 40
M  V30 44 1 10 41
M  V30 45 1 13 42
M  V30 46 1 14 43
M  V30 47 1 16 44
M  V30 48 1 17 45
M  V30 49 1 20 46
M  V30 50 1 21 47
M  V30 51 1 22 48
M  V30 52 1 25 49
M  V30 53 1 27 50
M  V30 END BOND
M  V30 END CTAB
M  END
>  <Dataset>  (162) 
ChEMBL_Kinases

>  <Ligand_Instance>  (162) 
nan

>  <PDB_ID>  (162) 
nan

>  <Standardized_SMILES>  (162) 
CN(C)CCNc1cncc(-c2ccc3[nH]cc(-c4cccc(F)c4)c3c2)n1

>  <Name>  (162) 
nan

>  <Pocket>  (162) 
nan

>  <ATP_Site>  (162) 
nan

>  <Peripheral>  (162) 
nan

>  <Num_H_Atoms_ProtBoundConf>  (162) 
nan

>  <Num_Resolved_Atoms>  (162) 
nan

>  <Num_Not_Resolved_Atoms>  (162) 
nan

$$$$
CHEMBL4788757
     RDKit          3D

  0  0  0  0  0  0  0  0  0  0999 V3000
M  V30 BEGIN CTAB
M  V30 COUNTS 53 56 0 0 0
M  V30 BEGIN ATOM
M  V30 1 C 2.839165 -1.928786 4.065006 0
M  V30 2 O 3.968396 -1.389346 4.746469 0
M  V30 3 C 4.485311 -0.184524 4.316384 0
M  V30 4 C 5.590918 0.357786 4.972802 0
M  V30 5 N 6.090191 1.529189 4.551426 0
M  V30 6 C 5.534416 2.192429 3.496380 0
M  V30 7 C 4.446236 1.714512 2.807004 0
M  V30 8 C 3.910890 2.483078 1.690609 0
M  V30 9 O 4.510206 3.562098 1.441378 0
M  V30 10 N 2.809829 2.102326 0.910532 0
M  V30 11 C 2.282820 2.846192 -0.178467 0
M  V30 12 C 2.695051 4.037485 -0.695106 0
M  V30 13 N 1.927039 4.403618 -1.728180 0
M  V30 14 N 1.032757 3.453345 -1.868607 0
M  V30 15 C 1.206566 2.489230 -0.954672 0
M  V30 16 C 0.373474 1.298433 -0.849971 0
M  V30 17 O 0.536762 0.396529 0.005102 0
M  V30 18 N -0.712783 1.074395 -1.738159 0
M  V30 19 C -1.390285 -0.149117 -1.456506 0
M  V30 20 C -1.122585 -1.393826 -1.973428 0
M  V30 21 C -1.861855 -2.476508 -1.606658 0
M  V30 22 C -2.904534 -2.382141 -0.708847 0
M  V30 23 N -3.725992 -3.443963 -0.268013 0
M  V30 24 C -4.819422 -3.243760 0.695489 0
M  V30 25 C -6.066747 -3.814122 0.108834 0
M  V30 26 N -5.957621 -4.368448 -1.192053 0
M  V30 27 C -4.834490 -5.179088 -1.475659 0
M  V30 28 C -3.587976 -4.820149 -0.704944 0
M  V30 29 N -3.153783 -1.158848 -0.212455 0
M  V30 30 C -2.449855 -0.070615 -0.548245 0
M  V30 31 C 3.948392 0.509254 3.256033 0
M  V30 32 H 2.435862 -2.807164 4.594831 0
M  V30 33 H 3.108162 -2.262221 3.043018 0
M  V30 34 H 2.054232 -1.157797 3.981533 0
M  V30 35 H 6.047254 -0.167738 5.824381 0
M  V30 36 H 6.027643 3.132450 3.248288 0
M  V30 37 H 2.379034 1.200227 1.187369 0
M  V30 38 H 3.515950 4.647552 -0.363777 0
M  V30 39 H 1.961437 5.243113 -2.342518 0
M  V30 40 H -0.939728 1.773963 -2.499170 0
M  V30 41 H -0.303304 -1.432917 -2.670616 0
M  V30 42 H -1.652864 -3.448528 -2.010313 0
M  V30 43 H -4.905041 -2.171178 0.965277 0
M  V30 44 H -4.521039 -3.784460 1.622638 0
M  V30 45 H -6.497536 -4.578198 0.784178 0
M  V30 46 H -6.816663 -2.971183 0.049479 0
M  V30 47 H -6.403538 -3.871367 -1.961349 0
M  V30 48 H -5.025307 -6.256897 -1.363434 0
M  V30 49 H -4.566902 -5.035479 -2.554035 0
M  V30 50 H -3.625183 -5.451530 0.230700 0
M  V30 51 H -2.665232 -5.041428 -1.242033 0
M  V30 52 H -2.713758 0.884017 -0.102629 0
M  V30 53 H 3.092097 0.096122 2.742306 0
M  V30 END ATOM
M  V30 BEGIN BOND
M  V30 1 1 1 2
M  V30 2 1 2 3
M  V30 3 2 3 4
M  V30 4 1 4 5
M  V30 5 2 5 6
M  V30 6 1 6 7
M  V30 7 1 7 8
M  V30 8 2 8 9
M  V30 9 1 8 10
M  V30 10 1 10 11
M  V30 11 2 11 12
M  V30 12 1 12 13
M  V30 13 1 13 14
M  V30 14 2 14 15
M  V30 15 1 15 16
M  V30 16 2 16 17
M  V30 17 1 16 18
M  V30 18 1 18 19
M  V30 19 2 19 20
M  V30 20 1 20 21
M  V30 21 2 21 22
M  V30 22 1 22 23
M  V30 23 1 23 24
M  V30 24 1 24 25
M  V30 25 1 25 26
M  V30 26 1 26 27
M  V30 27 1 27 28
M  V30 28 1 22 29
M  V30 29 2 29 30
M  V30 30 2 7 31
M  V30 31 1 31 3
M  V30 32 1 15 11
M  V30 33 1 30 19
M  V30 34 1 28 23
M  V30 35 1 1 32
M  V30 36 1 1 33
M  V30 37 1 1 34
M  V30 38 1 4 35
M  V30 39 1 6 36
M  V30 40 1 10 37
M  V30 41 1 12 38
M  V30 42 1 13 39
M  V30 43 1 18 40
M  V30 44 1 20 41
M  V30 45 1 21 42
M  V30 46 1 24 43
M  V30 47 1 24 44
M  V30 48 1 25 45
M  V30 49 1 25 46
M  V30 50 1 26 47
M  V30 51 1 27 48
M  V30 52 1 27 49
M  V30 53 1 28 50
M  V30 54 1 28 51
M  V30 55 1 30 52
M  V30 56 1 31 53
M  V30 END BOND
M  V30 END CTAB
M  END
>  <Dataset>  (163) 
ChEMBL_Kinases

>  <Ligand_Instance>  (163) 
nan

>  <PDB_ID>  (163) 
nan

>  <Standardized_SMILES>  (163) 
COc1cncc(C(=O)Nc2c[nH]nc2C(=O)Nc2ccc(N3CCNCC3)nc2)c1

>  <Name>  (163) 
nan

>  <Pocket>  (163) 
nan

>  <ATP_Site>  (163) 
nan

>  <Peripheral>  (163) 
nan

>  <Num_H_Atoms_ProtBoundConf>  (163) 
nan

>  <Num_Resolved_Atoms>  (163) 
nan

>  <Num_Not_Resolved_Atoms>  (163) 
nan

$$$$
CHEMBL4790614
     RDKit          3D

  0  0  0  0  0  0  0  0  0  0999 V3000
M  V30 BEGIN CTAB
M  V30 COUNTS 46 49 0 0 0
M  V30 BEGIN ATOM
M  V30 1 C 6.730965 -5.979334 3.831735 0
M  V30 2 N 5.992827 -5.063412 2.993137 0
M  V30 3 C 5.739871 -3.809399 3.479223 0
M  V30 4 O 6.068828 -3.283985 4.603364 0
M  V30 5 C 5.180004 -2.461286 3.393800 0
M  V30 6 C 4.531122 -2.848180 2.129989 0
M  V30 7 C 3.688940 -2.116032 1.228382 0
M  V30 8 C 3.412442 -0.782989 1.587096 0
M  V30 9 C 2.642639 0.340031 1.089526 0
M  V30 10 O 2.561699 1.542110 1.477550 0
M  V30 11 N 1.872181 -0.043340 -0.019200 0
M  V30 12 C 0.968057 0.665733 -0.844704 0
M  V30 13 C -0.366007 0.605977 -0.405114 0
M  V30 14 C -1.429626 1.241428 -1.051871 0
M  V30 15 C -2.700079 1.095271 -0.501835 0
M  V30 16 C -3.753036 1.740546 -1.163578 0
M  V30 17 C -5.133230 1.630875 -0.647801 0
M  V30 18 C -5.486729 0.904783 0.467584 0
M  V30 19 N -6.837456 0.999391 0.670066 0
M  V30 20 C -7.453355 0.306406 1.798350 0
M  V30 21 N -7.281677 1.781624 -0.325429 0
M  V30 22 N -6.268803 2.145011 -1.093158 0
M  V30 23 C -3.470921 2.469434 -2.300327 0
M  V30 24 C -2.172793 2.580445 -2.807319 0
M  V30 25 C -1.135265 1.955974 -2.174796 0
M  V30 26 C 0.167021 2.009762 -2.599075 0
M  V30 27 N 1.221448 1.392456 -1.975125 0
M  V30 28 C 4.023286 -0.429011 2.767661 0
M  V30 29 N 4.712220 -1.337527 3.320595 0
M  V30 30 H 7.335231 -5.434411 4.580870 0
M  V30 31 H 6.057540 -6.663352 4.400711 0
M  V30 32 H 7.482319 -6.549802 3.210646 0
M  V30 33 H 5.570194 -5.064833 2.060557 0
M  V30 34 H 4.419852 -3.748286 1.423755 0
M  V30 35 H 3.135432 -2.237105 0.268567 0
M  V30 36 H 1.768786 -0.975621 -0.523113 0
M  V30 37 H -0.621168 0.030840 0.501263 0
M  V30 38 H -2.871565 0.511583 0.393916 0
M  V30 39 H -4.772808 0.348589 1.071694 0
M  V30 40 H -7.135312 -0.775605 1.696497 0
M  V30 41 H -7.114662 0.692363 2.755183 0
M  V30 42 H -8.543902 0.360173 1.760368 0
M  V30 43 H -4.319157 2.962455 -2.789247 0
M  V30 44 H -1.971808 3.151952 -3.694314 0
M  V30 45 H 0.420717 2.574523 -3.486459 0
M  V30 46 H 4.024035 0.517304 3.328283 0
M  V30 END ATOM
M  V30 BEGIN BOND
M  V30 1 1 1 2
M  V30 2 1 2 3
M  V30 3 2 3 4
M  V30 4 1 3 5
M  V30 5 2 5 6
M  V30 6 1 6 7
M  V30 7 2 7 8
M  V30 8 1 8 9
M  V30 9 2 9 10
M  V30 10 1 9 11
M  V30 11 1 11 12
M  V30 12 2 12 13
M  V30 13 1 13 14
M  V30 14 2 14 15
M  V30 15 1 15 16
M  V30 16 1 16 17
M  V30 17 2 17 18
M  V30 18 1 18 19
M  V30 19 1 19 20
M  V30 20 1 19 21
M  V30 21 2 21 22
M  V30 22 2 16 23
M  V30 23 1 23 24
M  V30 24 2 24 25
M  V30 25 1 25 26
M  V30 26 2 26 27
M  V30 27 1 8 28
M  V30 28 2 28 29
M  V30 29 1 29 5
M  V30 30 1 27 12
M  V30 31 1 25 14
M  V30 32 1 22 17
M  V30 33 1 1 30
M  V30 34 1 1 31
M  V30 35 1 1 32
M  V30 36 1 2 33
M  V30 37 1 6 34
M  V30 38 1 7 35
M  V30 39 1 11 36
M  V30 40 1 13 37
M  V30 41 1 15 38
M  V30 42 1 18 39
M  V30 43 1 20 40
M  V30 44 1 20 41
M  V30 45 1 20 42
M  V30 46 1 23 43
M  V30 47 1 24 44
M  V30 48 1 26 45
M  V30 49 1 28 46
M  V30 END BOND
M  V30 END CTAB
M  END
>  <Dataset>  (164) 
ChEMBL_Kinases

>  <Ligand_Instance>  (164) 
nan

>  <PDB_ID>  (164) 
nan

>  <Standardized_SMILES>  (164) 
CNC(=O)c1ccc(C(=O)Nc2cc3cc(-c4cn(C)nn4)ccc3cn2)cn1

>  <Name>  (164) 
nan

>  <Pocket>  (164) 
nan

>  <ATP_Site>  (164) 
nan

>  <Peripheral>  (164) 
nan

>  <Num_H_Atoms_ProtBoundConf>  (164) 
nan

>  <Num_Resolved_Atoms>  (164) 
nan

>  <Num_Not_Resolved_Atoms>  (164) 
nan

$$$$
CHEMBL4161861
     RDKit          3D

  0  0  0  0  0  0  0  0  0  0999 V3000
M  V30 BEGIN CTAB
M  V30 COUNTS 53 56 0 0 0
M  V30 BEGIN ATOM
M  V30 1 C 1.722511 -2.492689 3.574574 0
M  V30 2 C 2.309486 -3.601898 2.726298 0
M  V30 3 C 2.934081 -3.018662 1.474785 0
M  V30 4 C 3.988507 -2.093117 1.925261 0
M  V30 5 O 4.973234 -2.660326 2.444100 0
M  V30 6 N 3.969528 -0.678189 1.818952 0
M  V30 7 C 4.977789 0.182923 2.417030 0
M  V30 8 C 2.884783 -0.112712 1.079076 0
M  V30 9 C 2.775851 1.272042 0.911226 0
M  V30 10 N 1.742216 1.765988 0.205271 0
M  V30 11 C 0.805614 0.973284 -0.347479 0
M  V30 12 N -0.330032 1.330252 -1.121278 0
M  V30 13 C -1.629544 1.707587 -0.692614 0
M  V30 14 C -1.937004 1.883796 0.624959 0
M  V30 15 C -3.229009 2.241553 0.968783 0
M  V30 16 C -4.207594 2.421957 0.002481 0
M  V30 17 S -5.760845 2.867300 0.637720 0
M  V30 18 N -6.659872 1.457930 1.065151 0
M  V30 19 O -6.474022 3.638857 -0.463044 0
M  V30 20 O -5.654252 3.766525 1.832317 0
M  V30 21 C -3.862153 2.235014 -1.328872 0
M  V30 22 C -2.578152 1.879339 -1.676646 0
M  V30 23 N 0.904824 -0.371871 -0.188706 0
M  V30 24 C 1.913463 -0.927927 0.505297 0
M  V30 25 N 1.959841 -2.363791 0.631144 0
M  V30 26 C 1.005277 -3.110336 -0.110400 0
M  V30 27 C 0.903614 -4.484994 -0.198603 0
M  V30 28 C -0.169427 -4.761881 -1.022758 0
M  V30 29 N -0.703156 -3.592837 -1.422720 0
M  V30 30 C -1.829310 -3.276324 -2.281597 0
M  V30 31 N 0.007816 -2.639004 -0.870986 0
M  V30 32 H 1.174359 -1.780095 2.949136 0
M  V30 33 H 1.065784 -2.980104 4.348160 0
M  V30 34 H 2.521134 -1.949655 4.097683 0
M  V30 35 H 3.152179 -4.043120 3.319306 0
M  V30 36 H 1.531321 -4.325642 2.469964 0
M  V30 37 H 3.403590 -3.818584 0.880740 0
M  V30 38 H 5.357914 -0.398234 3.303455 0
M  V30 39 H 4.553788 1.099634 2.855975 0
M  V30 40 H 5.843420 0.363740 1.765899 0
M  V30 41 H 3.495597 1.939396 1.331973 0
M  V30 42 H -0.044849 1.267737 -2.121271 0
M  V30 43 H -1.161143 1.740460 1.382105 0
M  V30 44 H -3.388242 2.360506 2.029980 0
M  V30 45 H -7.654872 1.676831 1.288282 0
M  V30 46 H -6.655322 0.743628 0.322147 0
M  V30 47 H -4.677156 2.393595 -2.021540 0
M  V30 48 H -2.345279 1.741585 -2.727668 0
M  V30 49 H 1.517240 -5.243347 0.265601 0
M  V30 50 H -0.560304 -5.719824 -1.329370 0
M  V30 51 H -2.642685 -2.857499 -1.631296 0
M  V30 52 H -2.169094 -4.169679 -2.839569 0
M  V30 53 H -1.485376 -2.493102 -2.990808 0
M  V30 END ATOM
M  V30 BEGIN BOND
M  V30 1 1 1 2
M  V30 2 1 2 3
M  V30 3 1 3 4
M  V30 4 2 4 5
M  V30 5 1 4 6
M  V30 6 1 6 7
M  V30 7 1 6 8
M  V30 8 2 8 9
M  V30 9 1 9 10
M  V30 10 2 10 11
M  V30 11 1 11 12
M  V30 12 1 12 13
M  V30 13 2 13 14
M  V30 14 1 14 15
M  V30 15 2 15 16
M  V30 16 1 16 17
M  V30 17 1 17 18
M  V30 18 2 17 19
M  V30 19 2 17 20
M  V30 20 1 16 21
M  V30 21 2 21 22
M  V30 22 1 11 23
M  V30 23 2 23 24
M  V30 24 1 24 25
M  V30 25 1 25 26
M  V30 26 1 26 27
M  V30 27 2 27 28
M  V30 28 1 28 29
M  V30 29 1 29 30
M  V30 30 1 29 31
M  V30 31 1 25 3
M  V30 32 2 31 26
M  V30 33 1 24 8
M  V30 34 1 22 13
M  V30 35 1 1 32
M  V30 36 1 1 33
M  V30 37 1 1 34
M  V30 38 1 2 35
M  V30 39 1 2 36
M  V30 40 1 3 37
M  V30 41 1 7 38
M  V30 42 1 7 39
M  V30 43 1 7 40
M  V30 44 1 9 41
M  V30 45 1 12 42
M  V30 46 1 14 43
M  V30 47 1 15 44
M  V30 48 1 18 45
M  V30 49 1 18 46
M  V30 50 1 21 47
M  V30 51 1 22 48
M  V30 52 1 27 49
M  V30 53 1 28 50
M  V30 54 1 30 51
M  V30 55 1 30 52
M  V30 56 1 30 53
M  V30 END BOND
M  V30 END CTAB
M  END
>  <Dataset>  (165) 
ChEMBL_Kinases

>  <Ligand_Instance>  (165) 
nan

>  <PDB_ID>  (165) 
nan

>  <Standardized_SMILES>  (165) 
CCC1C(=O)N(C)c2cnc(Nc3ccc(S(N)(=O)=O)cc3)nc2N1c1ccn(C)n1

>  <Name>  (165) 
nan

>  <Pocket>  (165) 
nan

>  <ATP_Site>  (165) 
nan

>  <Peripheral>  (165) 
nan

>  <Num_H_Atoms_ProtBoundConf>  (165) 
nan

>  <Num_Resolved_Atoms>  (165) 
nan

>  <Num_Not_Resolved_Atoms>  (165) 
nan

$$$$
CHEMBL4790964
     RDKit          3D

  0  0  0  0  0  0  0  0  0  0999 V3000
M  V30 BEGIN CTAB
M  V30 COUNTS 47 52 0 0 0
M  V30 BEGIN ATOM
M  V30 1 O 0.665265 -3.425347 2.671052 0
M  V30 2 C -0.215737 -3.890363 1.879264 0
M  V30 3 N 0.018355 -3.992485 0.460649 0
M  V30 4 C 1.311143 -3.530668 0.020568 0
M  V30 5 C 2.477345 -4.258713 -0.100729 0
M  V30 6 N 3.586551 -3.631900 -0.532855 0
M  V30 7 C 3.617132 -2.323876 -0.854591 0
M  V30 8 C 2.497910 -1.522649 -0.762786 0
M  V30 9 C 2.450305 -0.099013 -1.092317 0
M  V30 10 C 3.201168 0.520763 -2.056068 0
M  V30 11 C 3.081480 1.881756 -2.291954 0
M  V30 12 C 2.208981 2.674081 -1.575686 0
M  V30 13 N 1.858641 3.990940 -1.555494 0
M  V30 14 N 0.924077 4.199448 -0.618100 0
M  V30 15 C 0.638831 3.044027 -0.006049 0
M  V30 16 C -0.323435 2.802612 1.078015 0
M  V30 17 N -0.570570 1.621284 1.653950 0
M  V30 18 C -1.504586 1.718576 2.615304 0
M  V30 19 C -2.044854 0.758381 3.441401 0
M  V30 20 C -2.999757 1.198542 4.332981 0
M  V30 21 N -3.357794 2.485844 4.368789 0
M  V30 22 C -2.817347 3.431669 3.546159 0
M  V30 23 C -1.843338 3.075732 2.611843 0
M  V30 24 N -1.112256 3.719820 1.667426 0
M  V30 25 C 1.436554 2.087687 -0.597918 0
M  V30 26 C 1.578416 0.731052 -0.386688 0
M  V30 27 C 1.348640 -2.170857 -0.315475 0
M  V30 28 C -1.504299 -4.332478 2.435810 0
M  V30 29 C -2.792823 -3.917555 1.757727 0
M  V30 30 C -2.374543 -5.333274 1.823088 0
M  V30 31 H -0.756417 -4.390045 -0.145541 0
M  V30 32 H 2.379583 -5.286735 0.171097 0
M  V30 33 H 4.528458 -1.845791 -1.200759 0
M  V30 34 H 3.881010 -0.076890 -2.619549 0
M  V30 35 H 3.676654 2.354197 -3.050949 0
M  V30 36 H 2.328166 4.636142 -2.227322 0
M  V30 37 H -1.688987 -0.272823 3.340063 0
M  V30 38 H -3.428618 0.444698 4.986439 0
M  V30 39 H -3.121473 4.468728 3.591528 0
M  V30 40 H -1.182462 4.724497 1.473871 0
M  V30 41 H 0.956432 0.311416 0.388777 0
M  V30 42 H 0.460414 -1.552639 -0.239768 0
M  V30 43 H -1.584398 -4.210052 3.553556 0
M  V30 44 H -3.632053 -3.511391 2.329369 0
M  V30 45 H -2.622078 -3.415859 0.764503 0
M  V30 46 H -2.042903 -5.856691 0.897929 0
M  V30 47 H -3.000696 -5.978070 2.491036 0
M  V30 END ATOM
M  V30 BEGIN BOND
M  V30 1 2 1 2
M  V30 2 1 2 3
M  V30 3 1 3 4
M  V30 4 2 4 5
M  V30 5 1 5 6
M  V30 6 2 6 7
M  V30 7 1 7 8
M  V30 8 1 8 9
M  V30 9 2 9 10
M  V30 10 1 10 11
M  V30 11 2 11 12
M  V30 12 1 12 13
M  V30 13 1 13 14
M  V30 14 2 14 15
M  V30 15 1 15 16
M  V30 16 2 16 17
M  V30 17 1 17 18
M  V30 18 2 18 19
M  V30 19 1 19 20
M  V30 20 2 20 21
M  V30 21 1 21 22
M  V30 22 2 22 23
M  V30 23 1 23 24
M  V30 24 1 15 25
M  V30 25 2 25 26
M  V30 26 2 8 27
M  V30 27 1 2 28
M  V30 28 1 28 29
M  V30 29 1 29 30
M  V30 30 1 27 4
M  V30 31 1 30 28
M  V30 32 1 26 9
M  V30 33 1 25 12
M  V30 34 1 24 16
M  V30 35 1 23 18
M  V30 36 1 3 31
M  V30 37 1 5 32
M  V30 38 1 7 33
M  V30 39 1 10 34
M  V30 40 1 11 35
M  V30 41 1 13 36
M  V30 42 1 19 37
M  V30 43 1 20 38
M  V30 44 1 22 39
M  V30 45 1 24 40
M  V30 46 1 26 41
M  V30 47 1 27 42
M  V30 48 1 28 43
M  V30 49 1 29 44
M  V30 50 1 29 45
M  V30 51 1 30 46
M  V30 52 1 30 47
M  V30 END BOND
M  V30 END CTAB
M  END
>  <Dataset>  (166) 
ChEMBL_Kinases

>  <Ligand_Instance>  (166) 
nan

>  <PDB_ID>  (166) 
nan

>  <Standardized_SMILES>  (166) 
O=C(Nc1cncc(-c2ccc3[nH]nc(-c4nc5ccncc5[nH]4)c3c2)c1)C1CC1

>  <Name>  (166) 
nan

>  <Pocket>  (166) 
nan

>  <ATP_Site>  (166) 
nan

>  <Peripheral>  (166) 
nan

>  <Num_H_Atoms_ProtBoundConf>  (166) 
nan

>  <Num_Resolved_Atoms>  (166) 
nan

>  <Num_Not_Resolved_Atoms>  (166) 
nan

$$$$
CHEMBL4790585
     RDKit          3D

  0  0  0  0  0  0  0  0  0  0999 V3000
M  V30 BEGIN CTAB
M  V30 COUNTS 74 80 0 0 0
M  V30 BEGIN ATOM
M  V30 1 C 7.205787 -1.456699 5.586861 0
M  V30 2 N 6.431794 -1.204311 4.411565 0
M  V30 3 C 5.164581 -0.562458 4.682107 0
M  V30 4 C 4.615566 0.115499 3.426461 0
M  V30 5 N 4.994562 -0.733236 2.290162 0
M  V30 6 C 3.942793 -1.417709 1.619716 0
M  V30 7 N 3.930953 -2.781084 1.540070 0
M  V30 8 C 2.918819 -3.401014 0.896719 0
M  V30 9 C 1.903236 -2.667355 0.323359 0
M  V30 10 C 1.909972 -1.292779 0.400510 0
M  V30 11 N 1.089066 -0.330445 -0.042702 0
M  V30 12 C 1.472504 0.909609 0.254976 0
M  V30 13 C 0.981283 2.250714 0.032299 0
M  V30 14 N 1.569769 3.398358 0.447761 0
M  V30 15 N 0.878670 4.458809 0.091483 0
M  V30 16 C -0.223794 4.100635 -0.588979 0
M  V30 17 C -1.260989 4.795407 -1.172536 0
M  V30 18 C -2.267541 4.103570 -1.813492 0
M  V30 19 C -2.225366 2.725723 -1.863438 0
M  V30 20 C -3.305419 2.025158 -2.547028 0
M  V30 21 C -3.975962 2.555795 -3.631984 0
M  V30 22 N -4.960711 1.839457 -4.202157 0
M  V30 23 C -5.341941 0.628539 -3.784256 0
M  V30 24 C -4.718278 0.029250 -2.702998 0
M  V30 25 N -4.978991 -1.237778 -2.115777 0
M  V30 26 C -4.202434 -2.245930 -2.724156 0
M  V30 27 O -3.454290 -1.786693 -3.652816 0
M  V30 28 C -4.252564 -3.690251 -2.324088 0
M  V30 29 C -5.610412 -4.268194 -2.463361 0
M  V30 30 C -6.223066 -4.826175 -1.216705 0
M  V30 31 C -5.939550 -4.024034 0.022435 0
M  V30 32 C -4.510205 -3.640911 0.181981 0
M  V30 33 C -3.644431 -3.949331 -0.987660 0
M  V30 34 C -3.694543 0.771984 -2.108784 0
M  V30 35 C -1.163546 2.086934 -1.262034 0
M  V30 36 C -0.134708 2.725833 -0.610598 0
M  V30 37 C 2.657876 0.684821 0.957276 0
M  V30 38 C 2.941237 -0.656537 1.056178 0
M  V30 39 C 6.445081 -0.713622 2.054722 0
M  V30 40 C 7.169493 -0.568268 3.361876 0
M  V30 41 H 7.338695 -2.577517 5.636202 0
M  V30 42 H 8.187725 -0.966416 5.591685 0
M  V30 43 H 6.584278 -1.224245 6.476736 0
M  V30 44 H 4.404497 -1.244862 5.099807 0
M  V30 45 H 5.338180 0.240681 5.422965 0
M  V30 46 H 3.535739 0.165909 3.569631 0
M  V30 47 H 5.133224 1.095665 3.359372 0
M  V30 48 H 2.921234 -4.478817 0.840731 0
M  V30 49 H 1.088634 -3.142514 -0.193095 0
M  V30 50 H 0.245749 -0.563468 -0.563373 0
M  V30 51 H 1.195575 5.422528 0.333659 0
M  V30 52 H -1.240627 5.874628 -1.101156 0
M  V30 53 H -3.053935 4.702792 -2.252487 0
M  V30 54 H -3.675767 3.530180 -3.975354 0
M  V30 55 H -6.128239 0.026985 -4.219446 0
M  V30 56 H -5.633278 -1.486099 -1.342471 0
M  V30 57 H -3.567232 -4.194553 -3.071446 0
M  V30 58 H -5.596801 -5.095014 -3.201080 0
M  V30 59 H -6.267353 -3.487466 -2.941754 0
M  V30 60 H -7.328545 -4.832140 -1.358913 0
M  V30 61 H -5.925777 -5.874641 -1.036223 0
M  V30 62 H -6.204663 -4.706047 0.876382 0
M  V30 63 H -6.625072 -3.159336 0.155276 0
M  V30 64 H -4.442156 -2.544461 0.443309 0
M  V30 65 H -4.036857 -4.136454 1.078291 0
M  V30 66 H -2.689096 -3.381204 -0.892156 0
M  V30 67 H -3.384116 -5.025394 -0.942451 0
M  V30 68 H -3.147542 0.366605 -1.242884 0
M  V30 69 H -1.175210 1.018490 -1.327099 0
M  V30 70 H 3.334922 1.398857 1.403783 0
M  V30 71 H 6.696697 -1.735332 1.645017 0
M  V30 72 H 6.709317 0.026024 1.299143 0
M  V30 73 H 8.147810 -1.093569 3.276768 0
M  V30 74 H 7.361901 0.513718 3.521129 0
M  V30 END ATOM
M  V30 BEGIN BOND
M  V30 1 1 1 2
M  V30 2 1 2 3
M  V30 3 1 3 4
M  V30 4 1 4 5
M  V30 5 1 5 6
M  V30 6 2 6 7
M  V30 7 1 7 8
M  V30 8 2 8 9
M  V30 9 1 9 10
M  V30 10 1 10 11
M  V30 11 1 11 12
M  V30 12 1 12 13
M  V30 13 2 13 14
M  V30 14 1 14 15
M  V30 15 1 15 16
M  V30 16 2 16 17
M  V30 17 1 17 18
M  V30 18 2 18 19
M  V30 19 1 19 20
M  V30 20 2 20 21
M  V30 21 1 21 22
M  V30 22 2 22 23
M  V30 23 1 23 24
M  V30 24 1 24 25
M  V30 25 1 25 26
M  V30 26 2 26 27
M  V30 27 1 26 28
M  V30 28 1 28 29
M  V30 29 1 29 30
M  V30 30 1 30 31
M  V30 31 1 31 32
M  V30 32 1 32 33
M  V30 33 2 24 34
M  V30 34 1 19 35
M  V30 35 2 35 36
M  V30 36 2 12 37
M  V30 37 1 37 38
M  V30 38 1 5 39
M  V30 39 1 39 40
M  V30 40 1 40 2
M  V30 41 1 38 6
M  V30 42 2 38 10
M  V30 43 1 36 13
M  V30 44 1 36 16
M  V30 45 1 34 20
M  V30 46 1 33 28
M  V30 47 1 1 41
M  V30 48 1 1 42
M  V30 49 1 1 43
M  V30 50 1 3 44
M  V30 51 1 3 45
M  V30 52 1 4 46
M  V30 53 1 4 47
M  V30 54 1 8 48
M  V30 55 1 9 49
M  V30 56 1 11 50
M  V30 57 1 15 51
M  V30 58 1 17 52
M  V30 59 1 18 53
M  V30 60 1 21 54
M  V30 61 1 23 55
M  V30 62 1 25 56
M  V30 63 1 28 57
M  V30 64 1 29 58
M  V30 65 1 29 59
M  V30 66 1 30 60
M  V30 67 1 30 61
M  V30 68 1 31 62
M  V30 69 1 31 63
M  V30 70 1 32 64
M  V30 71 1 32 65
M  V30 72 1 33 66
M  V30 73 1 33 67
M  V30 74 1 34 68
M  V30 75 1 35 69
M  V30 76 1 37 70
M  V30 77 1 39 71
M  V30 78 1 39 72
M  V30 79 1 40 73
M  V30 80 1 40 74
M  V30 END BOND
M  V30 END CTAB
M  END
>  <Dataset>  (167) 
ChEMBL_Kinases

>  <Ligand_Instance>  (167) 
nan

>  <PDB_ID>  (167) 
nan

>  <Standardized_SMILES>  (167) 
CN1CCN(c2nccc3[nH]c(-c4n[nH]c5ccc(-c6cncc(NC(=O)C7CCCCC7)c6)cc45)cc23)CC1

>  <Name>  (167) 
nan

>  <Pocket>  (167) 
nan

>  <ATP_Site>  (167) 
nan

>  <Peripheral>  (167) 
nan

>  <Num_H_Atoms_ProtBoundConf>  (167) 
nan

>  <Num_Resolved_Atoms>  (167) 
nan

>  <Num_Not_Resolved_Atoms>  (167) 
nan

$$$$
CHEMBL3355156
     RDKit          3D

  0  0  0  0  0  0  0  0  0  0999 V3000
M  V30 BEGIN CTAB
M  V30 COUNTS 51 54 0 0 0
M  V30 BEGIN ATOM
M  V30 1 C 4.356747 -4.582215 5.667379 0
M  V30 2 C 4.012107 -3.593088 4.611995 0
M  V30 3 C 3.468925 -2.386195 5.007256 0
M  V30 4 C 3.133872 -1.434801 4.042189 0
M  V30 5 C 3.348529 -1.709784 2.706121 0
M  V30 6 N 2.980040 -0.687559 1.787507 0
M  V30 7 C 3.823801 0.360545 1.327346 0
M  V30 8 O 4.991675 0.444274 1.724369 0
M  V30 9 C 3.349654 1.366699 0.379429 0
M  V30 10 C 4.250877 2.349926 -0.009047 0
M  V30 11 C 3.868346 3.343301 -0.910963 0
M  V30 12 C 2.597460 3.390080 -1.447011 0
M  V30 13 F 2.174298 4.325541 -2.321128 0
M  V30 14 C 1.714093 2.406449 -1.051213 0
M  V30 15 N 0.369576 2.337440 -1.528870 0
M  V30 16 C -0.706040 1.955549 -0.779934 0
M  V30 17 C -1.837446 2.008877 -1.568224 0
M  V30 18 N -3.112767 1.645897 -0.991478 0
M  V30 19 C -3.448367 0.297297 -1.101346 0
M  V30 20 O -2.587720 -0.369954 -1.680763 0
M  V30 21 N -4.597293 -0.379092 -0.654861 0
M  V30 22 C -5.096549 -1.692611 -0.647004 0
M  V30 23 C -6.443321 -1.810518 -0.408015 0
M  V30 24 C -7.035539 -3.045521 -0.363832 0
M  V30 25 C -6.320608 -4.192727 -0.552569 0
M  V30 26 C -4.967901 -4.122888 -0.794117 0
M  V30 27 C -4.416335 -2.866501 -0.829487 0
M  V30 28 Cl -2.696146 -2.892798 -1.096851 0
M  V30 29 C -1.408512 2.433032 -2.808471 0
M  V30 30 N -0.076588 2.621054 -2.749083 0
M  V30 31 C 2.078413 1.411440 -0.155255 0
M  V30 32 C 3.893744 -2.929194 2.356141 0
M  V30 33 N 4.218976 -3.851829 3.287921 0
M  V30 34 H 4.497434 -5.608744 5.225046 0
M  V30 35 H 5.340960 -4.322736 6.100737 0
M  V30 36 H 3.556310 -4.695137 6.424482 0
M  V30 37 H 3.273276 -2.103299 6.035256 0
M  V30 38 H 2.707753 -0.488133 4.352396 0
M  V30 39 H 1.996997 -0.777957 1.468265 0
M  V30 40 H 5.284820 2.414385 0.349506 0
M  V30 41 H 4.544727 4.133052 -1.241689 0
M  V30 42 H -0.610138 1.666190 0.273499 0
M  V30 43 H -3.821877 2.271095 -0.497894 0
M  V30 44 H -5.195480 0.377451 -0.202164 0
M  V30 45 H -7.103619 -0.945920 -0.243953 0
M  V30 46 H -8.095882 -3.101940 -0.175688 0
M  V30 47 H -6.857544 -5.122549 -0.503452 0
M  V30 48 H -4.440726 -5.045916 -0.937156 0
M  V30 49 H -2.139627 2.548291 -3.597613 0
M  V30 50 H 1.377982 0.645566 0.147927 0
M  V30 51 H 4.052336 -3.120535 1.299025 0
M  V30 END ATOM
M  V30 BEGIN BOND
M  V30 1 1 1 2
M  V30 2 2 2 3
M  V30 3 1 3 4
M  V30 4 2 4 5
M  V30 5 1 5 6
M  V30 6 1 6 7
M  V30 7 2 7 8
M  V30 8 1 7 9
M  V30 9 2 9 10
M  V30 10 1 10 11
M  V30 11 2 11 12
M  V30 12 1 12 13
M  V30 13 1 12 14
M  V30 14 1 14 15
M  V30 15 1 15 16
M  V30 16 2 16 17
M  V30 17 1 17 18
M  V30 18 1 18 19
M  V30 19 2 19 20
M  V30 20 1 19 21
M  V30 21 1 21 22
M  V30 22 2 22 23
M  V30 23 1 23 24
M  V30 24 2 24 25
M  V30 25 1 25 26
M  V30 26 2 26 27
M  V30 27 1 27 28
M  V30 28 1 17 29
M  V30 29 2 29 30
M  V30 30 2 14 31
M  V30 31 1 5 32
M  V30 32 2 32 33
M  V30 33 1 33 2
M  V30 34 1 31 9
M  V30 35 1 30 15
M  V30 36 1 27 22
M  V30 37 1 1 34
M  V30 38 1 1 35
M  V30 39 1 1 36
M  V30 40 1 3 37
M  V30 41 1 4 38
M  V30 42 1 6 39
M  V30 43 1 10 40
M  V30 44 1 11 41
M  V30 45 1 16 42
M  V30 46 1 18 43
M  V30 47 1 21 44
M  V30 48 1 23 45
M  V30 49 1 24 46
M  V30 50 1 25 47
M  V30 51 1 26 48
M  V30 52 1 29 49
M  V30 53 1 31 50
M  V30 54 1 32 51
M  V30 END BOND
M  V30 END CTAB
M  END
>  <Dataset>  (168) 
ChEMBL_Kinases

>  <Ligand_Instance>  (168) 
nan

>  <PDB_ID>  (168) 
nan

>  <Standardized_SMILES>  (168) 
Cc1ccc(NC(=O)c2ccc(F)c(-n3cc(NC(=O)Nc4ccccc4Cl)cn3)c2)cn1

>  <Name>  (168) 
nan

>  <Pocket>  (168) 
nan

>  <ATP_Site>  (168) 
nan

>  <Peripheral>  (168) 
nan

>  <Num_H_Atoms_ProtBoundConf>  (168) 
nan

>  <Num_Resolved_Atoms>  (168) 
nan

>  <Num_Not_Resolved_Atoms>  (168) 
nan

$$$$
CHEMBL4129044
     RDKit          3D

  0  0  0  0  0  0  0  0  0  0999 V3000
M  V30 BEGIN CTAB
M  V30 COUNTS 51 55 0 0 0
M  V30 BEGIN ATOM
M  V30 1 F 2.851571 -6.092454 -0.186654 0
M  V30 2 C 3.123917 -5.195284 -1.211877 0
M  V30 3 F 4.356996 -5.577222 -1.719826 0
M  V30 4 F 2.164214 -5.396382 -2.174466 0
M  V30 5 C 3.168125 -3.797987 -0.701249 0
M  V30 6 C 3.936724 -2.885906 -1.430897 0
M  V30 7 C 3.989075 -1.579740 -0.969420 0
M  V30 8 C 3.337035 -1.111089 0.160083 0
M  V30 9 C 3.471629 0.290802 0.542745 0
M  V30 10 C 4.706719 0.930170 0.538423 0
M  V30 11 N 4.494834 2.195268 0.934549 0
M  V30 12 C 3.176558 2.385071 1.190019 0
M  V30 13 C 2.413833 3.455579 1.614125 0
M  V30 14 C 1.049594 3.318291 1.782527 0
M  V30 15 C 0.394735 2.128952 1.540263 0
M  V30 16 C -1.041865 1.923359 1.700033 0
M  V30 17 C -1.905340 2.914359 2.116600 0
M  V30 18 N -3.232016 2.758850 2.274021 0
M  V30 19 C -3.775726 1.548770 2.008861 0
M  V30 20 C -2.948537 0.532664 1.590603 0
M  V30 21 N -3.457150 -0.781127 1.290300 0
M  V30 22 C -2.574128 -1.843755 0.850118 0
M  V30 23 C -3.137080 -2.593247 -0.331789 0
M  V30 24 N -4.560144 -2.372516 -0.492388 0
M  V30 25 C -5.233059 -2.300238 0.792549 0
M  V30 26 C -4.879915 -1.006257 1.442424 0
M  V30 27 N -1.630583 0.746422 1.451263 0
M  V30 28 C 1.150135 1.053384 1.115817 0
M  V30 29 C 2.514121 1.196684 0.949182 0
M  V30 30 C 2.590350 -2.046759 0.848547 0
M  V30 31 C 2.504269 -3.364585 0.430744 0
M  V30 32 H 4.461954 -3.188566 -2.309964 0
M  V30 33 H 4.601243 -0.907761 -1.572945 0
M  V30 34 H 5.694162 0.558984 0.281204 0
M  V30 35 H 5.180736 2.986244 1.057513 0
M  V30 36 H 2.887468 4.414005 1.817599 0
M  V30 37 H 0.473250 4.162382 2.113102 0
M  V30 38 H -1.530363 3.898382 2.342458 0
M  V30 39 H -4.839207 1.391406 2.125638 0
M  V30 40 H -2.494593 -2.562935 1.693492 0
M  V30 41 H -1.600975 -1.427904 0.520516 0
M  V30 42 H -3.011371 -3.693524 -0.190218 0
M  V30 43 H -2.613444 -2.339104 -1.276084 0
M  V30 44 H -4.767017 -1.494498 -0.997725 0
M  V30 45 H -5.026153 -3.150884 1.454858 0
M  V30 46 H -6.329054 -2.248481 0.537388 0
M  V30 47 H -5.047480 -1.034193 2.558749 0
M  V30 48 H -5.504909 -0.189593 1.018970 0
M  V30 49 H 0.704701 0.078807 0.903404 0
M  V30 50 H 2.066968 -1.716724 1.736223 0
M  V30 51 H 1.922897 -4.096827 0.965255 0
M  V30 END ATOM
M  V30 BEGIN BOND
M  V30 1 1 1 2
M  V30 2 1 2 3
M  V30 3 1 2 4
M  V30 4 1 2 5
M  V30 5 2 5 6
M  V30 6 1 6 7
M  V30 7 2 7 8
M  V30 8 1 8 9
M  V30 9 2 9 10
M  V30 10 1 10 11
M  V30 11 1 11 12
M  V30 12 2 12 13
M  V30 13 1 13 14
M  V30 14 2 14 15
M  V30 15 1 15 16
M  V30 16 2 16 17
M  V30 17 1 17 18
M  V30 18 2 18 19
M  V30 19 1 19 20
M  V30 20 1 20 21
M  V30 21 1 21 22
M  V30 22 1 22 23
M  V30 23 1 23 24
M  V30 24 1 24 25
M  V30 25 1 25 26
M  V30 26 2 20 27
M  V30 27 1 15 28
M  V30 28 2 28 29
M  V30 29 1 8 30
M  V30 30 2 30 31
M  V30 31 1 31 5
M  V30 32 1 29 9
M  V30 33 1 29 12
M  V30 34 1 27 16
M  V30 35 1 26 21
M  V30 36 1 6 32
M  V30 37 1 7 33
M  V30 38 1 10 34
M  V30 39 1 11 35
M  V30 40 1 13 36
M  V30 41 1 14 37
M  V30 42 1 17 38
M  V30 43 1 19 39
M  V30 44 1 22 40
M  V30 45 1 22 41
M  V30 46 1 23 42
M  V30 47 1 23 43
M  V30 48 1 24 44
M  V30 49 1 25 45
M  V30 50 1 25 46
M  V30 51 1 26 47
M  V30 52 1 26 48
M  V30 53 1 28 49
M  V30 54 1 30 50
M  V30 55 1 31 51
M  V30 END BOND
M  V30 END CTAB
M  END
>  <Dataset>  (169) 
ChEMBL_Kinases

>  <Ligand_Instance>  (169) 
nan

>  <PDB_ID>  (169) 
nan

>  <Standardized_SMILES>  (169) 
FC(F)(F)c1ccc(-c2c[nH]c3ccc(-c4cncc(N5CCNCC5)n4)cc23)cc1

>  <Name>  (169) 
nan

>  <Pocket>  (169) 
nan

>  <ATP_Site>  (169) 
nan

>  <Peripheral>  (169) 
nan

>  <Num_H_Atoms_ProtBoundConf>  (169) 
nan

>  <Num_Resolved_Atoms>  (169) 
nan

>  <Num_Not_Resolved_Atoms>  (169) 
nan

$$$$
CHEMBL4788582
     RDKit          3D

  0  0  0  0  0  0  0  0  0  0999 V3000
M  V30 BEGIN CTAB
M  V30 COUNTS 58 64 0 0 0
M  V30 BEGIN ATOM
M  V30 1 F -1.693013 1.722012 4.836145 0
M  V30 2 C -0.358580 1.402857 5.042236 0
M  V30 3 F -0.260481 0.182576 5.638686 0
M  V30 4 C 0.241861 2.525477 5.875041 0
M  V30 5 C 1.203971 3.253868 4.961170 0
M  V30 6 N 0.817425 2.860615 3.621804 0
M  V30 7 C 1.909261 3.072284 2.701280 0
M  V30 8 C 1.443351 2.650363 1.352675 0
M  V30 9 C 0.820377 3.564225 0.494895 0
M  V30 10 N 0.384410 3.201855 -0.747373 0
M  V30 11 C 0.541334 1.941275 -1.191654 0
M  V30 12 C 1.147224 0.988559 -0.398336 0
M  V30 13 C 1.342279 -0.404085 -0.838238 0
M  V30 14 C 2.476269 -1.041717 -0.322367 0
M  V30 15 C 2.753681 -2.346282 -0.669248 0
M  V30 16 C 1.924604 -3.058894 -1.531943 0
M  V30 17 N 1.923694 -4.299583 -2.043521 0
M  V30 18 N 0.883303 -4.457311 -2.822627 0
M  V30 19 C 0.169229 -3.321750 -2.845163 0
M  V30 20 C -1.056506 -3.091286 -3.591108 0
M  V30 21 N -1.777116 -1.955687 -3.617820 0
M  V30 22 C -2.840444 -2.137724 -4.421820 0
M  V30 23 C -3.883832 -1.354734 -4.814815 0
M  V30 24 C -3.956956 0.007814 -4.304617 0
M  V30 25 C -2.912655 0.862172 -4.244556 0
M  V30 26 C -3.053609 2.129118 -3.752659 0
M  V30 27 S -4.875911 2.219637 -3.285476 0
M  V30 28 C -5.196679 0.478201 -3.838892 0
M  V30 29 C -4.860537 -1.818103 -5.675031 0
M  V30 30 N -4.795694 -3.089861 -6.154004 0
M  V30 31 C -3.759957 -3.865951 -5.763441 0
M  V30 32 C -2.767376 -3.435780 -4.905990 0
M  V30 33 N -1.662482 -3.997134 -4.379452 0
M  V30 34 C 0.803763 -2.398901 -2.029575 0
M  V30 35 C 0.513519 -1.099339 -1.693568 0
M  V30 36 C 1.579104 1.379295 0.852678 0
M  V30 37 C 0.393822 1.482908 3.708262 0
M  V30 38 H -0.499524 3.256435 6.222137 0
M  V30 39 H 0.749109 2.105191 6.754668 0
M  V30 40 H 2.244306 2.945665 5.140670 0
M  V30 41 H 1.052819 4.367068 5.014083 0
M  V30 42 H 2.037681 4.188106 2.646510 0
M  V30 43 H 2.846680 2.572184 3.010778 0
M  V30 44 H 0.676515 4.590108 0.818692 0
M  V30 45 H 0.191949 1.684171 -2.166219 0
M  V30 46 H 3.204035 -0.634040 0.345182 0
M  V30 47 H 3.609377 -2.907072 -0.312648 0
M  V30 48 H 2.648688 -5.017868 -1.841712 0
M  V30 49 H -1.911635 0.619831 -4.570942 0
M  V30 50 H -2.408582 2.955051 -3.607692 0
M  V30 51 H -6.159971 -0.057277 -3.802833 0
M  V30 52 H -5.706963 -1.198435 -6.000204 0
M  V30 53 H -3.680777 -4.897603 -6.133902 0
M  V30 54 H -1.324266 -4.978471 -4.551489 0
M  V30 55 H -0.339336 -0.579146 -2.064944 0
M  V30 56 H 2.044493 0.630603 1.450730 0
M  V30 57 H -0.344943 1.300264 2.907425 0
M  V30 58 H 1.222489 0.759425 3.699882 0
M  V30 END ATOM
M  V30 BEGIN BOND
M  V30 1 1 1 2
M  V30 2 1 2 3
M  V30 3 1 2 4
M  V30 4 1 4 5
M  V30 5 1 5 6
M  V30 6 1 6 7
M  V30 7 1 7 8
M  V30 8 2 8 9
M  V30 9 1 9 10
M  V30 10 2 10 11
M  V30 11 1 11 12
M  V30 12 1 12 13
M  V30 13 2 13 14
M  V30 14 1 14 15
M  V30 15 2 15 16
M  V30 16 1 16 17
M  V30 17 1 17 18
M  V30 18 2 18 19
M  V30 19 1 19 20
M  V30 20 2 20 21
M  V30 21 1 21 22
M  V30 22 2 22 23
M  V30 23 1 23 24
M  V30 24 1 24 25
M  V30 25 2 25 26
M  V30 26 1 26 27
M  V30 27 1 27 28
M  V30 28 1 23 29
M  V30 29 2 29 30
M  V30 30 1 30 31
M  V30 31 2 31 32
M  V30 32 1 32 33
M  V30 33 1 19 34
M  V30 34 2 34 35
M  V30 35 2 12 36
M  V30 36 1 6 37
M  V30 37 1 37 2
M  V30 38 1 36 8
M  V30 39 1 35 13
M  V30 40 1 34 16
M  V30 41 1 33 20
M  V30 42 1 32 22
M  V30 43 2 28 24
M  V30 44 1 4 38
M  V30 45 1 4 39
M  V30 46 1 5 40
M  V30 47 1 5 41
M  V30 48 1 7 42
M  V30 49 1 7 43
M  V30 50 1 9 44
M  V30 51 1 11 45
M  V30 52 1 14 46
M  V30 53 1 15 47
M  V30 54 1 17 48
M  V30 55 1 25 49
M  V30 56 1 26 50
M  V30 57 1 28 51
M  V30 58 1 29 52
M  V30 59 1 31 53
M  V30 60 1 33 54
M  V30 61 1 35 55
M  V30 62 1 36 56
M  V30 63 1 37 57
M  V30 64 1 37 58
M  V30 END BOND
M  V30 END CTAB
M  END
>  <Dataset>  (170) 
ChEMBL_Kinases

>  <Ligand_Instance>  (170) 
nan

>  <PDB_ID>  (170) 
nan

>  <Standardized_SMILES>  (170) 
FC1(F)CCN(Cc2cncc(-c3ccc4[nH]nc(-c5nc6c(-c7ccsc7)cncc6[nH]5)c4c3)c2)C1

>  <Name>  (170) 
nan

>  <Pocket>  (170) 
nan

>  <ATP_Site>  (170) 
nan

>  <Peripheral>  (170) 
nan

>  <Num_H_Atoms_ProtBoundConf>  (170) 
nan

>  <Num_Resolved_Atoms>  (170) 
nan

>  <Num_Not_Resolved_Atoms>  (170) 
nan

$$$$
CHEMBL4789036
     RDKit          3D

  0  0  0  0  0  0  0  0  0  0999 V3000
M  V30 BEGIN CTAB
M  V30 COUNTS 54 59 0 0 0
M  V30 BEGIN ATOM
M  V30 1 C -0.706635 -2.921629 4.601767 0
M  V30 2 N 0.452983 -3.067467 3.779838 0
M  V30 3 C 1.702363 -2.789079 4.397617 0
M  V30 4 C 2.281562 -1.454976 4.101181 0
M  V30 5 N 1.984895 -0.935884 2.781585 0
M  V30 6 C 2.992560 -0.377847 1.950591 0
M  V30 7 N 4.238980 -0.345681 2.449357 0
M  V30 8 C 5.282682 0.155874 1.766961 0
M  V30 9 C 5.182163 0.681082 0.503384 0
M  V30 10 C 3.911569 0.655988 -0.022979 0
M  V30 11 N 3.391711 1.058799 -1.196704 0
M  V30 12 C 2.088626 0.812915 -1.226697 0
M  V30 13 C 1.189349 1.112181 -2.335324 0
M  V30 14 N 1.600546 1.686352 -3.478231 0
M  V30 15 N 0.556995 1.830920 -4.294678 0
M  V30 16 C -0.557659 1.343013 -3.676230 0
M  V30 17 C -1.893315 1.232985 -4.036496 0
M  V30 18 C -2.820891 0.675043 -3.169216 0
M  V30 19 F -4.134603 0.562475 -3.513502 0
M  V30 20 C -2.380850 0.224346 -1.920488 0
M  V30 21 C -3.336332 -0.375711 -0.968467 0
M  V30 22 C -3.588222 -0.253796 0.366202 0
M  V30 23 N -4.619246 -1.089904 0.664004 0
M  V30 24 N -5.002510 -1.712424 -0.431045 0
M  V30 25 C -6.095597 -2.674141 -0.406315 0
M  V30 26 C -4.241788 -1.307414 -1.470580 0
M  V30 27 C -1.061161 0.316444 -1.525970 0
M  V30 28 C -0.167692 0.884123 -2.431585 0
M  V30 29 N 1.743944 0.240910 -0.058837 0
M  V30 30 C 2.844174 0.140414 0.681047 0
M  V30 31 C 0.575755 -1.079224 2.485051 0
M  V30 32 C 0.310742 -2.585586 2.448351 0
M  V30 33 H -0.551292 -2.413123 5.556547 0
M  V30 34 H -1.530549 -2.446071 3.996161 0
M  V30 35 H -1.082137 -3.947125 4.845106 0
M  V30 36 H 2.406971 -3.631739 4.151941 0
M  V30 37 H 1.534156 -2.849647 5.510516 0
M  V30 38 H 3.404520 -1.561102 4.157586 0
M  V30 39 H 2.031708 -0.703073 4.866654 0
M  V30 40 H 6.279520 0.151878 2.234598 0
M  V30 41 H 5.997722 1.092475 -0.075028 0
M  V30 42 H 3.995513 1.503640 -1.950209 0
M  V30 43 H 0.520245 2.241916 -5.265211 0
M  V30 44 H -2.199740 1.599590 -5.028350 0
M  V30 45 H -2.987697 0.430723 0.956910 0
M  V30 46 H -5.872541 -3.547854 0.227015 0
M  V30 47 H -6.989795 -2.162424 0.049351 0
M  V30 48 H -6.337189 -3.045382 -1.425799 0
M  V30 49 H -4.382380 -1.695235 -2.488894 0
M  V30 50 H -0.737115 -0.038941 -0.551946 0
M  V30 51 H -0.011752 -0.684128 3.364633 0
M  V30 52 H 0.257796 -0.586283 1.569105 0
M  V30 53 H -0.689259 -2.838283 2.070408 0
M  V30 54 H 1.109156 -3.036365 1.824009 0
M  V30 END ATOM
M  V30 BEGIN BOND
M  V30 1 1 1 2
M  V30 2 1 2 3
M  V30 3 1 3 4
M  V30 4 1 4 5
M  V30 5 1 5 6
M  V30 6 2 6 7
M  V30 7 1 7 8
M  V30 8 2 8 9
M  V30 9 1 9 10
M  V30 10 1 10 11
M  V30 11 1 11 12
M  V30 12 1 12 13
M  V30 13 2 13 14
M  V30 14 1 14 15
M  V30 15 1 15 16
M  V30 16 2 16 17
M  V30 17 1 17 18
M  V30 18 1 18 19
M  V30 19 2 18 20
M  V30 20 1 20 21
M  V30 21 1 21 22
M  V30 22 2 22 23
M  V30 23 1 23 24
M  V30 24 1 24 25
M  V30 25 1 24 26
M  V30 26 1 20 27
M  V30 27 2 27 28
M  V30 28 2 12 29
M  V30 29 1 29 30
M  V30 30 1 5 31
M  V30 31 1 31 32
M  V30 32 1 32 2
M  V30 33 1 30 6
M  V30 34 2 30 10
M  V30 35 1 28 13
M  V30 36 1 28 16
M  V30 37 2 26 21
M  V30 38 1 1 33
M  V30 39 1 1 34
M  V30 40 1 1 35
M  V30 41 1 3 36
M  V30 42 1 3 37
M  V30 43 1 4 38
M  V30 44 1 4 39
M  V30 45 1 8 40
M  V30 46 1 9 41
M  V30 47 1 11 42
M  V30 48 1 15 43
M  V30 49 1 17 44
M  V30 50 1 22 45
M  V30 51 1 25 46
M  V30 52 1 25 47
M  V30 53 1 25 48
M  V30 54 1 26 49
M  V30 55 1 27 50
M  V30 56 1 31 51
M  V30 57 1 31 52
M  V30 58 1 32 53
M  V30 59 1 32 54
M  V30 END BOND
M  V30 END CTAB
M  END
>  <Dataset>  (171) 
ChEMBL_Kinases

>  <Ligand_Instance>  (171) 
nan

>  <PDB_ID>  (171) 
nan

>  <Standardized_SMILES>  (171) 
CN1CCN(c2nccc3[nH]c(-c4n[nH]c5cc(F)c(-c6cnn(C)c6)cc45)nc23)CC1

>  <Name>  (171) 
nan

>  <Pocket>  (171) 
nan

>  <ATP_Site>  (171) 
nan

>  <Peripheral>  (171) 
nan

>  <Num_H_Atoms_ProtBoundConf>  (171) 
nan

>  <Num_Resolved_Atoms>  (171) 
nan

>  <Num_Not_Resolved_Atoms>  (171) 
nan

$$$$
CHEMBL4788538
     RDKit          3D

  0  0  0  0  0  0  0  0  0  0999 V3000
M  V30 BEGIN CTAB
M  V30 COUNTS 63 69 0 0 0
M  V30 BEGIN ATOM
M  V30 1 C 2.817265 -3.423369 2.515708 0
M  V30 2 C 3.490281 -2.238438 2.219631 0
M  V30 3 C 2.913701 -1.008757 2.445184 0
M  V30 4 C 3.702171 0.171932 2.110211 0
M  V30 5 C 5.004475 0.128968 2.568057 0
M  V30 6 N 5.817776 1.181946 2.316160 0
M  V30 7 C 5.366830 2.232487 1.641841 0
M  V30 8 C 4.073355 2.305900 1.171669 0
M  V30 9 N 3.330897 3.191720 0.481594 0
M  V30 10 C 2.069151 2.726795 0.289777 0
M  V30 11 C 1.066694 3.503600 -0.426489 0
M  V30 12 N 1.285422 4.716530 -0.948348 0
M  V30 13 N 0.208861 5.198846 -1.544637 0
M  V30 14 C -0.715667 4.252180 -1.389411 0
M  V30 15 C -2.050793 4.186284 -1.804265 0
M  V30 16 C -2.777219 3.054746 -1.493164 0
M  V30 17 C -2.281406 1.974366 -0.797955 0
M  V30 18 C -3.087429 0.798025 -0.497101 0
M  V30 19 C -4.403321 0.702054 -0.886513 0
M  V30 20 N -5.224411 -0.352010 -0.653972 0
M  V30 21 C -4.725481 -1.428612 0.026109 0
M  V30 22 C -3.409305 -1.377244 0.436912 0
M  V30 23 C -2.897579 -2.579098 1.175249 0
M  V30 24 N -2.338458 -3.551529 0.307343 0
M  V30 25 C -3.152237 -4.105233 -0.678499 0
M  V30 26 C -2.711192 -5.435606 -1.224863 0
M  V30 27 C -1.229565 -5.331748 -1.486953 0
M  V30 28 C -0.448734 -5.045827 -0.228884 0
M  V30 29 C -1.189016 -4.219233 0.767376 0
M  V30 30 C -2.589717 -0.272105 0.179502 0
M  V30 31 N -0.993600 2.069426 -0.413187 0
M  V30 32 C -0.240098 3.150588 -0.690303 0
M  V30 33 C 1.965527 1.483858 0.873715 0
M  V30 34 C 3.214582 1.253743 1.407615 0
M  V30 35 C 1.645235 -0.886652 2.973527 0
M  V30 36 C 1.002006 -2.096712 3.257494 0
M  V30 37 N 1.585587 -3.266264 3.028455 0
M  V30 38 H 3.280138 -4.383992 2.333671 0
M  V30 39 H 4.490417 -2.363699 1.803019 0
M  V30 40 H 5.483025 -0.664033 3.124246 0
M  V30 41 H 6.025706 3.068349 1.446750 0
M  V30 42 H 3.785262 4.100585 0.180915 0
M  V30 43 H 0.057342 6.100382 -2.036808 0
M  V30 44 H -2.454104 5.030119 -2.352778 0
M  V30 45 H -3.776718 3.092235 -1.846359 0
M  V30 46 H -4.909248 1.485141 -1.428470 0
M  V30 47 H -5.382617 -2.268471 0.211597 0
M  V30 48 H -2.130410 -2.179368 1.887067 0
M  V30 49 H -3.737788 -2.959097 1.793992 0
M  V30 50 H -3.223286 -3.395661 -1.554129 0
M  V30 51 H -4.174750 -4.287310 -0.260138 0
M  V30 52 H -3.005379 -6.248738 -0.558207 0
M  V30 53 H -3.179771 -5.545781 -2.244683 0
M  V30 54 H -0.904451 -6.288741 -1.944148 0
M  V30 55 H -1.078242 -4.544805 -2.253065 0
M  V30 56 H -0.141668 -6.027696 0.185897 0
M  V30 57 H 0.487905 -4.540598 -0.548013 0
M  V30 58 H -0.498871 -3.450977 1.181520 0
M  V30 59 H -1.470840 -4.867622 1.623700 0
M  V30 60 H -1.570621 -0.276748 0.518176 0
M  V30 61 H 1.094493 0.847883 0.896936 0
M  V30 62 H 1.181301 0.062231 3.156527 0
M  V30 63 H 0.003121 -2.091713 3.674491 0
M  V30 END ATOM
M  V30 BEGIN BOND
M  V30 1 2 1 2
M  V30 2 1 2 3
M  V30 3 1 3 4
M  V30 4 2 4 5
M  V30 5 1 5 6
M  V30 6 2 6 7
M  V30 7 1 7 8
M  V30 8 1 8 9
M  V30 9 1 9 10
M  V30 10 1 10 11
M  V30 11 2 11 12
M  V30 12 1 12 13
M  V30 13 1 13 14
M  V30 14 2 14 15
M  V30 15 1 15 16
M  V30 16 2 16 17
M  V30 17 1 17 18
M  V30 18 2 18 19
M  V30 19 1 19 20
M  V30 20 2 20 21
M  V30 21 1 21 22
M  V30 22 1 22 23
M  V30 23 1 23 24
M  V30 24 1 24 25
M  V30 25 1 25 26
M  V30 26 1 26 27
M  V30 27 1 27 28
M  V30 28 1 28 29
M  V30 29 2 22 30
M  V30 30 1 17 31
M  V30 31 2 31 32
M  V30 32 2 10 33
M  V30 33 1 33 34
M  V30 34 2 3 35
M  V30 35 1 35 36
M  V30 36 2 36 37
M  V30 37 1 37 1
M  V30 38 1 34 4
M  V30 39 2 34 8
M  V30 40 1 32 11
M  V30 41 1 32 14
M  V30 42 1 30 18
M  V30 43 1 29 24
M  V30 44 1 1 38
M  V30 45 1 2 39
M  V30 46 1 5 40
M  V30 47 1 7 41
M  V30 48 1 9 42
M  V30 49 1 13 43
M  V30 50 1 15 44
M  V30 51 1 16 45
M  V30 52 1 19 46
M  V30 53 1 21 47
M  V30 54 1 23 48
M  V30 55 1 23 49
M  V30 56 1 25 50
M  V30 57 1 25 51
M  V30 58 1 26 52
M  V30 59 1 26 53
M  V30 60 1 27 54
M  V30 61 1 27 55
M  V30 62 1 28 56
M  V30 63 1 28 57
M  V30 64 1 29 58
M  V30 65 1 29 59
M  V30 66 1 30 60
M  V30 67 1 33 61
M  V30 68 1 35 62
M  V30 69 1 36 63
M  V30 END BOND
M  V30 END CTAB
M  END
>  <Dataset>  (172) 
ChEMBL_Kinases

>  <Ligand_Instance>  (172) 
nan

>  <PDB_ID>  (172) 
nan

>  <Standardized_SMILES>  (172) 
c1cc(-c2cncc3[nH]c(-c4n[nH]c5ccc(-c6cncc(CN7CCCCC7)c6)nc45)cc23)ccn1

>  <Name>  (172) 
nan

>  <Pocket>  (172) 
nan

>  <ATP_Site>  (172) 
nan

>  <Peripheral>  (172) 
nan

>  <Num_H_Atoms_ProtBoundConf>  (172) 
nan

>  <Num_Resolved_Atoms>  (172) 
nan

>  <Num_Not_Resolved_Atoms>  (172) 
nan

$$$$
CHEMBL4129018
     RDKit          3D

  0  0  0  0  0  0  0  0  0  0999 V3000
M  V30 BEGIN CTAB
M  V30 COUNTS 52 56 0 0 0
M  V30 BEGIN ATOM
M  V30 1 C 2.793870 -2.960141 -3.696070 0
M  V30 2 N 3.461386 -3.708308 -2.682729 0
M  V30 3 C 4.341487 -2.945308 -1.872211 0
M  V30 4 C 3.917343 -2.762424 -0.436391 0
M  V30 5 N 2.528074 -3.145569 -0.301293 0
M  V30 6 C 1.460808 -2.311660 0.128581 0
M  V30 7 C 1.708767 -1.007176 0.498076 0
M  V30 8 C 0.596585 -0.284266 0.901802 0
M  V30 9 C 0.664646 1.091780 1.324474 0
M  V30 10 C 0.288231 1.235311 2.649243 0
M  V30 11 C 0.276355 2.483090 3.280967 0
M  V30 12 N 0.649667 3.566316 2.547549 0
M  V30 13 C 1.023928 3.454675 1.244807 0
M  V30 14 C 1.035087 2.219239 0.622121 0
M  V30 15 C -0.673989 -0.856066 0.924919 0
M  V30 16 C -1.866275 -0.134709 1.342324 0
M  V30 17 C -2.158679 0.966532 0.553250 0
M  V30 18 C -3.275044 1.750383 0.837244 0
M  V30 19 C -4.113656 1.473257 1.885352 0
M  V30 20 C -5.218856 2.254160 2.160402 0
M  V30 21 C -5.984858 1.853696 3.258377 0
M  V30 22 C -5.682019 0.755422 4.035099 0
M  V30 23 C -4.567912 -0.016783 3.743273 0
M  V30 24 C -3.806757 0.387466 2.646073 0
M  V30 25 C -2.706251 -0.419714 2.399338 0
M  V30 26 N -0.839877 -2.157708 0.543160 0
M  V30 27 N 0.229047 -2.850578 0.155701 0
M  V30 28 C 2.317853 -4.535748 -0.663217 0
M  V30 29 C 2.714021 -4.739807 -2.080075 0
M  V30 30 H 2.586076 -1.943033 -3.265835 0
M  V30 31 H 3.406758 -2.835559 -4.611442 0
M  V30 32 H 1.860898 -3.469160 -4.019714 0
M  V30 33 H 5.396094 -3.281157 -1.981450 0
M  V30 34 H 4.348866 -1.907814 -2.322455 0
M  V30 35 H 4.504150 -3.518093 0.160823 0
M  V30 36 H 4.179749 -1.794266 -0.020678 0
M  V30 37 H 2.664956 -0.546493 0.489872 0
M  V30 38 H -0.030258 0.440748 3.336742 0
M  V30 39 H -0.011183 2.633668 4.313375 0
M  V30 40 H 1.322953 4.305006 0.649042 0
M  V30 41 H 1.310704 2.009830 -0.398283 0
M  V30 42 H -1.596011 1.330459 -0.320999 0
M  V30 43 H -3.535934 2.631118 0.231356 0
M  V30 44 H -5.433814 3.098851 1.546622 0
M  V30 45 H -6.848613 2.508398 3.430111 0
M  V30 46 H -6.368586 0.581003 4.842082 0
M  V30 47 H -4.360152 -0.858705 4.360998 0
M  V30 48 H -2.408965 -1.299482 2.969945 0
M  V30 49 H 1.279181 -4.865486 -0.443145 0
M  V30 50 H 2.970611 -5.179100 -0.019920 0
M  V30 51 H 3.256662 -5.717744 -2.227532 0
M  V30 52 H 1.757218 -4.874892 -2.665973 0
M  V30 END ATOM
M  V30 BEGIN BOND
M  V30 1 1 1 2
M  V30 2 1 2 3
M  V30 3 1 3 4
M  V30 4 1 4 5
M  V30 5 1 5 6
M  V30 6 2 6 7
M  V30 7 1 7 8
M  V30 8 1 8 9
M  V30 9 2 9 10
M  V30 10 1 10 11
M  V30 11 2 11 12
M  V30 12 1 12 13
M  V30 13 2 13 14
M  V30 14 2 8 15
M  V30 15 1 15 16
M  V30 16 2 16 17
M  V30 17 1 17 18
M  V30 18 2 18 19
M  V30 19 1 19 20
M  V30 20 2 20 21
M  V30 21 1 21 22
M  V30 22 2 22 23
M  V30 23 1 23 24
M  V30 24 2 24 25
M  V30 25 1 15 26
M  V30 26 2 26 27
M  V30 27 1 5 28
M  V30 28 1 28 29
M  V30 29 1 29 2
M  V30 30 1 27 6
M  V30 31 1 14 9
M  V30 32 1 25 16
M  V30 33 1 24 19
M  V30 34 1 1 30
M  V30 35 1 1 31
M  V30 36 1 1 32
M  V30 37 1 3 33
M  V30 38 1 3 34
M  V30 39 1 4 35
M  V30 40 1 4 36
M  V30 41 1 7 37
M  V30 42 1 10 38
M  V30 43 1 11 39
M  V30 44 1 13 40
M  V30 45 1 14 41
M  V30 46 1 17 42
M  V30 47 1 18 43
M  V30 48 1 20 44
M  V30 49 1 21 45
M  V30 50 1 22 46
M  V30 51 1 23 47
M  V30 52 1 25 48
M  V30 53 1 28 49
M  V30 54 1 28 50
M  V30 55 1 29 51
M  V30 56 1 29 52
M  V30 END BOND
M  V30 END CTAB
M  END
>  <Dataset>  (173) 
ChEMBL_Kinases

>  <Ligand_Instance>  (173) 
nan

>  <PDB_ID>  (173) 
nan

>  <Standardized_SMILES>  (173) 
CN1CCN(c2cc(-c3ccncc3)c(-c3ccc4ccccc4c3)nn2)CC1

>  <Name>  (173) 
MW-150

>  <Pocket>  (173) 
nan

>  <ATP_Site>  (173) 
nan

>  <Peripheral>  (173) 
nan

>  <Num_H_Atoms_ProtBoundConf>  (173) 
nan

>  <Num_Resolved_Atoms>  (173) 
nan

>  <Num_Not_Resolved_Atoms>  (173) 
nan

$$$$
CHEMBL4788493
     RDKit          3D

  0  0  0  0  0  0  0  0  0  0999 V3000
M  V30 BEGIN CTAB
M  V30 COUNTS 49 54 0 0 0
M  V30 BEGIN ATOM
M  V30 1 C 5.816159 -4.094222 1.556734 0
M  V30 2 O 4.919428 -3.153154 1.053727 0
M  V30 3 C 5.001729 -1.792414 1.321266 0
M  V30 4 C 5.979654 -1.235744 2.111972 0
M  V30 5 C 6.041829 0.117503 2.363842 0
M  V30 6 C 5.093502 0.932384 1.804301 0
M  V30 7 C 4.096754 0.416953 1.006321 0
M  V30 8 C 3.026532 1.203498 0.354493 0
M  V30 9 C 3.184596 2.386392 -0.321513 0
M  V30 10 C 2.079743 3.004059 -0.878905 0
M  V30 11 N 0.853542 2.456480 -0.764462 0
M  V30 12 C 0.621670 1.301135 -0.117540 0
M  V30 13 N -0.464435 0.548162 0.143130 0
M  V30 14 C -0.092260 -0.520242 0.842355 0
M  V30 15 C -0.906102 -1.620688 1.356485 0
M  V30 16 N -0.506640 -2.692051 2.062161 0
M  V30 17 N -1.531756 -3.487293 2.358503 0
M  V30 18 C -2.620842 -2.911580 1.828803 0
M  V30 19 C -3.949284 -3.242248 1.796752 0
M  V30 20 C -4.871268 -2.437924 1.159903 0
M  V30 21 C -4.519680 -1.267099 0.524359 0
M  V30 22 C -5.436694 -0.369487 -0.167101 0
M  V30 23 C -4.886909 0.757022 -0.742201 0
M  V30 24 C -5.693307 1.658964 -1.417198 0
M  V30 25 C -7.045718 1.368255 -1.477124 0
M  V30 26 N -7.583567 0.269366 -0.916390 0
M  V30 27 C -6.789278 -0.618675 -0.251741 0
M  V30 28 N -3.211159 -0.959074 0.566443 0
M  V30 29 C -2.290850 -1.736041 1.186739 0
M  V30 30 N 1.240450 -0.433039 1.019930 0
M  V30 31 C 1.732230 0.682087 0.441656 0
M  V30 32 C 4.051295 -0.954281 0.763760 0
M  V30 33 H 5.430353 -5.102565 1.255857 0
M  V30 34 H 6.848033 -4.005158 1.172452 0
M  V30 35 H 5.809635 -4.141985 2.683342 0
M  V30 36 H 6.683721 -1.955705 2.509807 0
M  V30 37 H 6.814468 0.509834 2.981304 0
M  V30 38 H 5.076124 2.021595 1.958384 0
M  V30 39 H 4.194991 2.767055 -0.373874 0
M  V30 40 H 2.259723 3.935025 -1.401368 0
M  V30 41 H -1.446701 0.760792 -0.152367 0
M  V30 42 H -1.463107 -4.377093 2.899303 0
M  V30 43 H -4.280758 -4.154881 2.282262 0
M  V30 44 H -5.915004 -2.717738 1.146617 0
M  V30 45 H -3.824984 1.017447 -0.714264 0
M  V30 46 H -5.294224 2.561329 -1.884971 0
M  V30 47 H -7.691503 2.081528 -2.012312 0
M  V30 48 H -7.223314 -1.486232 0.189335 0
M  V30 49 H 3.276087 -1.397705 0.136632 0
M  V30 END ATOM
M  V30 BEGIN BOND
M  V30 1 1 1 2
M  V30 2 1 2 3
M  V30 3 2 3 4
M  V30 4 1 4 5
M  V30 5 2 5 6
M  V30 6 1 6 7
M  V30 7 1 7 8
M  V30 8 2 8 9
M  V30 9 1 9 10
M  V30 10 2 10 11
M  V30 11 1 11 12
M  V30 12 1 12 13
M  V30 13 1 13 14
M  V30 14 1 14 15
M  V30 15 2 15 16
M  V30 16 1 16 17
M  V30 17 1 17 18
M  V30 18 2 18 19
M  V30 19 1 19 20
M  V30 20 2 20 21
M  V30 21 1 21 22
M  V30 22 2 22 23
M  V30 23 1 23 24
M  V30 24 2 24 25
M  V30 25 1 25 26
M  V30 26 2 26 27
M  V30 27 1 21 28
M  V30 28 2 28 29
M  V30 29 2 14 30
M  V30 30 1 30 31
M  V30 31 2 7 32
M  V30 32 1 32 3
M  V30 33 1 31 8
M  V30 34 2 31 12
M  V30 35 1 29 15
M  V30 36 1 29 18
M  V30 37 1 27 22
M  V30 38 1 1 33
M  V30 39 1 1 34
M  V30 40 1 1 35
M  V30 41 1 4 36
M  V30 42 1 5 37
M  V30 43 1 6 38
M  V30 44 1 9 39
M  V30 45 1 10 40
M  V30 46 1 13 41
M  V30 47 1 17 42
M  V30 48 1 19 43
M  V30 49 1 20 44
M  V30 50 1 23 45
M  V30 51 1 24 46
M  V30 52 1 25 47
M  V30 53 1 27 48
M  V30 54 1 32 49
M  V30 END BOND
M  V30 END CTAB
M  END
>  <Dataset>  (174) 
ChEMBL_Kinases

>  <Ligand_Instance>  (174) 
nan

>  <PDB_ID>  (174) 
nan

>  <Standardized_SMILES>  (174) 
COc1cccc(-c2ccnc3[nH]c(-c4n[nH]c5ccc(-c6cccnc6)nc45)nc23)c1

>  <Name>  (174) 
nan

>  <Pocket>  (174) 
nan

>  <ATP_Site>  (174) 
nan

>  <Peripheral>  (174) 
nan

>  <Num_H_Atoms_ProtBoundConf>  (174) 
nan

>  <Num_Resolved_Atoms>  (174) 
nan

>  <Num_Not_Resolved_Atoms>  (174) 
nan

$$$$
CHEMBL4790903
     RDKit          3D

  0  0  0  0  0  0  0  0  0  0999 V3000
M  V30 BEGIN CTAB
M  V30 COUNTS 67 72 0 0 0
M  V30 BEGIN ATOM
M  V30 1 C -3.329731 -0.564968 4.175623 0
M  V30 2 C -2.647738 -1.601978 3.250212 0
M  V30 3 C -2.634859 -2.950816 3.882254 0
M  V30 4 C -1.981581 -4.053342 3.135912 0
M  V30 5 C -0.527465 -3.846493 2.932494 0
M  V30 6 O -0.379212 -2.851158 3.723173 0
M  V30 7 N 0.527706 -4.402673 2.193962 0
M  V30 8 C 1.629540 -3.596361 2.594297 0
M  V30 9 C 2.391635 -4.092569 3.631685 0
M  V30 10 N 3.415989 -3.313264 3.994736 0
M  V30 11 C 3.745912 -2.137420 3.453313 0
M  V30 12 C 2.969998 -1.695912 2.440959 0
M  V30 13 C 3.302934 -0.393660 1.830015 0
M  V30 14 C 4.390405 0.327119 2.345331 0
M  V30 15 C 4.882551 1.536368 1.976233 0
M  V30 16 C 4.229431 2.195245 0.919354 0
M  V30 17 N 4.367402 3.346998 0.264318 0
M  V30 18 N 3.439508 3.424295 -0.642832 0
M  V30 19 C 2.662340 2.309579 -0.600877 0
M  V30 20 C 1.525955 2.118650 -1.503048 0
M  V30 21 C 0.630715 1.090133 -1.623212 0
M  V30 22 C -0.223939 1.402979 -2.609760 0
M  V30 23 C -1.296579 0.848306 -3.216161 0
M  V30 24 N -1.800302 -0.412599 -2.806479 0
M  V30 25 C -1.165330 -1.700269 -2.678002 0
M  V30 26 C -1.573281 -2.514214 -1.506529 0
M  V30 27 C -2.389057 -1.802592 -0.470606 0
M  V30 28 C -3.501497 -1.018271 -1.105707 0
M  V30 29 C -3.196352 -0.502442 -2.462033 0
M  V30 30 N -2.000944 1.386808 -4.223903 0
M  V30 31 C -1.661611 2.610420 -4.740023 0
M  V30 32 C -0.569642 3.266427 -4.189501 0
M  V30 33 C 0.101941 2.641873 -3.149376 0
M  V30 34 N 1.187000 3.039404 -2.432250 0
M  V30 35 C 3.141573 1.484411 0.397038 0
M  V30 36 N 2.726855 0.306881 0.815814 0
M  V30 37 C 1.901900 -2.411379 1.992585 0
M  V30 38 H -3.327215 0.427066 3.711440 0
M  V30 39 H -4.343390 -0.887382 4.363231 0
M  V30 40 H -2.696801 -0.473771 5.107739 0
M  V30 41 H -1.668899 -1.221796 2.968122 0
M  V30 42 H -3.361033 -1.679837 2.387177 0
M  V30 43 H -3.722454 -3.189146 4.102410 0
M  V30 44 H -2.187189 -2.921559 4.919177 0
M  V30 45 H -2.147367 -5.048310 3.602922 0
M  V30 46 H -2.469041 -4.148044 2.132359 0
M  V30 47 H 0.112040 -5.172407 1.651316 0
M  V30 48 H 2.164071 -5.043372 4.116725 0
M  V30 49 H 4.602778 -1.714933 3.908707 0
M  V30 50 H 5.036923 -0.016382 3.170758 0
M  V30 51 H 5.723264 2.083312 2.378850 0
M  V30 52 H 5.143938 3.985794 0.531422 0
M  V30 53 H 0.603752 0.197415 -1.049791 0
M  V30 54 H -0.050497 -1.525602 -2.764533 0
M  V30 55 H -1.408124 -2.269815 -3.619142 0
M  V30 56 H -0.621705 -2.864357 -1.009261 0
M  V30 57 H -2.090867 -3.453447 -1.845632 0
M  V30 58 H -1.724387 -1.199881 0.162169 0
M  V30 59 H -2.846779 -2.591870 0.168173 0
M  V30 60 H -4.427850 -1.659193 -1.114270 0
M  V30 61 H -3.740945 -0.156212 -0.443779 0
M  V30 62 H -3.658304 -1.230214 -3.202773 0
M  V30 63 H -3.744880 0.442279 -2.676738 0
M  V30 64 H -2.132023 3.173824 -5.531482 0
M  V30 65 H -0.252540 4.218677 -4.545769 0
M  V30 66 H 1.645569 3.980461 -2.643949 0
M  V30 67 H 1.308548 -2.015031 1.180190 0
M  V30 END ATOM
M  V30 BEGIN BOND
M  V30 1 1 1 2
M  V30 2 1 2 3
M  V30 3 1 3 4
M  V30 4 1 4 5
M  V30 5 2 5 6
M  V30 6 1 5 7
M  V30 7 1 7 8
M  V30 8 2 8 9
M  V30 9 1 9 10
M  V30 10 2 10 11
M  V30 11 1 11 12
M  V30 12 1 12 13
M  V30 13 2 13 14
M  V30 14 1 14 15
M  V30 15 2 15 16
M  V30 16 1 16 17
M  V30 17 1 17 18
M  V30 18 2 18 19
M  V30 19 1 19 20
M  V30 20 2 20 21
M  V30 21 1 21 22
M  V30 22 2 22 23
M  V30 23 1 23 24
M  V30 24 1 24 25
M  V30 25 1 25 26
M  V30 26 1 26 27
M  V30 27 1 27 28
M  V30 28 1 28 29
M  V30 29 1 23 30
M  V30 30 2 30 31
M  V30 31 1 31 32
M  V30 32 2 32 33
M  V30 33 1 33 34
M  V30 34 1 19 35
M  V30 35 2 35 36
M  V30 36 2 12 37
M  V30 37 1 37 8
M  V30 38 1 36 13
M  V30 39 1 35 16
M  V30 40 1 34 20
M  V30 41 1 33 22
M  V30 42 1 29 24
M  V30 43 1 1 38
M  V30 44 1 1 39
M  V30 45 1 1 40
M  V30 46 1 2 41
M  V30 47 1 2 42
M  V30 48 1 3 43
M  V30 49 1 3 44
M  V30 50 1 4 45
M  V30 51 1 4 46
M  V30 52 1 7 47
M  V30 53 1 9 48
M  V30 54 1 11 49
M  V30 55 1 14 50
M  V30 56 1 15 51
M  V30 57 1 17 52
M  V30 58 1 21 53
M  V30 59 1 25 54
M  V30 60 1 25 55
M  V30 61 1 26 56
M  V30 62 1 26 57
M  V30 63 1 27 58
M  V30 64 1 27 59
M  V30 65 1 28 60
M  V30 66 1 28 61
M  V30 67 1 29 62
M  V30 68 1 29 63
M  V30 69 1 31 64
M  V30 70 1 32 65
M  V30 71 1 34 66
M  V30 72 1 37 67
M  V30 END BOND
M  V30 END CTAB
M  END
>  <Dataset>  (175) 
ChEMBL_Kinases

>  <Ligand_Instance>  (175) 
nan

>  <PDB_ID>  (175) 
nan

>  <Standardized_SMILES>  (175) 
CCCCC(=O)Nc1cncc(-c2ccc3[nH]nc(-c4cc5c(N6CCCCC6)nccc5[nH]4)c3n2)c1

>  <Name>  (175) 
nan

>  <Pocket>  (175) 
nan

>  <ATP_Site>  (175) 
nan

>  <Peripheral>  (175) 
nan

>  <Num_H_Atoms_ProtBoundConf>  (175) 
nan

>  <Num_Resolved_Atoms>  (175) 
nan

>  <Num_Not_Resolved_Atoms>  (175) 
nan

$$$$
CHEMBL4790477
     RDKit          3D

  0  0  0  0  0  0  0  0  0  0999 V3000
M  V30 BEGIN CTAB
M  V30 COUNTS 53 57 0 0 0
M  V30 BEGIN ATOM
M  V30 1 O -1.163931 -0.873803 1.537035 0
M  V30 2 C -2.160830 -0.762860 2.315473 0
M  V30 3 N -1.904200 0.169978 3.361780 0
M  V30 4 C -0.571989 0.700103 3.201201 0
M  V30 5 C 0.543513 0.123037 3.775932 0
M  V30 6 C 1.790038 0.655815 3.600165 0
M  V30 7 C 1.874586 1.792862 2.823527 0
M  V30 8 C 3.169363 2.467701 2.556608 0
M  V30 9 N 3.822663 1.975382 1.382993 0
M  V30 10 C 5.070702 2.708620 1.228923 0
M  V30 11 C 5.510513 2.386368 -0.191810 0
M  V30 12 C 4.245320 1.881854 -0.866451 0
M  V30 13 C 3.165556 2.266748 0.144988 0
M  V30 14 C 0.763143 2.399806 2.228675 0
M  V30 15 C -0.485808 1.840159 2.422726 0
M  V30 16 C -3.413505 -1.493961 2.164803 0
M  V30 17 N -4.552781 -1.502393 2.878991 0
M  V30 18 N -5.422381 -2.359590 2.320989 0
M  V30 19 C -4.869575 -2.922992 1.238609 0
M  V30 20 C -5.330907 -3.858013 0.319844 0
M  V30 21 C -4.525832 -4.282719 -0.743256 0
M  V30 22 C -3.249045 -3.750298 -0.865537 0
M  V30 23 C -2.347960 -4.151794 -1.959653 0
M  V30 24 C -2.678739 -4.282886 -3.301390 0
M  V30 25 C -1.700450 -4.671408 -4.192677 0
M  V30 26 C -0.410823 -4.928867 -3.773041 0
M  V30 27 N -0.072846 -4.806912 -2.477175 0
M  V30 28 C -1.029507 -4.427439 -1.608464 0
M  V30 29 F -0.589464 -4.332514 -0.321024 0
M  V30 30 C -2.848726 -2.830044 0.072912 0
M  V30 31 C -3.603392 -2.384460 1.131000 0
M  V30 32 H -2.672786 0.343478 4.076014 0
M  V30 33 H 0.422961 -0.765396 4.374261 0
M  V30 34 H 2.680236 0.225506 4.037830 0
M  V30 35 H 3.026943 3.578089 2.489818 0
M  V30 36 H 3.859170 2.278628 3.409279 0
M  V30 37 H 4.833245 3.810736 1.220627 0
M  V30 38 H 5.836012 2.454153 1.960267 0
M  V30 39 H 6.294967 1.609795 -0.146004 0
M  V30 40 H 5.897498 3.278019 -0.708140 0
M  V30 41 H 4.098984 2.347541 -1.846897 0
M  V30 42 H 4.296064 0.788178 -1.000707 0
M  V30 43 H 2.280179 1.674483 -0.084125 0
M  V30 44 H 3.044915 3.364447 0.028014 0
M  V30 45 H 0.842099 3.291232 1.621776 0
M  V30 46 H -1.335877 2.319495 1.957255 0
M  V30 47 H -6.386212 -2.576053 2.653768 0
M  V30 48 H -6.340232 -4.284268 0.409554 0
M  V30 49 H -4.848098 -5.010456 -1.481756 0
M  V30 50 H -3.717971 -4.057708 -3.528690 0
M  V30 51 H -2.024362 -4.754451 -5.222815 0
M  V30 52 H 0.336216 -5.234085 -4.507087 0
M  V30 53 H -1.860589 -2.440824 -0.051330 0
M  V30 END ATOM
M  V30 BEGIN BOND
M  V30 1 2 1 2
M  V30 2 1 2 3
M  V30 3 1 3 4
M  V30 4 2 4 5
M  V30 5 1 5 6
M  V30 6 2 6 7
M  V30 7 1 7 8
M  V30 8 1 8 9
M  V30 9 1 9 10
M  V30 10 1 10 11
M  V30 11 1 11 12
M  V30 12 1 12 13
M  V30 13 1 7 14
M  V30 14 2 14 15
M  V30 15 1 2 16
M  V30 16 2 16 17
M  V30 17 1 17 18
M  V30 18 1 18 19
M  V30 19 2 19 20
M  V30 20 1 20 21
M  V30 21 2 21 22
M  V30 22 1 22 23
M  V30 23 2 23 24
M  V30 24 1 24 25
M  V30 25 2 25 26
M  V30 26 1 26 27
M  V30 27 2 27 28
M  V30 28 1 28 29
M  V30 29 1 22 30
M  V30 30 2 30 31
M  V30 31 1 15 4
M  V30 32 1 31 16
M  V30 33 1 13 9
M  V30 34 1 31 19
M  V30 35 1 28 23
M  V30 36 1 3 32
M  V30 37 1 5 33
M  V30 38 1 6 34
M  V30 39 1 8 35
M  V30 40 1 8 36
M  V30 41 1 10 37
M  V30 42 1 10 38
M  V30 43 1 11 39
M  V30 44 1 11 40
M  V30 45 1 12 41
M  V30 46 1 12 42
M  V30 47 1 13 43
M  V30 48 1 13 44
M  V30 49 1 14 45
M  V30 50 1 15 46
M  V30 51 1 18 47
M  V30 52 1 20 48
M  V30 53 1 21 49
M  V30 54 1 24 50
M  V30 55 1 25 51
M  V30 56 1 26 52
M  V30 57 1 30 53
M  V30 END BOND
M  V30 END CTAB
M  END
>  <Dataset>  (176) 
ChEMBL_Kinases

>  <Ligand_Instance>  (176) 
nan

>  <PDB_ID>  (176) 
nan

>  <Standardized_SMILES>  (176) 
O=C(Nc1ccc(CN2CCCC2)cc1)c1n[nH]c2ccc(-c3cccnc3F)cc12

>  <Name>  (176) 
nan

>  <Pocket>  (176) 
nan

>  <ATP_Site>  (176) 
nan

>  <Peripheral>  (176) 
nan

>  <Num_H_Atoms_ProtBoundConf>  (176) 
nan

>  <Num_Resolved_Atoms>  (176) 
nan

>  <Num_Not_Resolved_Atoms>  (176) 
nan

$$$$
CHEMBL4788446
     RDKit          3D

  0  0  0  0  0  0  0  0  0  0999 V3000
M  V30 BEGIN CTAB
M  V30 COUNTS 62 67 0 0 0
M  V30 BEGIN ATOM
M  V30 1 C 5.716946 -1.380943 5.990511 0
M  V30 2 C 5.861817 -2.723914 5.328670 0
M  V30 3 C 6.188008 -3.728202 6.411009 0
M  V30 4 C 4.604586 -3.118350 4.571204 0
M  V30 5 C 4.345224 -2.088279 3.522711 0
M  V30 6 O 4.911614 -1.014145 3.146838 0
M  V30 7 N 3.169616 -2.477501 2.826961 0
M  V30 8 C 2.478264 -1.866653 1.744481 0
M  V30 9 C 2.779071 -2.163742 0.411764 0
M  V30 10 N 2.127388 -1.590285 -0.621604 0
M  V30 11 C 1.136579 -0.685974 -0.380138 0
M  V30 12 C 0.769533 -0.329461 0.909760 0
M  V30 13 C -0.292432 0.638283 1.180458 0
M  V30 14 C -0.173059 1.418229 2.335384 0
M  V30 15 C -1.096278 2.365626 2.713912 0
M  V30 16 C -2.213132 2.559032 1.900903 0
M  V30 17 N -3.271009 3.392833 1.999433 0
M  V30 18 N -4.041967 3.155563 0.944034 0
M  V30 19 C -3.501245 2.201380 0.189362 0
M  V30 20 C -4.100865 1.706337 -1.044768 0
M  V30 21 N -3.687693 0.763206 -1.906680 0
M  V30 22 C -4.571385 0.630650 -2.929147 0
M  V30 23 C -4.538512 -0.210712 -4.019247 0
M  V30 24 C -3.472898 -1.162650 -4.268420 0
M  V30 25 C -2.825464 -1.412518 -5.448297 0
M  V30 26 C -1.824479 -2.360386 -5.513910 0
M  V30 27 C -1.444687 -3.087425 -4.388139 0
M  V30 28 C -2.084609 -2.851750 -3.186655 0
M  V30 29 F -1.715692 -3.558488 -2.091598 0
M  V30 30 C -3.078598 -1.896045 -3.166780 0
M  V30 31 C -5.590680 -0.140434 -4.932394 0
M  V30 32 C -6.575802 0.764306 -4.669048 0
M  V30 33 N -6.594645 1.590025 -3.586365 0
M  V30 34 C -5.577558 1.537669 -2.682928 0
M  V30 35 N -5.273066 2.177102 -1.539049 0
M  V30 36 C -2.313493 1.777402 0.761974 0
M  V30 37 C -1.399911 0.831212 0.375787 0
M  V30 38 C 1.462784 -0.940911 1.929990 0
M  V30 39 H 5.290986 -1.504820 7.029778 0
M  V30 40 H 5.005183 -0.729064 5.466229 0
M  V30 41 H 6.703829 -0.898025 6.150016 0
M  V30 42 H 6.679620 -2.674620 4.568842 0
M  V30 43 H 7.279149 -3.888458 6.531108 0
M  V30 44 H 5.667428 -4.687713 6.160498 0
M  V30 45 H 5.744347 -3.434637 7.398752 0
M  V30 46 H 4.695531 -4.123625 4.161028 0
M  V30 47 H 3.780437 -3.149435 5.321888 0
M  V30 48 H 2.506422 -3.282168 2.903480 0
M  V30 49 H 3.564203 -2.880922 0.189201 0
M  V30 50 H 0.625710 -0.236751 -1.206340 0
M  V30 51 H 0.692165 1.272050 2.970164 0
M  V30 52 H -0.943226 2.940688 3.627874 0
M  V30 53 H -3.387219 4.067260 2.787772 0
M  V30 54 H -3.160370 -0.818096 -6.294666 0
M  V30 55 H -1.340111 -2.525785 -6.464317 0
M  V30 56 H -0.668560 -3.826583 -4.426010 0
M  V30 57 H -3.535959 -1.770186 -2.174594 0
M  V30 58 H -5.672183 -0.754953 -5.829350 0
M  V30 59 H -7.449088 0.909974 -5.310649 0
M  V30 60 H -5.910346 2.926550 -1.150088 0
M  V30 61 H -1.495431 0.241783 -0.502142 0
M  V30 62 H 1.234028 -0.714789 2.955251 0
M  V30 END ATOM
M  V30 BEGIN BOND
M  V30 1 1 1 2
M  V30 2 1 2 3
M  V30 3 1 2 4
M  V30 4 1 4 5
M  V30 5 2 5 6
M  V30 6 1 5 7
M  V30 7 1 7 8
M  V30 8 2 8 9
M  V30 9 1 9 10
M  V30 10 2 10 11
M  V30 11 1 11 12
M  V30 12 1 12 13
M  V30 13 2 13 14
M  V30 14 1 14 15
M  V30 15 2 15 16
M  V30 16 1 16 17
M  V30 17 1 17 18
M  V30 18 2 18 19
M  V30 19 1 19 20
M  V30 20 2 20 21
M  V30 21 1 21 22
M  V30 22 2 22 23
M  V30 23 1 23 24
M  V30 24 2 24 25
M  V30 25 1 25 26
M  V30 26 2 26 27
M  V30 27 1 27 28
M  V30 28 1 28 29
M  V30 29 2 28 30
M  V30 30 1 23 31
M  V30 31 2 31 32
M  V30 32 1 32 33
M  V30 33 2 33 34
M  V30 34 1 34 35
M  V30 35 1 19 36
M  V30 36 2 36 37
M  V30 37 2 12 38
M  V30 38 1 38 8
M  V30 39 1 37 13
M  V30 40 1 36 16
M  V30 41 1 35 20
M  V30 42 1 34 22
M  V30 43 1 30 24
M  V30 44 1 1 39
M  V30 45 1 1 40
M  V30 46 1 1 41
M  V30 47 1 2 42
M  V30 48 1 3 43
M  V30 49 1 3 44
M  V30 50 1 3 45
M  V30 51 1 4 46
M  V30 52 1 4 47
M  V30 53 1 7 48
M  V30 54 1 9 49
M  V30 55 1 11 50
M  V30 56 1 14 51
M  V30 57 1 15 52
M  V30 58 1 17 53
M  V30 59 1 25 54
M  V30 60 1 26 55
M  V30 61 1 27 56
M  V30 62 1 30 57
M  V30 63 1 31 58
M  V30 64 1 32 59
M  V30 65 1 35 60
M  V30 66 1 37 61
M  V30 67 1 38 62
M  V30 END BOND
M  V30 END CTAB
M  END
>  <Dataset>  (177) 
ChEMBL_Kinases

>  <Ligand_Instance>  (177) 
nan

>  <PDB_ID>  (177) 
nan

>  <Standardized_SMILES>  (177) 
CC(C)CC(=O)Nc1cncc(-c2ccc3[nH]nc(-c4nc5c(-c6cccc(F)c6)ccnc5[nH]4)c3c2)c1

>  <Name>  (177) 
nan

>  <Pocket>  (177) 
nan

>  <ATP_Site>  (177) 
nan

>  <Peripheral>  (177) 
nan

>  <Num_H_Atoms_ProtBoundConf>  (177) 
nan

>  <Num_Resolved_Atoms>  (177) 
nan

>  <Num_Not_Resolved_Atoms>  (177) 
nan

$$$$
CHEMBL4129087
     RDKit          3D

  0  0  0  0  0  0  0  0  0  0999 V3000
M  V30 BEGIN CTAB
M  V30 COUNTS 52 55 0 0 0
M  V30 BEGIN ATOM
M  V30 1 C 2.103485 -0.390497 5.868921 0
M  V30 2 N 2.987579 0.516058 5.148915 0
M  V30 3 C 2.410361 1.805450 4.935257 0
M  V30 4 C 3.412895 -0.163488 3.943442 0
M  V30 5 C 4.340818 0.680002 3.105145 0
M  V30 6 N 4.701207 -0.095708 1.934159 0
M  V30 7 C 3.772866 -0.566352 0.965935 0
M  V30 8 C 4.178670 -1.320469 -0.140904 0
M  V30 9 N 3.297422 -1.761550 -1.055157 0
M  V30 10 C 1.983230 -1.497692 -0.947557 0
M  V30 11 C 1.550161 -0.757547 0.130483 0
M  V30 12 C 0.152454 -0.407220 0.356249 0
M  V30 13 C -0.173149 0.338442 1.468889 0
M  V30 14 C -1.456355 0.730383 1.788239 0
M  V30 15 C -2.466337 0.328029 0.904759 0
M  V30 16 N -3.799994 0.573995 0.978935 0
M  V30 17 C -4.368393 -0.016882 -0.100126 0
M  V30 18 C -3.402150 -0.637183 -0.859638 0
M  V30 19 C -3.511848 -1.402738 -2.107963 0
M  V30 20 C -3.414318 -0.769080 -3.346074 0
M  V30 21 C -3.522025 -1.519922 -4.519925 0
M  V30 22 C -3.726983 -2.902289 -4.442250 0
M  V30 23 N -3.839802 -3.687992 -5.643718 0
M  V30 24 C -3.820156 -3.506508 -3.198903 0
M  V30 25 C -3.714864 -2.771848 -2.019243 0
M  V30 26 F -3.803196 -3.343638 -0.786928 0
M  V30 27 C -2.184079 -0.422190 -0.225502 0
M  V30 28 C -0.876398 -0.778558 -0.482181 0
M  V30 29 N 2.451801 -0.328627 1.030178 0
M  V30 30 H 1.047836 -0.249621 5.593881 0
M  V30 31 H 2.478246 -1.417711 5.672878 0
M  V30 32 H 2.304102 -0.209235 6.961647 0
M  V30 33 H 2.956538 2.638537 5.422703 0
M  V30 34 H 2.196464 1.953228 3.870109 0
M  V30 35 H 1.396046 1.802209 5.432327 0
M  V30 36 H 2.484047 -0.413641 3.394390 0
M  V30 37 H 3.929082 -1.091262 4.257029 0
M  V30 38 H 3.842154 1.592110 2.720732 0
M  V30 39 H 5.245198 0.950285 3.667007 0
M  V30 40 H 5.705750 -0.335951 1.772260 0
M  V30 41 H 5.231865 -1.544112 -0.246508 0
M  V30 42 H 1.284746 -1.849633 -1.675914 0
M  V30 43 H 0.575459 0.676540 2.187332 0
M  V30 44 H -1.726147 1.309579 2.648486 0
M  V30 45 H -4.330739 1.111133 1.709628 0
M  V30 46 H -5.429041 -0.029124 -0.373067 0
M  V30 47 H -3.254223 0.311609 -3.365175 0
M  V30 48 H -3.444772 -1.017581 -5.472479 0
M  V30 49 H -4.641641 -4.283349 -5.987359 0
M  V30 50 H -3.108243 -3.784926 -6.381758 0
M  V30 51 H -3.979007 -4.578153 -3.145653 0
M  V30 52 H -0.662283 -1.361858 -1.362243 0
M  V30 END ATOM
M  V30 BEGIN BOND
M  V30 1 1 1 2
M  V30 2 1 2 3
M  V30 3 1 2 4
M  V30 4 1 4 5
M  V30 5 1 5 6
M  V30 6 1 6 7
M  V30 7 2 7 8
M  V30 8 1 8 9
M  V30 9 2 9 10
M  V30 10 1 10 11
M  V30 11 1 11 12
M  V30 12 2 12 13
M  V30 13 1 13 14
M  V30 14 2 14 15
M  V30 15 1 15 16
M  V30 16 1 16 17
M  V30 17 2 17 18
M  V30 18 1 18 19
M  V30 19 2 19 20
M  V30 20 1 20 21
M  V30 21 2 21 22
M  V30 22 1 22 23
M  V30 23 1 22 24
M  V30 24 2 24 25
M  V30 25 1 25 26
M  V30 26 1 18 27
M  V30 27 2 27 28
M  V30 28 2 11 29
M  V30 29 1 29 7
M  V30 30 1 28 12
M  V30 31 1 27 15
M  V30 32 1 25 19
M  V30 33 1 1 30
M  V30 34 1 1 31
M  V30 35 1 1 32
M  V30 36 1 3 33
M  V30 37 1 3 34
M  V30 38 1 3 35
M  V30 39 1 4 36
M  V30 40 1 4 37
M  V30 41 1 5 38
M  V30 42 1 5 39
M  V30 43 1 6 40
M  V30 44 1 8 41
M  V30 45 1 10 42
M  V30 46 1 13 43
M  V30 47 1 14 44
M  V30 48 1 16 45
M  V30 49 1 17 46
M  V30 50 1 20 47
M  V30 51 1 21 48
M  V30 52 1 23 49
M  V30 53 1 23 50
M  V30 54 1 24 51
M  V30 55 1 28 52
M  V30 END BOND
M  V30 END CTAB
M  END
>  <Dataset>  (178) 
ChEMBL_Kinases

>  <Ligand_Instance>  (178) 
nan

>  <PDB_ID>  (178) 
nan

>  <Standardized_SMILES>  (178) 
CN(C)CCNc1cncc(-c2ccc3[nH]cc(-c4ccc(N)cc4F)c3c2)n1

>  <Name>  (178) 
nan

>  <Pocket>  (178) 
nan

>  <ATP_Site>  (178) 
nan

>  <Peripheral>  (178) 
nan

>  <Num_H_Atoms_ProtBoundConf>  (178) 
nan

>  <Num_Resolved_Atoms>  (178) 
nan

>  <Num_Not_Resolved_Atoms>  (178) 
nan

$$$$
CHEMBL4788404
     RDKit          3D

  0  0  0  0  0  0  0  0  0  0999 V3000
M  V30 BEGIN CTAB
M  V30 COUNTS 68 73 0 0 0
M  V30 BEGIN ATOM
M  V30 1 C 6.098056 -5.256179 5.611039 0
M  V30 2 C 6.436008 -4.699165 4.243257 0
M  V30 3 N 6.212684 -3.287797 4.277534 0
M  V30 4 C 6.493007 -2.604470 3.029942 0
M  V30 5 C 6.222392 -1.138734 3.218128 0
M  V30 6 C 7.283074 -0.348260 3.651953 0
M  V30 7 N 7.071212 0.970489 3.830852 0
M  V30 8 C 5.836817 1.471752 3.581580 0
M  V30 9 C 4.757076 0.729059 3.151126 0
M  V30 10 C 3.484467 1.409646 2.924582 0
M  V30 11 C 3.261700 2.487206 3.758108 0
M  V30 12 N 2.109459 3.181735 3.624934 0
M  V30 13 C 1.198373 2.831260 2.700074 0
M  V30 14 N -0.002807 3.312926 2.340605 0
M  V30 15 N -0.517430 2.608953 1.357321 0
M  V30 16 C 0.302659 1.601068 0.984153 0
M  V30 17 C 0.043770 0.639668 -0.063030 0
M  V30 18 C -1.134843 0.675075 -0.812198 0
M  V30 19 C -1.165058 -0.329911 -1.747102 0
M  V30 20 C -2.062129 -0.738218 -2.710250 0
M  V30 21 C -3.312739 -0.017462 -2.897655 0
M  V30 22 C -3.455721 1.347490 -3.000087 0
M  V30 23 C -4.662047 1.984466 -3.171032 0
M  V30 24 F -4.692238 3.332004 -3.260045 0
M  V30 25 C -5.821962 1.241775 -3.249327 0
M  V30 26 C -5.759136 -0.129872 -3.155463 0
M  V30 27 C -6.986511 -0.976340 -3.234031 0
M  V30 28 N -7.557002 -1.183978 -1.905083 0
M  V30 29 S -8.962520 -2.168954 -2.112590 0
M  V30 30 C -10.177261 -1.388367 -3.118533 0
M  V30 31 O -9.513647 -2.580819 -0.758938 0
M  V30 32 O -8.472752 -3.438451 -2.789630 0
M  V30 33 C -4.517056 -0.725999 -2.983112 0
M  V30 34 C -1.778486 -1.823425 -3.505784 0
M  V30 35 N -0.614036 -2.478205 -3.329366 0
M  V30 36 C 0.274824 -2.096831 -2.396415 0
M  V30 37 C -0.000879 -1.014108 -1.597619 0
M  V30 38 N 0.663860 -0.408666 -0.605937 0
M  V30 39 C 1.362374 1.767588 1.840117 0
M  V30 40 C 2.536246 1.067598 1.982722 0
M  V30 41 C 4.970946 -0.617490 2.967747 0
M  V30 42 H 5.036198 -5.001131 5.893888 0
M  V30 43 H 6.128843 -6.365057 5.654158 0
M  V30 44 H 6.743301 -4.862000 6.409831 0
M  V30 45 H 7.551160 -4.843461 4.137141 0
M  V30 46 H 5.863126 -5.255580 3.488641 0
M  V30 47 H 6.818388 -2.894282 5.019234 0
M  V30 48 H 7.552093 -2.744954 2.732263 0
M  V30 49 H 5.793963 -3.019257 2.271342 0
M  V30 50 H 8.259840 -0.787563 3.841677 0
M  V30 51 H 5.799264 2.547669 3.764618 0
M  V30 52 H 3.873014 2.903233 4.543626 0
M  V30 53 H -0.513246 4.131043 2.746567 0
M  V30 54 H -1.960290 1.368613 -0.724007 0
M  V30 55 H -2.571249 1.945934 -2.947097 0
M  V30 56 H -6.761562 1.734819 -3.382333 0
M  V30 57 H -6.676956 -1.967346 -3.619113 0
M  V30 58 H -7.702636 -0.538877 -3.926800 0
M  V30 59 H -6.900319 -1.708636 -1.289933 0
M  V30 60 H -10.043759 -1.687755 -4.168271 0
M  V30 61 H -11.218253 -1.689160 -2.854659 0
M  V30 62 H -10.063554 -0.290861 -2.970813 0
M  V30 63 H -4.519642 -1.817623 -2.913847 0
M  V30 64 H -2.458351 -2.176550 -4.275025 0
M  V30 65 H 1.199904 -2.623378 -2.262106 0
M  V30 66 H 1.591450 -0.749862 -0.301522 0
M  V30 67 H 2.756291 0.224360 1.360563 0
M  V30 68 H 4.153015 -1.221259 2.634196 0
M  V30 END ATOM
M  V30 BEGIN BOND
M  V30 1 1 1 2
M  V30 2 1 2 3
M  V30 3 1 3 4
M  V30 4 1 4 5
M  V30 5 2 5 6
M  V30 6 1 6 7
M  V30 7 2 7 8
M  V30 8 1 8 9
M  V30 9 1 9 10
M  V30 10 2 10 11
M  V30 11 1 11 12
M  V30 12 2 12 13
M  V30 13 1 13 14
M  V30 14 1 14 15
M  V30 15 2 15 16
M  V30 16 1 16 17
M  V30 17 2 17 18
M  V30 18 1 18 19
M  V30 19 2 19 20
M  V30 20 1 20 21
M  V30 21 2 21 22
M  V30 22 1 22 23
M  V30 23 1 23 24
M  V30 24 2 23 25
M  V30 25 1 25 26
M  V30 26 1 26 27
M  V30 27 1 27 28
M  V30 28 1 28 29
M  V30 29 1 29 30
M  V30 30 2 29 31
M  V30 31 2 29 32
M  V30 32 2 26 33
M  V30 33 1 20 34
M  V30 34 2 34 35
M  V30 35 1 35 36
M  V30 36 2 36 37
M  V30 37 1 37 38
M  V30 38 1 16 39
M  V30 39 2 39 40
M  V30 40 2 9 41
M  V30 41 1 41 5
M  V30 42 1 40 10
M  V30 43 1 39 13
M  V30 44 1 38 17
M  V30 45 1 37 19
M  V30 46 1 33 21
M  V30 47 1 1 42
M  V30 48 1 1 43
M  V30 49 1 1 44
M  V30 50 1 2 45
M  V30 51 1 2 46
M  V30 52 1 3 47
M  V30 53 1 4 48
M  V30 54 1 4 49
M  V30 55 1 6 50
M  V30 56 1 8 51
M  V30 57 1 11 52
M  V30 58 1 14 53
M  V30 59 1 18 54
M  V30 60 1 22 55
M  V30 61 1 25 56
M  V30 62 1 27 57
M  V30 63 1 27 58
M  V30 64 1 28 59
M  V30 65 1 30 60
M  V30 66 1 30 61
M  V30 67 1 30 62
M  V30 68 1 33 63
M  V30 69 1 34 64
M  V30 70 1 36 65
M  V30 71 1 38 66
M  V30 72 1 40 67
M  V30 73 1 41 68
M  V30 END BOND
M  V30 END CTAB
M  END
>  <Dataset>  (179) 
ChEMBL_Kinases

>  <Ligand_Instance>  (179) 
nan

>  <PDB_ID>  (179) 
nan

>  <Standardized_SMILES>  (179) 
CCNCc1cncc(-c2cnc3[nH]nc(-c4cc5c(-c6cc(F)cc(CNS(C)(=O)=O)c6)cncc5[nH]4)c3c2)c1

>  <Name>  (179) 
nan

>  <Pocket>  (179) 
nan

>  <ATP_Site>  (179) 
nan

>  <Peripheral>  (179) 
nan

>  <Num_H_Atoms_ProtBoundConf>  (179) 
nan

>  <Num_Resolved_Atoms>  (179) 
nan

>  <Num_Not_Resolved_Atoms>  (179) 
nan

$$$$
CHEMBL4788401
     RDKit          3D

  0  0  0  0  0  0  0  0  0  0999 V3000
M  V30 BEGIN CTAB
M  V30 COUNTS 67 70 0 0 0
M  V30 BEGIN ATOM
M  V30 1 C 6.461710 -0.035021 8.297888 0
M  V30 2 C 6.217428 -0.689629 7.172378 0
M  V30 3 C 5.333797 0.096216 6.338766 0
M  V30 4 O 5.085103 1.168070 6.978974 0
M  V30 5 N 4.920522 -0.389748 5.070739 0
M  V30 6 C 4.067084 0.220510 4.111456 0
M  V30 7 C 4.568894 1.044316 3.124152 0
M  V30 8 C 3.734523 1.632586 2.198011 0
M  V30 9 C 2.362393 1.399087 2.249865 0
M  V30 10 O 1.373104 1.876741 1.440048 0
M  V30 11 C 1.487598 2.726256 0.345568 0 CFG=2
M  V30 12 C 0.684990 3.987669 0.558646 0
M  V30 13 C -0.278311 4.226831 -0.585694 0
M  V30 14 C -1.217566 3.102521 -0.846006 0
M  V30 15 C -0.523036 1.794467 -0.623998 0 CFG=1
M  V30 16 N -1.093934 0.715859 -1.434333 0
M  V30 17 C -2.478724 0.426233 -1.199160 0
M  V30 18 N -3.311419 0.965205 -0.383860 0
M  V30 19 C -4.553659 0.505670 -0.359138 0
M  V30 20 C -4.965648 -0.519040 -1.173584 0
M  V30 21 S -6.392272 -1.444859 -1.518492 0
M  V30 22 C -6.128267 -2.697504 -2.801911 0
M  V30 23 C -5.198190 -3.766023 -2.393927 0
M  V30 24 N -5.421364 -4.960348 -1.771654 0
M  V30 25 C -4.240038 -5.555259 -1.632014 0
M  V30 26 C -3.284387 -4.746303 -2.159575 0
M  V30 27 C -1.838784 -4.996703 -2.225815 0
M  V30 28 C -1.511344 -5.725800 -3.527631 0
M  V30 29 C -1.409596 -5.900270 -1.094138 0
M  V30 30 C -1.045855 -3.696997 -2.240016 0
M  V30 31 O -3.910082 -3.687900 -2.602493 0
M  V30 32 S -3.328531 -0.839876 -2.079935 0
M  V30 33 C 0.942477 1.958173 -0.870841 0
M  V30 34 C 1.874485 0.571389 3.244695 0
M  V30 35 C 2.701765 -0.031721 4.188978 0
M  V30 36 H 7.065981 -0.274443 9.173810 0
M  V30 37 H 6.224611 0.895476 8.813185 0
M  V30 38 H 6.757735 -1.630506 7.210094 0
M  V30 39 H 5.279105 -1.313656 4.787838 0
M  V30 40 H 5.614371 1.254749 3.042230 0
M  V30 41 H 4.029530 2.288972 1.392101 0
M  V30 42 H 2.546507 2.995843 0.184758 0
M  V30 43 H 0.176739 4.022814 1.549998 0
M  V30 44 H 1.387949 4.842610 0.570302 0
M  V30 45 H 0.294255 4.484852 -1.484193 0
M  V30 46 H -0.877144 5.123354 -0.297612 0
M  V30 47 H -1.514443 3.117106 -1.935512 0
M  V30 48 H -2.162944 3.192502 -0.271007 0
M  V30 49 H -0.617783 1.489491 0.460393 0
M  V30 50 H -0.539284 0.185604 -2.140517 0
M  V30 51 H -5.364584 0.860657 0.274490 0
M  V30 52 H -7.112265 -3.117826 -3.044553 0
M  V30 53 H -5.756049 -2.196628 -3.725309 0
M  V30 54 H -4.074526 -6.532871 -1.168421 0
M  V30 55 H -2.032379 -5.277085 -4.381947 0
M  V30 56 H -1.850652 -6.791165 -3.436347 0
M  V30 57 H -0.401051 -5.704436 -3.678218 0
M  V30 58 H -0.318782 -5.764021 -0.860274 0
M  V30 59 H -1.662279 -6.943088 -1.299090 0
M  V30 60 H -1.947529 -5.583477 -0.183819 0
M  V30 61 H -1.541167 -3.063550 -2.997642 0
M  V30 62 H -1.016175 -3.193966 -1.271152 0
M  V30 63 H -0.015199 -3.855961 -2.599060 0
M  V30 64 H 1.094402 2.613532 -1.743320 0
M  V30 65 H 1.483858 1.013337 -1.002823 0
M  V30 66 H 0.824847 0.307641 3.395577 0
M  V30 67 H 2.350237 -0.680879 4.974865 0
M  V30 END ATOM
M  V30 BEGIN BOND
M  V30 1 2 1 2
M  V30 2 1 2 3
M  V30 3 2 3 4
M  V30 4 1 3 5
M  V30 5 1 5 6
M  V30 6 2 6 7
M  V30 7 1 7 8
M  V30 8 2 8 9
M  V30 9 1 9 10
M  V30 10 1 10 11
M  V30 11 1 11 12
M  V30 12 1 12 13
M  V30 13 1 13 14
M  V30 14 1 14 15
M  V30 15 1 15 16
M  V30 16 1 16 17
M  V30 17 2 17 18
M  V30 18 1 18 19
M  V30 19 2 19 20
M  V30 20 1 20 21
M  V30 21 1 21 22
M  V30 22 1 22 23
M  V30 23 2 23 24
M  V30 24 1 24 25
M  V30 25 2 25 26
M  V30 26 1 26 27
M  V30 27 1 27 28
M  V30 28 1 27 29
M  V30 29 1 27 30
M  V30 30 1 26 31
M  V30 31 1 20 32
M  V30 32 1 15 33
M  V30 33 1 9 34
M  V30 34 2 34 35
M  V30 35 1 35 6
M  V30 36 1 33 11
M  V30 37 1 32 17
M  V30 38 1 31 23
M  V30 39 1 1 36
M  V30 40 1 1 37
M  V30 41 1 2 38
M  V30 42 1 5 39
M  V30 43 1 7 40
M  V30 44 1 8 41
M  V30 45 1 11 42 CFG=3
M  V30 46 1 12 43
M  V30 47 1 12 44
M  V30 48 1 13 45
M  V30 49 1 13 46
M  V30 50 1 14 47
M  V30 51 1 14 48
M  V30 52 1 15 49 CFG=1
M  V30 53 1 16 50
M  V30 54 1 19 51
M  V30 55 1 22 52
M  V30 56 1 22 53
M  V30 57 1 25 54
M  V30 58 1 28 55
M  V30 59 1 28 56
M  V30 60 1 28 57
M  V30 61 1 29 58
M  V30 62 1 29 59
M  V30 63 1 29 60
M  V30 64 1 30 61
M  V30 65 1 30 62
M  V30 66 1 30 63
M  V30 67 1 33 64
M  V30 68 1 33 65
M  V30 69 1 34 66
M  V30 70 1 35 67
M  V30 END BOND
M  V30 END CTAB
M  END
>  <Dataset>  (180) 
ChEMBL_Kinases

>  <Ligand_Instance>  (180) 
nan

>  <PDB_ID>  (180) 
nan

>  <Standardized_SMILES>  (180) 
C=CC(=O)Nc1ccc(O[C@@H]2CCC[C@@H](Nc3ncc(SCc4ncc(C(C)(C)C)o4)s3)C2)cc1

>  <Name>  (180) 
nan

>  <Pocket>  (180) 
nan

>  <ATP_Site>  (180) 
nan

>  <Peripheral>  (180) 
nan

>  <Num_H_Atoms_ProtBoundConf>  (180) 
nan

>  <Num_Resolved_Atoms>  (180) 
nan

>  <Num_Not_Resolved_Atoms>  (180) 
nan

$$$$
CHEMBL4162262
     RDKit          3D

  0  0  0  0  0  0  0  0  0  0999 V3000
M  V30 BEGIN CTAB
M  V30 COUNTS 68 71 0 0 0
M  V30 BEGIN ATOM
M  V30 1 C -2.420541 -1.405826 3.501665 0
M  V30 2 C -1.333772 -1.301031 2.467146 0
M  V30 3 C -0.030696 -1.909709 2.969320 0 CFG=2
M  V30 4 C 0.347350 -1.128363 4.204284 0
M  V30 5 O 0.467449 -1.490009 5.424923 0
M  V30 6 N 0.628237 0.273655 4.004653 0
M  V30 7 C 0.427197 1.326904 5.011372 0
M  V30 8 C 1.149480 0.692039 2.724916 0
M  V30 9 C 1.463797 1.991995 2.384691 0
M  V30 10 N 1.938252 2.220548 1.155159 0
M  V30 11 C 2.134866 1.273866 0.215058 0
M  V30 12 N 2.645998 1.535796 -1.086049 0
M  V30 13 C 1.706015 1.928776 -2.081294 0
M  V30 14 C 0.375017 2.080181 -1.705355 0
M  V30 15 C -0.589696 2.466463 -2.639658 0
M  V30 16 C -0.224770 2.702341 -3.953524 0
M  V30 17 S -1.518350 3.184980 -5.025261 0
M  V30 18 O -2.534540 4.049859 -4.337076 0
M  V30 19 O -0.932229 3.974433 -6.179301 0
M  V30 20 N -2.268256 1.779698 -5.693858 0
M  V30 21 C -2.845100 0.978381 -4.605036 0
M  V30 22 C -3.483066 -0.225977 -5.231866 0
M  V30 23 C -2.417432 -0.999049 -5.967159 0
M  V30 24 C -4.262467 -1.052831 -4.245059 0
M  V30 25 C 1.096714 2.549995 -4.319148 0
M  V30 26 C 2.034939 2.171069 -3.396279 0
M  V30 27 N 1.833226 0.003026 0.532003 0
M  V30 28 C 1.356343 -0.267797 1.751914 0
M  V30 29 N 1.056603 -1.630701 2.029088 0
M  V30 30 C 1.707564 -2.767550 1.486847 0
M  V30 31 C 0.831978 -3.669794 0.643245 0
M  V30 32 C 1.269138 -3.435347 -0.790098 0
M  V30 33 C 2.639159 -2.793246 -0.736950 0
M  V30 34 C 2.963292 -2.547418 0.718645 0
M  V30 35 H -3.434955 -1.381273 3.022638 0
M  V30 36 H -2.361713 -2.383387 4.062825 0
M  V30 37 H -2.407783 -0.592281 4.248514 0
M  V30 38 H -1.198612 -0.192635 2.293622 0
M  V30 39 H -1.644442 -1.690883 1.481028 0
M  V30 40 H -0.158538 -2.962801 3.195533 0
M  V30 41 H -0.525174 1.856671 4.819023 0
M  V30 42 H 1.299611 1.963567 5.155237 0
M  V30 43 H 0.282239 0.762962 5.980358 0
M  V30 44 H 1.308182 2.745926 3.130014 0
M  V30 45 H 3.660746 1.465726 -1.384166 0
M  V30 46 H 0.024239 1.911127 -0.694142 0
M  V30 47 H -1.631951 2.575153 -2.300975 0
M  V30 48 H -3.095262 2.096809 -6.283724 0
M  V30 49 H -1.958672 0.725192 -3.960987 0
M  V30 50 H -3.549651 1.621894 -4.054825 0
M  V30 51 H -4.189467 0.165820 -6.007402 0
M  V30 52 H -1.681002 -1.448871 -5.259107 0
M  V30 53 H -2.837163 -1.805651 -6.584840 0
M  V30 54 H -1.845035 -0.234082 -6.551278 0
M  V30 55 H -5.204654 -1.395446 -4.728694 0
M  V30 56 H -3.675351 -1.944361 -3.962217 0
M  V30 57 H -4.577225 -0.483393 -3.341961 0
M  V30 58 H 1.301576 2.749047 -5.348440 0
M  V30 59 H 3.067030 2.056831 -3.701792 0
M  V30 60 H 2.001302 -3.412348 2.375441 0
M  V30 61 H 1.029898 -4.743341 0.840642 0
M  V30 62 H -0.249458 -3.502961 0.796255 0
M  V30 63 H 0.515280 -2.756273 -1.232735 0
M  V30 64 H 1.273003 -4.365804 -1.386127 0
M  V30 65 H 3.365855 -3.475881 -1.235522 0
M  V30 66 H 2.628699 -1.883653 -1.359538 0
M  V30 67 H 3.487404 -1.595743 0.913610 0
M  V30 68 H 3.748410 -3.330151 0.966623 0
M  V30 END ATOM
M  V30 BEGIN BOND
M  V30 1 1 1 2
M  V30 2 1 2 3
M  V30 3 1 3 4
M  V30 4 2 4 5
M  V30 5 1 4 6
M  V30 6 1 6 7
M  V30 7 1 6 8
M  V30 8 2 8 9
M  V30 9 1 9 10
M  V30 10 2 10 11
M  V30 11 1 11 12
M  V30 12 1 12 13
M  V30 13 2 13 14
M  V30 14 1 14 15
M  V30 15 2 15 16
M  V30 16 1 16 17
M  V30 17 2 17 18
M  V30 18 2 17 19
M  V30 19 1 17 20
M  V30 20 1 20 21
M  V30 21 1 21 22
M  V30 22 1 22 23
M  V30 23 1 22 24
M  V30 24 1 16 25
M  V30 25 2 25 26
M  V30 26 1 11 27
M  V30 27 2 27 28
M  V30 28 1 28 29
M  V30 29 1 29 30
M  V30 30 1 30 31
M  V30 31 1 31 32
M  V30 32 1 32 33
M  V30 33 1 33 34
M  V30 34 1 29 3
M  V30 35 1 34 30
M  V30 36 1 28 8
M  V30 37 1 26 13
M  V30 38 1 1 35
M  V30 39 1 1 36
M  V30 40 1 1 37
M  V30 41 1 2 38
M  V30 42 1 2 39
M  V30 43 1 3 40 CFG=1
M  V30 44 1 7 41
M  V30 45 1 7 42
M  V30 46 1 7 43
M  V30 47 1 9 44
M  V30 48 1 12 45
M  V30 49 1 14 46
M  V30 50 1 15 47
M  V30 51 1 20 48
M  V30 52 1 21 49
M  V30 53 1 21 50
M  V30 54 1 22 51
M  V30 55 1 23 52
M  V30 56 1 23 53
M  V30 57 1 23 54
M  V30 58 1 24 55
M  V30 59 1 24 56
M  V30 60 1 24 57
M  V30 61 1 25 58
M  V30 62 1 26 59
M  V30 63 1 30 60
M  V30 64 1 31 61
M  V30 65 1 31 62
M  V30 66 1 32 63
M  V30 67 1 32 64
M  V30 68 1 33 65
M  V30 69 1 33 66
M  V30 70 1 34 67
M  V30 71 1 34 68
M  V30 END BOND
M  V30 END CTAB
M  END
>  <Dataset>  (181) 
ChEMBL_Kinases

>  <Ligand_Instance>  (181) 
nan

>  <PDB_ID>  (181) 
nan

>  <Standardized_SMILES>  (181) 
CC[C@@H]1C(=O)N(C)c2cnc(Nc3ccc(S(=O)(=O)NCC(C)C)cc3)nc2N1C1CCCC1

>  <Name>  (181) 
nan

>  <Pocket>  (181) 
nan

>  <ATP_Site>  (181) 
nan

>  <Peripheral>  (181) 
nan

>  <Num_H_Atoms_ProtBoundConf>  (181) 
nan

>  <Num_Resolved_Atoms>  (181) 
nan

>  <Num_Not_Resolved_Atoms>  (181) 
nan

$$$$
CHEMBL3354515
     RDKit          3D

  0  0  0  0  0  0  0  0  0  0999 V3000
M  V30 BEGIN CTAB
M  V30 COUNTS 46 49 0 0 0
M  V30 BEGIN ATOM
M  V30 1 O 0.694362 0.218763 1.660830 0
M  V30 2 C -0.037432 -0.552563 1.007036 0
M  V30 3 N 0.326450 -0.872805 -0.301663 0
M  V30 4 C 1.412640 -0.502080 -1.128311 0
M  V30 5 C 1.316905 -1.107943 -2.386576 0
M  V30 6 N 2.223329 -0.914082 -3.344606 0
M  V30 7 C 3.281529 -0.126097 -3.158690 0
M  V30 8 C 3.414851 0.489645 -1.935879 0
M  V30 9 C 2.495697 0.299572 -0.949283 0
M  V30 10 O 2.568619 0.870429 0.263131 0
M  V30 11 C 3.559513 1.730150 0.720469 0
M  V30 12 C 2.956059 3.084897 0.993343 0
M  V30 13 C 2.675023 3.336185 2.434587 0
M  V30 14 O 3.784865 3.000804 3.241300 0
M  V30 15 C 3.775543 1.586730 3.220033 0
M  V30 16 C 4.326490 1.185911 1.898373 0
M  V30 17 C -1.202872 -1.022184 1.727298 0
M  V30 18 C -1.452255 -0.617501 3.053781 0
M  V30 19 S -3.057343 -1.524736 3.441495 0
M  V30 20 C -3.052573 -2.270643 1.703094 0
M  V30 21 C -4.168368 -3.206839 1.263692 0
M  V30 22 C -4.029451 -3.665363 -0.016142 0
M  V30 23 F -2.970204 -3.292191 -0.795487 0
M  V30 24 C -5.024181 -4.517669 -0.448873 0
M  V30 25 C -6.072892 -4.859991 0.385716 0
M  V30 26 C -6.150819 -4.357555 1.672707 0
M  V30 27 C -5.169237 -3.492181 2.156189 0
M  V30 28 F -5.196081 -2.971275 3.406721 0
M  V30 29 N -2.121450 -1.835296 1.267117 0
M  V30 30 H -0.438661 -1.530469 -0.639916 0
M  V30 31 H 0.529423 -1.786946 -2.739987 0
M  V30 32 H 4.003719 0.011638 -3.960818 0
M  V30 33 H 4.274613 1.098993 -1.856527 0
M  V30 34 H 4.307187 1.887835 -0.074128 0
M  V30 35 H 3.575777 3.918464 0.602426 0
M  V30 36 H 1.970420 3.170426 0.456717 0
M  V30 37 H 2.406477 4.398900 2.559533 0
M  V30 38 H 1.836602 2.728153 2.840982 0
M  V30 39 H 2.759255 1.175218 3.353272 0
M  V30 40 H 4.481701 1.247756 3.998617 0
M  V30 41 H 4.286616 0.064695 1.793294 0
M  V30 42 H 5.404034 1.448830 1.859549 0
M  V30 43 H -0.886332 0.077728 3.788152 0
M  V30 44 H -4.914958 -4.889069 -1.480405 0
M  V30 45 H -6.840118 -5.535848 0.009071 0
M  V30 46 H -6.974177 -4.626865 2.326667 0
M  V30 END ATOM
M  V30 BEGIN BOND
M  V30 1 2 1 2
M  V30 2 1 2 3
M  V30 3 1 3 4
M  V30 4 2 4 5
M  V30 5 1 5 6
M  V30 6 2 6 7
M  V30 7 1 7 8
M  V30 8 2 8 9
M  V30 9 1 9 10
M  V30 10 1 10 11
M  V30 11 1 11 12
M  V30 12 1 12 13
M  V30 13 1 13 14
M  V30 14 1 14 15
M  V30 15 1 15 16
M  V30 16 1 2 17
M  V30 17 2 17 18
M  V30 18 1 18 19
M  V30 19 1 19 20
M  V30 20 1 20 21
M  V30 21 2 21 22
M  V30 22 1 22 23
M  V30 23 1 22 24
M  V30 24 2 24 25
M  V30 25 1 25 26
M  V30 26 2 26 27
M  V30 27 1 27 28
M  V30 28 2 20 29
M  V30 29 1 9 4
M  V30 30 1 16 11
M  V30 31 1 29 17
M  V30 32 1 27 21
M  V30 33 1 3 30
M  V30 34 1 5 31
M  V30 35 1 7 32
M  V30 36 1 8 33
M  V30 37 1 11 34
M  V30 38 1 12 35
M  V30 39 1 12 36
M  V30 40 1 13 37
M  V30 41 1 13 38
M  V30 42 1 15 39
M  V30 43 1 15 40
M  V30 44 1 16 41
M  V30 45 1 16 42
M  V30 46 1 18 43
M  V30 47 1 24 44
M  V30 48 1 25 45
M  V30 49 1 26 46
M  V30 END BOND
M  V30 END CTAB
M  END
>  <Dataset>  (182) 
ChEMBL_Kinases

>  <Ligand_Instance>  (182) 
nan

>  <PDB_ID>  (182) 
nan

>  <Standardized_SMILES>  (182) 
O=C(Nc1cnccc1OC1CCOCC1)c1csc(-c2c(F)cccc2F)n1

>  <Name>  (182) 
nan

>  <Pocket>  (182) 
nan

>  <ATP_Site>  (182) 
nan

>  <Peripheral>  (182) 
nan

>  <Num_H_Atoms_ProtBoundConf>  (182) 
nan

>  <Num_Resolved_Atoms>  (182) 
nan

>  <Num_Not_Resolved_Atoms>  (182) 
nan

$$$$
CHEMBL3354516
     RDKit          3D

  0  0  0  0  0  0  0  0  0  0999 V3000
M  V30 BEGIN CTAB
M  V30 COUNTS 49 52 0 0 0
M  V30 BEGIN ATOM
M  V30 1 O 0.272339 -0.797862 -2.378378 0
M  V30 2 C -0.038290 -1.563467 -1.431893 0
M  V30 3 N 1.094025 -2.029237 -0.715347 0
M  V30 4 C 2.286161 -1.468232 -1.306150 0
M  V30 5 C 2.900531 -2.177931 -2.322167 0
M  V30 6 N 4.016868 -1.721838 -2.924728 0
M  V30 7 C 4.544213 -0.540423 -2.521226 0
M  V30 8 C 3.964755 0.210891 -1.504568 0
M  V30 9 C 2.813345 -0.254353 -0.879388 0
M  V30 10 O 2.162267 0.441609 0.157341 0
M  V30 11 C 2.666364 1.686405 0.625333 0
M  V30 12 C 1.768056 2.170287 1.716354 0
M  V30 13 C 2.188763 3.500863 2.314765 0
M  V30 14 C 1.230538 3.724514 3.491600 0
M  V30 15 O -0.071610 3.776872 3.037628 0
M  V30 16 C -0.499361 2.614187 2.433942 0
M  V30 17 C 0.356014 2.347765 1.198757 0
M  V30 18 C -1.419271 -1.915989 -1.127947 0
M  V30 19 C -2.484904 -1.412415 -1.885873 0
M  V30 20 S -3.944676 -2.208026 -1.023253 0
M  V30 21 C -2.846379 -3.045142 0.164979 0
M  V30 22 C -3.450777 -3.933412 1.237324 0
M  V30 23 C -4.818717 -4.086284 1.287335 0
M  V30 24 F -5.657684 -3.477464 0.418959 0
M  V30 25 C -5.292479 -4.917547 2.300637 0
M  V30 26 C -4.388934 -5.521219 3.169309 0
M  V30 27 C -3.028034 -5.316175 3.051783 0
M  V30 28 C -2.526884 -4.497125 2.057027 0
M  V30 29 F -1.193328 -4.292684 1.937371 0
M  V30 30 N -1.776012 -2.714594 -0.143995 0
M  V30 31 H 0.926983 -2.684589 0.105340 0
M  V30 32 H 2.482844 -3.136215 -2.657811 0
M  V30 33 H 5.449579 -0.078167 -2.944120 0
M  V30 34 H 4.378449 1.156343 -1.174748 0
M  V30 35 H 2.549233 2.389583 -0.246683 0
M  V30 36 H 3.711576 1.630055 0.970488 0
M  V30 37 H 1.760218 1.435304 2.567388 0
M  V30 38 H 1.942989 4.328111 1.592590 0
M  V30 39 H 3.226184 3.536821 2.643334 0
M  V30 40 H 1.464450 4.640372 4.038651 0
M  V30 41 H 1.344385 2.806317 4.124585 0
M  V30 42 H -0.333940 1.723588 3.091386 0
M  V30 43 H -1.565937 2.696774 2.202452 0
M  V30 44 H 0.368721 3.205355 0.501367 0
M  V30 45 H 0.063716 1.386858 0.731348 0
M  V30 46 H -2.367756 -0.693190 -2.793773 0
M  V30 47 H -6.375797 -5.058092 2.365170 0
M  V30 48 H -4.875572 -6.153965 3.927199 0
M  V30 49 H -2.384326 -5.820688 3.765906 0
M  V30 END ATOM
M  V30 BEGIN BOND
M  V30 1 2 1 2
M  V30 2 1 2 3
M  V30 3 1 3 4
M  V30 4 2 4 5
M  V30 5 1 5 6
M  V30 6 2 6 7
M  V30 7 1 7 8
M  V30 8 2 8 9
M  V30 9 1 9 10
M  V30 10 1 10 11
M  V30 11 1 11 12
M  V30 12 1 12 13
M  V30 13 1 13 14
M  V30 14 1 14 15
M  V30 15 1 15 16
M  V30 16 1 16 17
M  V30 17 1 2 18
M  V30 18 2 18 19
M  V30 19 1 19 20
M  V30 20 1 20 21
M  V30 21 1 21 22
M  V30 22 2 22 23
M  V30 23 1 23 24
M  V30 24 1 23 25
M  V30 25 2 25 26
M  V30 26 1 26 27
M  V30 27 2 27 28
M  V30 28 1 28 29
M  V30 29 2 21 30
M  V30 30 1 9 4
M  V30 31 1 17 12
M  V30 32 1 30 18
M  V30 33 1 28 22
M  V30 34 1 3 31
M  V30 35 1 5 32
M  V30 36 1 7 33
M  V30 37 1 8 34
M  V30 38 1 11 35
M  V30 39 1 11 36
M  V30 40 1 12 37
M  V30 41 1 13 38
M  V30 42 1 13 39
M  V30 43 1 14 40
M  V30 44 1 14 41
M  V30 45 1 16 42
M  V30 46 1 16 43
M  V30 47 1 17 44
M  V30 48 1 17 45
M  V30 49 1 19 46
M  V30 50 1 25 47
M  V30 51 1 26 48
M  V30 52 1 27 49
M  V30 END BOND
M  V30 END CTAB
M  END
>  <Dataset>  (183) 
ChEMBL_Kinases

>  <Ligand_Instance>  (183) 
nan

>  <PDB_ID>  (183) 
nan

>  <Standardized_SMILES>  (183) 
O=C(Nc1cnccc1OCC1CCOCC1)c1csc(-c2c(F)cccc2F)n1

>  <Name>  (183) 
nan

>  <Pocket>  (183) 
nan

>  <ATP_Site>  (183) 
nan

>  <Peripheral>  (183) 
nan

>  <Num_H_Atoms_ProtBoundConf>  (183) 
nan

>  <Num_Resolved_Atoms>  (183) 
nan

>  <Num_Not_Resolved_Atoms>  (183) 
nan

$$$$
CHEMBL3337854
     RDKit          3D

  0  0  0  0  0  0  0  0  0  0999 V3000
M  V30 BEGIN CTAB
M  V30 COUNTS 46 49 0 0 0
M  V30 BEGIN ATOM
M  V30 1 O 1.366993 -0.625292 2.493456 0
M  V30 2 C 2.190703 -0.886890 1.532232 0
M  V30 3 N 3.383071 -0.077819 1.445088 0
M  V30 4 C 3.449373 1.049903 2.368053 0
M  V30 5 N 2.558668 1.224078 3.380774 0
M  V30 6 C 2.830698 2.443564 3.962843 0
M  V30 7 C 2.166089 3.078725 5.021675 0
M  V30 8 C 2.609686 4.353408 5.416083 0
M  V30 9 C 3.672043 4.835330 4.695422 0
M  V30 10 C 4.098196 6.215780 5.134937 0
M  V30 11 F 5.383176 6.446841 4.742196 0
M  V30 12 F 3.869377 6.412829 6.477678 0
M  V30 13 F 3.264043 7.071434 4.380686 0
M  V30 14 C 4.373067 4.262863 3.642527 0
M  V30 15 C 3.890168 2.983203 3.283913 0
M  V30 16 N 4.275875 2.124769 2.300389 0
M  V30 17 C 1.913299 -1.968136 0.544231 0
M  V30 18 C 2.877305 -2.478760 -0.379019 0
M  V30 19 S 1.786223 -3.628427 -1.443604 0
M  V30 20 C 0.317853 -3.173761 -0.428802 0
M  V30 21 N -1.183098 -3.348121 -0.328782 0
M  V30 22 C -1.896235 -3.704629 -1.410466 0
M  V30 23 O -1.279223 -3.922658 -2.492820 0
M  V30 24 C -3.071235 -4.002518 -2.094884 0
M  V30 25 C -3.788134 -3.953518 -0.781061 0
M  V30 26 C -5.160968 -4.143992 -0.391448 0
M  V30 27 C -6.068923 -4.440692 -1.428331 0
M  V30 28 C -5.521164 -4.515460 -2.705925 0
M  V30 29 C -4.193030 -4.285862 -2.743860 0
M  V30 30 O -3.491685 -4.317240 -3.989435 0
M  V30 31 C -3.476494 -3.113288 -4.726390 0
M  V30 32 F -4.751271 -2.683157 -5.084198 0
M  V30 33 F -2.729890 -3.321536 -5.907559 0
M  V30 34 F -2.901304 -2.093273 -4.001568 0
M  V30 35 N 0.610311 -2.436470 0.380489 0
M  V30 36 H 4.093326 -0.271106 0.719975 0
M  V30 37 H 1.337589 2.642815 5.541385 0
M  V30 38 H 2.156188 4.906615 6.226456 0
M  V30 39 H 5.183833 4.699223 3.125227 0
M  V30 40 H 5.060260 2.246673 1.593604 0
M  V30 41 H 3.927115 -2.115758 -0.265537 0
M  V30 42 H -1.793542 -3.246155 0.460732 0
M  V30 43 H -3.565143 -3.782120 0.327418 0
M  V30 44 H -5.817295 -4.151053 0.481814 0
M  V30 45 H -7.122369 -4.627871 -1.520882 0
M  V30 46 H -5.945230 -4.728960 -3.666810 0
M  V30 END ATOM
M  V30 BEGIN BOND
M  V30 1 2 1 2
M  V30 2 1 2 3
M  V30 3 1 3 4
M  V30 4 2 4 5
M  V30 5 1 5 6
M  V30 6 2 6 7
M  V30 7 1 7 8
M  V30 8 2 8 9
M  V30 9 1 9 10
M  V30 10 1 10 11
M  V30 11 1 10 12
M  V30 12 1 10 13
M  V30 13 1 9 14
M  V30 14 2 14 15
M  V30 15 1 15 16
M  V30 16 1 2 17
M  V30 17 2 17 18
M  V30 18 1 18 19
M  V30 19 1 19 20
M  V30 20 1 20 21
M  V30 21 1 21 22
M  V30 22 2 22 23
M  V30 23 1 22 24
M  V30 24 2 24 25
M  V30 25 1 25 26
M  V30 26 2 26 27
M  V30 27 1 27 28
M  V30 28 2 28 29
M  V30 29 1 29 30
M  V30 30 1 30 31
M  V30 31 1 31 32
M  V30 32 1 31 33
M  V30 33 1 31 34
M  V30 34 2 20 35
M  V30 35 1 16 4
M  V30 36 1 35 17
M  V30 37 1 15 6
M  V30 38 1 29 24
M  V30 39 1 3 36
M  V30 40 1 7 37
M  V30 41 1 8 38
M  V30 42 1 14 39
M  V30 43 1 16 40
M  V30 44 1 18 41
M  V30 45 1 21 42
M  V30 46 1 25 43
M  V30 47 1 26 44
M  V30 48 1 27 45
M  V30 49 1 28 46
M  V30 END BOND
M  V30 END CTAB
M  END
>  <Dataset>  (184) 
ChEMBL_Kinases

>  <Ligand_Instance>  (184) 
nan

>  <PDB_ID>  (184) 
nan

>  <Standardized_SMILES>  (184) 
O=C(Nc1nc2ccc(C(F)(F)F)cc2[nH]1)c1csc(NC(=O)c2ccccc2OC(F)(F)F)n1

>  <Name>  (184) 
nan

>  <Pocket>  (184) 
nan

>  <ATP_Site>  (184) 
nan

>  <Peripheral>  (184) 
nan

>  <Num_H_Atoms_ProtBoundConf>  (184) 
nan

>  <Num_Resolved_Atoms>  (184) 
nan

>  <Num_Not_Resolved_Atoms>  (184) 
nan

$$$$
CHEMBL4788012
     RDKit          3D

  0  0  0  0  0  0  0  0  0  0999 V3000
M  V30 BEGIN CTAB
M  V30 COUNTS 53 58 0 0 0
M  V30 BEGIN ATOM
M  V30 1 C 4.428892 -0.504677 5.769336 0
M  V30 2 N 4.247716 0.272959 4.559851 0
M  V30 3 C 2.933789 0.839103 4.600813 0
M  V30 4 C 4.460010 -0.520572 3.368470 0
M  V30 5 C 4.248132 0.370374 2.197357 0
M  V30 6 C 5.389378 1.035262 1.747337 0
M  V30 7 N 5.241205 1.852819 0.686295 0
M  V30 8 C 4.039613 2.009578 0.099007 0
M  V30 9 C 2.885606 1.359390 0.526757 0
M  V30 10 C 1.626338 1.595945 -0.178344 0
M  V30 11 C 1.505073 2.863844 -0.707950 0
M  V30 12 N 0.380466 3.173166 -1.374846 0
M  V30 13 C -0.601081 2.277670 -1.524866 0
M  V30 14 N -1.804325 2.294929 -2.122502 0
M  V30 15 N -2.422086 1.140937 -1.998339 0
M  V30 16 C -1.671332 0.264080 -1.304416 0
M  V30 17 C -2.047868 -1.098684 -0.985232 0
M  V30 18 N -3.226862 -1.615938 -1.375709 0
M  V30 19 C -3.391376 -2.871513 -0.992842 0
M  V30 20 C -4.384804 -3.822393 -1.131781 0
M  V30 21 C -5.594667 -3.477199 -1.851830 0
M  V30 22 C -6.268661 -2.330254 -1.651659 0
M  V30 23 C -7.496362 -2.055629 -2.431894 0
M  V30 24 S -7.644957 -3.597846 -3.520406 0
M  V30 25 C -6.086374 -4.414753 -2.825284 0
M  V30 26 C -4.279758 -5.093014 -0.610597 0
M  V30 27 N -3.142682 -5.364920 0.050898 0
M  V30 28 C -2.138750 -4.485278 0.221365 0
M  V30 29 C -2.255975 -3.229134 -0.300520 0
M  V30 30 N -1.498120 -2.123811 -0.335158 0
M  V30 31 C -0.543560 0.997141 -1.021927 0
M  V30 32 C 0.608823 0.680499 -0.338643 0
M  V30 33 C 3.006110 0.515217 1.611658 0
M  V30 34 H 4.071235 0.132941 6.618024 0
M  V30 35 H 5.492479 -0.757175 5.963725 0
M  V30 36 H 3.759624 -1.403733 5.792505 0
M  V30 37 H 2.735565 1.598245 3.807057 0
M  V30 38 H 2.161596 0.054573 4.652206 0
M  V30 39 H 2.859245 1.388144 5.582394 0
M  V30 40 H 3.734621 -1.359085 3.275852 0
M  V30 41 H 5.485423 -0.939050 3.358553 0
M  V30 42 H 6.358468 0.911917 2.217080 0
M  V30 43 H 4.000490 2.670013 -0.731796 0
M  V30 44 H 2.210658 3.675624 -0.662345 0
M  V30 45 H -2.254362 3.094624 -2.640051 0
M  V30 46 H -5.954125 -1.590136 -0.940344 0
M  V30 47 H -8.053150 -1.049056 -2.229100 0
M  V30 48 H -5.570946 -5.430531 -3.065773 0
M  V30 49 H -5.055232 -5.842027 -0.716703 0
M  V30 50 H -1.228830 -4.721652 0.757697 0
M  V30 51 H -0.568004 -2.109626 0.118566 0
M  V30 52 H 0.747827 -0.273893 0.083474 0
M  V30 53 H 2.151932 -0.001397 1.972183 0
M  V30 END ATOM
M  V30 BEGIN BOND
M  V30 1 1 1 2
M  V30 2 1 2 3
M  V30 3 1 2 4
M  V30 4 1 4 5
M  V30 5 2 5 6
M  V30 6 1 6 7
M  V30 7 2 7 8
M  V30 8 1 8 9
M  V30 9 1 9 10
M  V30 10 2 10 11
M  V30 11 1 11 12
M  V30 12 2 12 13
M  V30 13 1 13 14
M  V30 14 1 14 15
M  V30 15 2 15 16
M  V30 16 1 16 17
M  V30 17 2 17 18
M  V30 18 1 18 19
M  V30 19 2 19 20
M  V30 20 1 20 21
M  V30 21 1 21 22
M  V30 22 2 22 23
M  V30 23 1 23 24
M  V30 24 1 24 25
M  V30 25 1 20 26
M  V30 26 2 26 27
M  V30 27 1 27 28
M  V30 28 2 28 29
M  V30 29 1 29 30
M  V30 30 1 16 31
M  V30 31 2 31 32
M  V30 32 2 9 33
M  V30 33 1 33 5
M  V30 34 1 32 10
M  V30 35 1 31 13
M  V30 36 1 30 17
M  V30 37 1 29 19
M  V30 38 2 25 21
M  V30 39 1 1 34
M  V30 40 1 1 35
M  V30 41 1 1 36
M  V30 42 1 3 37
M  V30 43 1 3 38
M  V30 44 1 3 39
M  V30 45 1 4 40
M  V30 46 1 4 41
M  V30 47 1 6 42
M  V30 48 1 8 43
M  V30 49 1 11 44
M  V30 50 1 14 45
M  V30 51 1 22 46
M  V30 52 1 23 47
M  V30 53 1 25 48
M  V30 54 1 26 49
M  V30 55 1 28 50
M  V30 56 1 30 51
M  V30 57 1 32 52
M  V30 58 1 33 53
M  V30 END BOND
M  V30 END CTAB
M  END
>  <Dataset>  (185) 
ChEMBL_Kinases

>  <Ligand_Instance>  (185) 
nan

>  <PDB_ID>  (185) 
nan

>  <Standardized_SMILES>  (185) 
CN(C)Cc1cncc(-c2cnc3[nH]nc(-c4nc5c(-c6ccsc6)cncc5[nH]4)c3c2)c1

>  <Name>  (185) 
nan

>  <Pocket>  (185) 
nan

>  <ATP_Site>  (185) 
nan

>  <Peripheral>  (185) 
nan

>  <Num_H_Atoms_ProtBoundConf>  (185) 
nan

>  <Num_Resolved_Atoms>  (185) 
nan

>  <Num_Not_Resolved_Atoms>  (185) 
nan

$$$$
CHEMBL3354517
     RDKit          3D

  0  0  0  0  0  0  0  0  0  0999 V3000
M  V30 BEGIN CTAB
M  V30 COUNTS 49 52 0 0 0
M  V30 BEGIN ATOM
M  V30 1 O 0.057731 -2.781020 -1.734551 0
M  V30 2 C -0.100088 -2.018422 -0.724861 0
M  V30 3 N 0.793425 -0.932375 -0.623781 0
M  V30 4 C 1.855395 -0.529179 -1.459249 0
M  V30 5 C 2.253853 -1.154562 -2.608903 0
M  V30 6 N 3.270790 -0.751545 -3.390710 0
M  V30 7 C 4.007994 0.339673 -3.097167 0
M  V30 8 C 3.611806 0.992634 -1.920540 0
M  V30 9 C 2.557323 0.596878 -1.086025 0
M  V30 10 O 2.460604 1.412120 -0.092676 0
M  V30 11 C 2.022103 1.961025 1.022532 0 CFG=1
M  V30 12 C 3.182614 2.012824 2.041321 0
M  V30 13 C 2.965233 3.102904 3.065972 0
M  V30 14 C 1.500718 3.144734 3.401471 0 CFG=2
M  V30 15 O 1.027359 1.914009 3.785586 0
M  V30 16 C 0.798396 3.726546 2.187705 0
M  V30 17 C 1.547168 3.410875 0.911645 0
M  V30 18 C -1.159576 -2.311798 0.225891 0
M  V30 19 C -1.402256 -1.498082 1.391872 0
M  V30 20 S -2.866463 -2.361903 2.212568 0
M  V30 21 C -2.864456 -3.626128 0.849397 0
M  V30 22 C -3.891667 -4.718282 0.901975 0
M  V30 23 C -4.783558 -4.751505 1.932822 0
M  V30 24 F -4.817689 -3.854315 2.939571 0
M  V30 25 C -5.711156 -5.774270 1.941037 0
M  V30 26 C -5.683704 -6.709380 0.901473 0
M  V30 27 C -4.751549 -6.617137 -0.113985 0
M  V30 28 C -3.806026 -5.585483 -0.134070 0
M  V30 29 F -2.890861 -5.490611 -1.126404 0
M  V30 30 N -2.013307 -3.295249 0.187979 0
M  V30 31 H 0.576866 -0.382883 0.226696 0
M  V30 32 H 1.765417 -2.034793 -2.972662 0
M  V30 33 H 4.807671 0.619155 -3.752252 0
M  V30 34 H 4.268589 1.854329 -1.777963 0
M  V30 35 H 1.153057 1.440211 1.500866 0
M  V30 36 H 3.241573 1.032238 2.538192 0
M  V30 37 H 4.105487 2.262259 1.488310 0
M  V30 38 H 3.562100 2.907135 3.960347 0
M  V30 39 H 3.204506 4.090959 2.606903 0
M  V30 40 H 1.318829 3.835228 4.266006 0
M  V30 41 H 0.053343 1.800405 3.647357 0
M  V30 42 H -0.263217 3.449903 2.164369 0
M  V30 43 H 0.845173 4.840376 2.303295 0
M  V30 44 H 2.365598 4.118849 0.717770 0
M  V30 45 H 0.805950 3.422922 0.081164 0
M  V30 46 H -0.755252 -0.480777 1.713362 0
M  V30 47 H -6.450161 -5.864627 2.727558 0
M  V30 48 H -6.432632 -7.516804 0.927872 0
M  V30 49 H -4.750153 -7.354504 -0.909489 0
M  V30 END ATOM
M  V30 BEGIN BOND
M  V30 1 2 1 2
M  V30 2 1 2 3
M  V30 3 1 3 4
M  V30 4 2 4 5
M  V30 5 1 5 6
M  V30 6 2 6 7
M  V30 7 1 7 8
M  V30 8 2 8 9
M  V30 9 1 9 10
M  V30 10 1 10 11
M  V30 11 1 11 12
M  V30 12 1 12 13
M  V30 13 1 13 14
M  V30 14 1 14 15
M  V30 15 1 14 16
M  V30 16 1 16 17
M  V30 17 1 2 18
M  V30 18 2 18 19
M  V30 19 1 19 20
M  V30 20 1 20 21
M  V30 21 1 21 22
M  V30 22 2 22 23
M  V30 23 1 23 24
M  V30 24 1 23 25
M  V30 25 2 25 26
M  V30 26 1 26 27
M  V30 27 2 27 28
M  V30 28 1 28 29
M  V30 29 2 21 30
M  V30 30 1 9 4
M  V30 31 1 17 11
M  V30 32 1 30 18
M  V30 33 1 28 22
M  V30 34 1 3 31
M  V30 35 1 5 32
M  V30 36 1 7 33
M  V30 37 1 8 34
M  V30 38 1 11 35 CFG=1
M  V30 39 1 12 36
M  V30 40 1 12 37
M  V30 41 1 13 38
M  V30 42 1 13 39
M  V30 43 1 14 40 CFG=1
M  V30 44 1 15 41
M  V30 45 1 16 42
M  V30 46 1 16 43
M  V30 47 1 17 44
M  V30 48 1 17 45
M  V30 49 1 19 46
M  V30 50 1 25 47
M  V30 51 1 26 48
M  V30 52 1 27 49
M  V30 END BOND
M  V30 END CTAB
M  END
>  <Dataset>  (186) 
ChEMBL_Kinases

>  <Ligand_Instance>  (186) 
nan

>  <PDB_ID>  (186) 
nan

>  <Standardized_SMILES>  (186) 
O=C(Nc1cnccc1O[C@H]1CC[C@H](O)CC1)c1csc(-c2c(F)cccc2F)n1

>  <Name>  (186) 
nan

>  <Pocket>  (186) 
nan

>  <ATP_Site>  (186) 
nan

>  <Peripheral>  (186) 
nan

>  <Num_H_Atoms_ProtBoundConf>  (186) 
nan

>  <Num_Resolved_Atoms>  (186) 
nan

>  <Num_Not_Resolved_Atoms>  (186) 
nan

$$$$
CHEMBL4129891
     RDKit          3D

  0  0  0  0  0  0  0  0  0  0999 V3000
M  V30 BEGIN CTAB
M  V30 COUNTS 50 53 0 0 0
M  V30 BEGIN ATOM
M  V30 1 C -0.508497 -2.362494 3.810106 0
M  V30 2 N 0.917094 -2.525579 3.842173 0
M  V30 3 C 1.551219 -1.804091 4.905569 0
M  V30 4 C 1.555873 -2.398208 2.573909 0
M  V30 5 C 3.028073 -2.635403 2.545183 0
M  V30 6 N 3.557122 -2.459909 1.187147 0
M  V30 7 C 3.412926 -1.111974 0.780600 0
M  V30 8 C 4.608274 -0.411055 0.973546 0
M  V30 9 N 4.677547 0.916981 0.653155 0
M  V30 10 C 3.564500 1.504532 0.153821 0
M  V30 11 C 2.375583 0.842197 -0.046846 0
M  V30 12 C 1.174920 1.474077 -0.574032 0
M  V30 13 C 1.211181 2.807286 -0.914148 0
M  V30 14 C 0.043302 3.402737 -1.416824 0
M  V30 15 C -1.085180 2.620072 -1.544393 0
M  V30 16 N -2.334107 2.870058 -1.981012 0
M  V30 17 C -3.120439 1.773226 -1.924740 0
M  V30 18 C -2.355674 0.714784 -1.418592 0
M  V30 19 C -2.865562 -0.614463 -1.210023 0
M  V30 20 C -3.597102 -1.154393 -2.274380 0
M  V30 21 C -4.149044 -2.418901 -2.206708 0
M  V30 22 C -3.957356 -3.157680 -1.033614 0
M  V30 23 F -4.522736 -4.396654 -1.016313 0
M  V30 24 C -3.233845 -2.661644 0.056675 0
M  V30 25 C -2.730671 -1.403973 -0.112156 0
M  V30 26 C -1.118489 1.285244 -1.202242 0
M  V30 27 C 0.030185 0.706224 -0.710322 0
M  V30 28 N 2.359812 -0.453598 0.282338 0
M  V30 29 H -0.807399 -1.634081 3.056723 0
M  V30 30 H -1.051911 -3.295540 3.647696 0
M  V30 31 H -0.807823 -1.946818 4.801614 0
M  V30 32 H 0.718340 -1.446015 5.581310 0
M  V30 33 H 2.246647 -2.363099 5.530266 0
M  V30 34 H 1.972956 -0.860049 4.464220 0
M  V30 35 H 1.330404 -1.371563 2.210511 0
M  V30 36 H 1.087194 -3.119069 1.841128 0
M  V30 37 H 3.579388 -1.917703 3.188924 0
M  V30 38 H 3.291436 -3.660646 2.885756 0
M  V30 39 H 3.986689 -3.188014 0.566301 0
M  V30 40 H 5.547011 -0.826148 1.373403 0
M  V30 41 H 3.668966 2.539982 -0.078689 0
M  V30 42 H 2.054146 3.459917 -0.836113 0
M  V30 43 H 0.034293 4.434060 -1.690450 0
M  V30 44 H -2.612259 3.832427 -2.318435 0
M  V30 45 H -4.165042 1.709669 -2.218744 0
M  V30 46 H -3.753718 -0.585360 -3.198450 0
M  V30 47 H -4.702779 -2.800737 -3.040560 0
M  V30 48 H -3.108155 -3.256576 0.939502 0
M  V30 49 H -2.156747 -0.975408 0.715833 0
M  V30 50 H 0.060973 -0.318066 -0.430355 0
M  V30 END ATOM
M  V30 BEGIN BOND
M  V30 1 1 1 2
M  V30 2 1 2 3
M  V30 3 1 2 4
M  V30 4 1 4 5
M  V30 5 1 5 6
M  V30 6 1 6 7
M  V30 7 2 7 8
M  V30 8 1 8 9
M  V30 9 2 9 10
M  V30 10 1 10 11
M  V30 11 1 11 12
M  V30 12 2 12 13
M  V30 13 1 13 14
M  V30 14 2 14 15
M  V30 15 1 15 16
M  V30 16 1 16 17
M  V30 17 2 17 18
M  V30 18 1 18 19
M  V30 19 2 19 20
M  V30 20 1 20 21
M  V30 21 2 21 22
M  V30 22 1 22 23
M  V30 23 1 22 24
M  V30 24 2 24 25
M  V30 25 1 18 26
M  V30 26 2 26 27
M  V30 27 2 11 28
M  V30 28 1 28 7
M  V30 29 1 27 12
M  V30 30 1 26 15
M  V30 31 1 25 19
M  V30 32 1 1 29
M  V30 33 1 1 30
M  V30 34 1 1 31
M  V30 35 1 3 32
M  V30 36 1 3 33
M  V30 37 1 3 34
M  V30 38 1 4 35
M  V30 39 1 4 36
M  V30 40 1 5 37
M  V30 41 1 5 38
M  V30 42 1 6 39
M  V30 43 1 8 40
M  V30 44 1 10 41
M  V30 45 1 13 42
M  V30 46 1 14 43
M  V30 47 1 16 44
M  V30 48 1 17 45
M  V30 49 1 20 46
M  V30 50 1 21 47
M  V30 51 1 24 48
M  V30 52 1 25 49
M  V30 53 1 27 50
M  V30 END BOND
M  V30 END CTAB
M  END
>  <Dataset>  (187) 
ChEMBL_Kinases

>  <Ligand_Instance>  (187) 
nan

>  <PDB_ID>  (187) 
nan

>  <Standardized_SMILES>  (187) 
CN(C)CCNc1cncc(-c2ccc3[nH]cc(-c4ccc(F)cc4)c3c2)n1

>  <Name>  (187) 
nan

>  <Pocket>  (187) 
nan

>  <ATP_Site>  (187) 
nan

>  <Peripheral>  (187) 
nan

>  <Num_H_Atoms_ProtBoundConf>  (187) 
nan

>  <Num_Resolved_Atoms>  (187) 
nan

>  <Num_Not_Resolved_Atoms>  (187) 
nan

$$$$
CHEMBL4129929
     RDKit          3D

  0  0  0  0  0  0  0  0  0  0999 V3000
M  V30 BEGIN CTAB
M  V30 COUNTS 51 55 0 0 0
M  V30 BEGIN ATOM
M  V30 1 N -1.261209 -1.674212 4.298331 0
M  V30 2 C 0.179244 -1.858702 4.321118 0
M  V30 3 C 0.749216 -1.034338 5.414937 0
M  V30 4 C 2.164978 -0.559099 5.199620 0
M  V30 5 C 2.787493 -1.537840 4.198323 0
M  V30 6 N 2.113726 -1.208124 2.957891 0
M  V30 7 C 2.730546 -0.624714 1.819193 0
M  V30 8 C 4.067616 -0.300728 1.785386 0
M  V30 9 N 4.589871 0.254220 0.664008 0
M  V30 10 C 3.784307 0.481398 -0.408187 0
M  V30 11 C 2.444462 0.162515 -0.389216 0
M  V30 12 C 1.571413 0.401644 -1.532070 0
M  V30 13 C 1.981763 0.957679 -2.722783 0
M  V30 14 C 1.141505 1.176871 -3.793653 0
M  V30 15 C -0.187320 0.819447 -3.667633 0
M  V30 16 N -1.238906 0.899305 -4.504981 0
M  V30 17 C -2.328245 0.406193 -3.884312 0
M  V30 18 C -1.997426 -0.013244 -2.601981 0
M  V30 19 C -2.887426 -0.604730 -1.608577 0
M  V30 20 C -3.634521 0.043648 -0.647379 0
M  V30 21 C -4.432627 -0.666504 0.223358 0
M  V30 22 C -4.496079 -2.060943 0.143725 0
M  V30 23 C -3.742285 -2.698749 -0.824232 0
M  V30 24 C -2.936696 -1.996247 -1.704753 0
M  V30 25 F -2.286389 -2.794773 -2.567402 0
M  V30 26 C -0.649873 0.257759 -2.493674 0
M  V30 27 C 0.239845 0.056808 -1.440235 0
M  V30 28 N 1.981756 -0.378499 0.731915 0
M  V30 29 C 0.698288 -1.524981 2.949551 0
M  V30 30 H -1.579771 -0.823466 4.775858 0
M  V30 31 H -1.618957 -1.732366 3.313067 0
M  V30 32 H 0.328769 -2.960028 4.491013 0
M  V30 33 H 0.081964 -0.195160 5.709761 0
M  V30 34 H 0.783614 -1.680654 6.341624 0
M  V30 35 H 2.752446 -0.543266 6.139356 0
M  V30 36 H 2.111480 0.458273 4.751396 0
M  V30 37 H 3.869379 -1.468333 4.177354 0
M  V30 38 H 2.441226 -2.576816 4.474578 0
M  V30 39 H 4.708449 -0.474042 2.619735 0
M  V30 40 H 4.243215 0.917888 -1.260952 0
M  V30 41 H 3.001207 1.239764 -2.839822 0
M  V30 42 H 1.510277 1.618963 -4.714825 0
M  V30 43 H -1.153889 1.292637 -5.470250 0
M  V30 44 H -3.308834 0.358204 -4.348845 0
M  V30 45 H -3.530377 1.109194 -0.652732 0
M  V30 46 H -5.008375 -0.134086 0.967715 0
M  V30 47 H -5.140052 -2.588350 0.851317 0
M  V30 48 H -3.856741 -3.768824 -0.807150 0
M  V30 49 H -0.161201 -0.384066 -0.541653 0
M  V30 50 H 0.568359 -2.428402 2.312790 0
M  V30 51 H 0.058487 -0.744834 2.519038 0
M  V30 END ATOM
M  V30 BEGIN BOND
M  V30 1 1 1 2
M  V30 2 1 2 3
M  V30 3 1 3 4
M  V30 4 1 4 5
M  V30 5 1 5 6
M  V30 6 1 6 7
M  V30 7 2 7 8
M  V30 8 1 8 9
M  V30 9 2 9 10
M  V30 10 1 10 11
M  V30 11 1 11 12
M  V30 12 2 12 13
M  V30 13 1 13 14
M  V30 14 2 14 15
M  V30 15 1 15 16
M  V30 16 1 16 17
M  V30 17 2 17 18
M  V30 18 1 18 19
M  V30 19 2 19 20
M  V30 20 1 20 21
M  V30 21 2 21 22
M  V30 22 1 22 23
M  V30 23 2 23 24
M  V30 24 1 24 25
M  V30 25 1 18 26
M  V30 26 2 26 27
M  V30 27 2 11 28
M  V30 28 1 6 29
M  V30 29 1 29 2
M  V30 30 1 28 7
M  V30 31 1 27 12
M  V30 32 1 26 15
M  V30 33 1 24 19
M  V30 34 1 1 30
M  V30 35 1 1 31
M  V30 36 1 2 32
M  V30 37 1 3 33
M  V30 38 1 3 34
M  V30 39 1 4 35
M  V30 40 1 4 36
M  V30 41 1 5 37
M  V30 42 1 5 38
M  V30 43 1 8 39
M  V30 44 1 10 40
M  V30 45 1 13 41
M  V30 46 1 14 42
M  V30 47 1 16 43
M  V30 48 1 17 44
M  V30 49 1 20 45
M  V30 50 1 21 46
M  V30 51 1 22 47
M  V30 52 1 23 48
M  V30 53 1 27 49
M  V30 54 1 29 50
M  V30 55 1 29 51
M  V30 END BOND
M  V30 END CTAB
M  END
>  <Dataset>  (188) 
ChEMBL_Kinases

>  <Ligand_Instance>  (188) 
nan

>  <PDB_ID>  (188) 
nan

>  <Standardized_SMILES>  (188) 
NC1CCCN(c2cncc(-c3ccc4[nH]cc(-c5ccccc5F)c4c3)n2)C1

>  <Name>  (188) 
nan

>  <Pocket>  (188) 
nan

>  <ATP_Site>  (188) 
nan

>  <Peripheral>  (188) 
nan

>  <Num_H_Atoms_ProtBoundConf>  (188) 
nan

>  <Num_Resolved_Atoms>  (188) 
nan

>  <Num_Not_Resolved_Atoms>  (188) 
nan

$$$$
CHEMBL3354518
     RDKit          3D

  0  0  0  0  0  0  0  0  0  0999 V3000
M  V30 BEGIN CTAB
M  V30 COUNTS 46 49 0 0 0
M  V30 BEGIN ATOM
M  V30 1 N 1.581623 1.046262 4.495833 0
M  V30 2 C 1.870309 1.373290 3.151205 0
M  V30 3 S 3.372318 2.149002 2.332390 0
M  V30 4 C 2.640623 2.072619 0.719649 0
M  V30 5 C 3.245239 2.534768 -0.608802 0
M  V30 6 C 2.546312 2.405113 -1.772895 0
M  V30 7 F 1.306824 1.859151 -1.729567 0
M  V30 8 C 3.190774 2.855734 -2.907915 0
M  V30 9 C 4.458083 3.401196 -2.867551 0
M  V30 10 C 5.091856 3.493704 -1.644849 0
M  V30 11 C 4.506754 3.063089 -0.470941 0
M  V30 12 F 5.183019 3.184636 0.682085 0
M  V30 13 N 1.543406 1.574462 0.860679 0
M  V30 14 C 1.055219 1.187940 2.023572 0
M  V30 15 C -0.269625 0.590667 2.168157 0
M  V30 16 O -0.721458 0.229510 3.271449 0
M  V30 17 N -1.163515 0.364100 1.084918 0
M  V30 18 C -2.442242 -0.228180 1.330783 0
M  V30 19 C -3.428722 0.730356 1.597655 0
M  V30 20 N -4.700868 0.338070 1.852791 0
M  V30 21 C -5.013683 -0.990609 1.848156 0
M  V30 22 C -4.066280 -1.956370 1.589403 0
M  V30 23 C -2.767379 -1.589755 1.327041 0
M  V30 24 O -1.640298 -2.335060 1.041287 0
M  V30 25 C -1.625025 -3.742117 0.960563 0 CFG=1
M  V30 26 C -1.118056 -4.191341 -0.388688 0
M  V30 27 C -0.194515 -5.341996 -0.118901 0
M  V30 28 N -0.139354 -5.557994 1.306176 0
M  V30 29 C -0.673338 -4.383591 1.941396 0
M  V30 30 H 0.947542 1.610131 5.084459 0
M  V30 31 H 2.045505 0.183326 4.896256 0
M  V30 32 H 2.617373 2.746210 -3.841889 0
M  V30 33 H 4.881796 3.727044 -3.811714 0
M  V30 34 H 6.094186 3.939552 -1.708998 0
M  V30 35 H -0.852036 0.645301 0.107473 0
M  V30 36 H -3.250074 1.796515 1.617125 0
M  V30 37 H -6.016796 -1.350100 2.046647 0
M  V30 38 H -4.202754 -3.010993 1.561376 0
M  V30 39 H -2.613369 -4.205118 1.147209 0
M  V30 40 H -0.623696 -3.337128 -0.895429 0
M  V30 41 H -1.928752 -4.532416 -1.066741 0
M  V30 42 H 0.842745 -5.007530 -0.409186 0
M  V30 43 H -0.472959 -6.262389 -0.648748 0
M  V30 44 H 0.791130 -5.835932 1.659217 0
M  V30 45 H 0.153739 -3.676237 2.148884 0
M  V30 46 H -1.153284 -4.613361 2.926884 0
M  V30 END ATOM
M  V30 BEGIN BOND
M  V30 1 1 1 2
M  V30 2 1 2 3
M  V30 3 1 3 4
M  V30 4 1 4 5
M  V30 5 2 5 6
M  V30 6 1 6 7
M  V30 7 1 6 8
M  V30 8 2 8 9
M  V30 9 1 9 10
M  V30 10 2 10 11
M  V30 11 1 11 12
M  V30 12 2 4 13
M  V30 13 1 13 14
M  V30 14 1 14 15
M  V30 15 2 15 16
M  V30 16 1 15 17
M  V30 17 1 17 18
M  V30 18 2 18 19
M  V30 19 1 19 20
M  V30 20 2 20 21
M  V30 21 1 21 22
M  V30 22 2 22 23
M  V30 23 1 23 24
M  V30 24 1 24 25
M  V30 25 1 25 26
M  V30 26 1 26 27
M  V30 27 1 27 28
M  V30 28 1 28 29
M  V30 29 2 14 2
M  V30 30 1 23 18
M  V30 31 1 29 25
M  V30 32 1 11 5
M  V30 33 1 1 30
M  V30 34 1 1 31
M  V30 35 1 8 32
M  V30 36 1 9 33
M  V30 37 1 10 34
M  V30 38 1 17 35
M  V30 39 1 19 36
M  V30 40 1 21 37
M  V30 41 1 22 38
M  V30 42 1 25 39 CFG=1
M  V30 43 1 26 40
M  V30 44 1 26 41
M  V30 45 1 27 42
M  V30 46 1 27 43
M  V30 47 1 28 44
M  V30 48 1 29 45
M  V30 49 1 29 46
M  V30 END BOND
M  V30 END CTAB
M  END
>  <Dataset>  (189) 
ChEMBL_Kinases

>  <Ligand_Instance>  (189) 
nan

>  <PDB_ID>  (189) 
nan

>  <Standardized_SMILES>  (189) 
Nc1sc(-c2c(F)cccc2F)nc1C(=O)Nc1cnccc1O[C@H]1CCNC1

>  <Name>  (189) 
nan

>  <Pocket>  (189) 
nan

>  <ATP_Site>  (189) 
nan

>  <Peripheral>  (189) 
nan

>  <Num_H_Atoms_ProtBoundConf>  (189) 
nan

>  <Num_Resolved_Atoms>  (189) 
nan

>  <Num_Not_Resolved_Atoms>  (189) 
nan

$$$$
CHEMBL4128290
     RDKit          3D

  0  0  0  0  0  0  0  0  0  0999 V3000
M  V30 BEGIN CTAB
M  V30 COUNTS 54 57 0 0 0
M  V30 BEGIN ATOM
M  V30 1 C 0.179407 -3.139743 3.285800 0
M  V30 2 O 1.140820 -3.794042 2.514137 0
M  V30 3 C 2.215359 -3.221360 1.876876 0
M  V30 4 C 3.095234 -3.985787 1.141970 0
M  V30 5 C 4.183822 -3.482365 0.482132 0
M  V30 6 C 4.385788 -2.104991 0.580742 0
M  V30 7 C 3.526980 -1.307058 1.307038 0
M  V30 8 C 3.876400 0.131139 1.312459 0
M  V30 9 C 5.101870 0.749883 1.531428 0
M  V30 10 N 4.911386 2.081165 1.436526 0
M  V30 11 C 3.630904 2.380008 1.167677 0
M  V30 12 C 2.899479 3.542574 0.971629 0
M  V30 13 C 1.531244 3.528384 0.697473 0
M  V30 14 C 0.870071 2.322255 0.616240 0
M  V30 15 C -0.553163 2.194891 0.330837 0
M  V30 16 C -1.411532 3.246454 0.096385 0
M  V30 17 N -2.733932 3.024116 -0.167309 0
M  V30 18 C -3.172610 1.765761 -0.192020 0
M  V30 19 C -2.373391 0.662814 0.033276 0
M  V30 20 N -2.838253 -0.705073 0.010315 0
M  V30 21 C -4.224031 -0.783968 -0.323695 0
M  V30 22 C -4.789131 -2.160072 -0.319030 0
M  V30 23 N -4.244796 -3.111145 -1.207439 0
M  V30 24 C -2.929407 -3.588012 -0.990314 0
M  V30 25 C -4.656391 -3.047036 -2.570788 0
M  V30 26 N -1.112372 0.993064 0.278322 0
M  V30 27 C 1.610234 1.176018 0.813816 0
M  V30 28 C 2.960504 1.168102 1.085120 0
M  V30 29 C 2.430312 -1.840559 1.967328 0
M  V30 30 H 0.625956 -2.801208 4.263455 0
M  V30 31 H -0.364973 -2.334856 2.790184 0
M  V30 32 H -0.594476 -3.894600 3.576066 0
M  V30 33 H 2.901788 -5.059484 1.088742 0
M  V30 34 H 4.813153 -4.173676 -0.069594 0
M  V30 35 H 5.252189 -1.708504 0.054545 0
M  V30 36 H 5.999713 0.186315 1.735976 0
M  V30 37 H 5.684164 2.785358 1.561485 0
M  V30 38 H 3.414194 4.502922 1.034009 0
M  V30 39 H 0.974969 4.443761 0.546600 0
M  V30 40 H -1.006832 4.255064 0.126418 0
M  V30 41 H -4.233638 1.603596 -0.403753 0
M  V30 42 H -2.080907 -1.385230 0.246126 0
M  V30 43 H -4.770918 -0.220491 0.485501 0
M  V30 44 H -4.469543 -0.220364 -1.255307 0
M  V30 45 H -5.888466 -2.071668 -0.545044 0
M  V30 46 H -4.695550 -2.542049 0.733402 0
M  V30 47 H -2.729178 -3.648825 0.098737 0
M  V30 48 H -2.916840 -4.658412 -1.361437 0
M  V30 49 H -2.111042 -3.012604 -1.474121 0
M  V30 50 H -5.778525 -2.985198 -2.643483 0
M  V30 51 H -4.144516 -2.282518 -3.188722 0
M  V30 52 H -4.392259 -4.039369 -3.027982 0
M  V30 53 H 1.097837 0.229495 0.747872 0
M  V30 54 H 1.793854 -1.186328 2.522093 0
M  V30 END ATOM
M  V30 BEGIN BOND
M  V30 1 1 1 2
M  V30 2 1 2 3
M  V30 3 2 3 4
M  V30 4 1 4 5
M  V30 5 2 5 6
M  V30 6 1 6 7
M  V30 7 1 7 8
M  V30 8 2 8 9
M  V30 9 1 9 10
M  V30 10 1 10 11
M  V30 11 2 11 12
M  V30 12 1 12 13
M  V30 13 2 13 14
M  V30 14 1 14 15
M  V30 15 2 15 16
M  V30 16 1 16 17
M  V30 17 2 17 18
M  V30 18 1 18 19
M  V30 19 1 19 20
M  V30 20 1 20 21
M  V30 21 1 21 22
M  V30 22 1 22 23
M  V30 23 1 23 24
M  V30 24 1 23 25
M  V30 25 2 19 26
M  V30 26 1 14 27
M  V30 27 2 27 28
M  V30 28 2 7 29
M  V30 29 1 29 3
M  V30 30 1 28 8
M  V30 31 1 28 11
M  V30 32 1 26 15
M  V30 33 1 1 30
M  V30 34 1 1 31
M  V30 35 1 1 32
M  V30 36 1 4 33
M  V30 37 1 5 34
M  V30 38 1 6 35
M  V30 39 1 9 36
M  V30 40 1 10 37
M  V30 41 1 12 38
M  V30 42 1 13 39
M  V30 43 1 16 40
M  V30 44 1 18 41
M  V30 45 1 20 42
M  V30 46 1 21 43
M  V30 47 1 21 44
M  V30 48 1 22 45
M  V30 49 1 22 46
M  V30 50 1 24 47
M  V30 51 1 24 48
M  V30 52 1 24 49
M  V30 53 1 25 50
M  V30 54 1 25 51
M  V30 55 1 25 52
M  V30 56 1 27 53
M  V30 57 1 29 54
M  V30 END BOND
M  V30 END CTAB
M  END
>  <Dataset>  (190) 
ChEMBL_Kinases

>  <Ligand_Instance>  (190) 
nan

>  <PDB_ID>  (190) 
nan

>  <Standardized_SMILES>  (190) 
COc1cccc(-c2c[nH]c3ccc(-c4cncc(NCCN(C)C)n4)cc23)c1

>  <Name>  (190) 
nan

>  <Pocket>  (190) 
nan

>  <ATP_Site>  (190) 
nan

>  <Peripheral>  (190) 
nan

>  <Num_H_Atoms_ProtBoundConf>  (190) 
nan

>  <Num_Resolved_Atoms>  (190) 
nan

>  <Num_Not_Resolved_Atoms>  (190) 
nan

$$$$
CHEMBL3354519
     RDKit          3D

  0  0  0  0  0  0  0  0  0  0999 V3000
M  V30 BEGIN CTAB
M  V30 COUNTS 51 54 0 0 0
M  V30 BEGIN ATOM
M  V30 1 F 3.724953 -0.740952 2.872393 0
M  V30 2 C 3.864034 -2.015887 3.296979 0
M  V30 3 C 4.531136 -2.135908 4.510230 0
M  V30 4 C 4.722486 -3.417369 5.033348 0
M  V30 5 C 4.248035 -4.503580 4.335346 0
M  V30 6 C 3.590786 -4.293695 3.127809 0
M  V30 7 C 3.374947 -3.072682 2.569267 0
M  V30 8 C 2.679264 -2.889559 1.308539 0
M  V30 9 C 2.155399 -3.942647 0.592397 0
M  V30 10 C 1.493683 -3.701107 -0.614495 0
M  V30 11 C 1.409042 -2.371490 -1.019638 0
M  V30 12 C 1.945621 -1.318644 -0.282966 0
M  V30 13 C 1.705092 -0.040380 -0.971007 0
M  V30 14 N 0.438662 0.503563 -0.530492 0
M  V30 15 C -0.032247 1.071537 0.668006 0
M  V30 16 C 0.903511 1.205434 1.698001 0
M  V30 17 N 0.657287 1.754738 2.927924 0
M  V30 18 C -0.598958 2.192718 3.131137 0
M  V30 19 C -1.565142 2.089072 2.157816 0
M  V30 20 C -1.330249 1.539976 0.920733 0
M  V30 21 O -2.149195 1.349777 -0.161024 0
M  V30 22 C -3.479508 1.661643 -0.336380 0
M  V30 23 C -4.226341 0.312477 -0.303137 0
M  V30 24 C -3.539873 -0.556344 -1.302936 0
M  V30 25 N -2.962452 0.130458 -2.411634 0
M  V30 26 C -3.591106 1.345245 -2.809526 0
M  V30 27 C -3.822357 2.305441 -1.659964 0
M  V30 28 N 2.556626 -1.643996 0.852154 0
M  V30 29 H 4.915803 -1.322076 5.087372 0
M  V30 30 H 5.239418 -3.520547 5.978660 0
M  V30 31 H 4.394770 -5.510482 4.737703 0
M  V30 32 H 3.254851 -5.200762 2.652950 0
M  V30 33 H 2.236867 -4.963517 0.932502 0
M  V30 34 H 1.092046 -4.541965 -1.159395 0
M  V30 35 H 0.877111 -2.297137 -1.967220 0
M  V30 36 H 2.469195 0.706753 -0.589805 0
M  V30 37 H 1.792470 -0.091050 -2.055882 0
M  V30 38 H -0.311395 0.465886 -1.284889 0
M  V30 39 H 1.963144 0.909751 1.692204 0
M  V30 40 H -0.938446 2.655482 4.072153 0
M  V30 41 H -2.586845 2.421631 2.264635 0
M  V30 42 H -3.861184 2.202981 0.544111 0
M  V30 43 H -4.024947 -0.077458 0.712815 0
M  V30 44 H -5.308963 0.438222 -0.472142 0
M  V30 45 H -4.264333 -1.341292 -1.671058 0
M  V30 46 H -2.769190 -1.172116 -0.744209 0
M  V30 47 H -2.981901 -0.522213 -3.240174 0
M  V30 48 H -2.867629 1.861675 -3.505811 0
M  V30 49 H -4.502424 1.179136 -3.413493 0
M  V30 50 H -3.352045 3.287944 -1.819608 0
M  V30 51 H -4.921806 2.486607 -1.625637 0
M  V30 END ATOM
M  V30 BEGIN BOND
M  V30 1 1 1 2
M  V30 2 2 2 3
M  V30 3 1 3 4
M  V30 4 2 4 5
M  V30 5 1 5 6
M  V30 6 2 6 7
M  V30 7 1 7 8
M  V30 8 2 8 9
M  V30 9 1 9 10
M  V30 10 2 10 11
M  V30 11 1 11 12
M  V30 12 1 12 13
M  V30 13 1 13 14
M  V30 14 1 14 15
M  V30 15 2 15 16
M  V30 16 1 16 17
M  V30 17 2 17 18
M  V30 18 1 18 19
M  V30 19 2 19 20
M  V30 20 1 20 21
M  V30 21 1 21 22
M  V30 22 1 22 23
M  V30 23 1 23 24
M  V30 24 1 24 25
M  V30 25 1 25 26
M  V30 26 1 26 27
M  V30 27 2 12 28
M  V30 28 1 7 2
M  V30 29 1 28 8
M  V30 30 1 20 15
M  V30 31 1 27 22
M  V30 32 1 3 29
M  V30 33 1 4 30
M  V30 34 1 5 31
M  V30 35 1 6 32
M  V30 36 1 9 33
M  V30 37 1 10 34
M  V30 38 1 11 35
M  V30 39 1 13 36
M  V30 40 1 13 37
M  V30 41 1 14 38
M  V30 42 1 16 39
M  V30 43 1 18 40
M  V30 44 1 19 41
M  V30 45 1 22 42
M  V30 46 1 23 43
M  V30 47 1 23 44
M  V30 48 1 24 45
M  V30 49 1 24 46
M  V30 50 1 25 47
M  V30 51 1 26 48
M  V30 52 1 26 49
M  V30 53 1 27 50
M  V30 54 1 27 51
M  V30 END BOND
M  V30 END CTAB
M  END
>  <Dataset>  (191) 
ChEMBL_Kinases

>  <Ligand_Instance>  (191) 
nan

>  <PDB_ID>  (191) 
nan

>  <Standardized_SMILES>  (191) 
Fc1ccccc1-c1cccc(CNc2cnccc2OC2CCNCC2)n1

>  <Name>  (191) 
nan

>  <Pocket>  (191) 
nan

>  <ATP_Site>  (191) 
nan

>  <Peripheral>  (191) 
nan

>  <Num_H_Atoms_ProtBoundConf>  (191) 
nan

>  <Num_Resolved_Atoms>  (191) 
nan

>  <Num_Not_Resolved_Atoms>  (191) 
nan

$$$$
CHEMBL4791960
     RDKit          3D

  0  0  0  0  0  0  0  0  0  0999 V3000
M  V30 BEGIN CTAB
M  V30 COUNTS 67 71 0 0 0
M  V30 BEGIN ATOM
M  V30 1 C 1.777584 -5.126238 4.902368 0
M  V30 2 C 0.548637 -4.804568 4.069265 0
M  V30 3 C -0.407220 -4.012615 4.999525 0
M  V30 4 C -0.158333 -6.014929 3.558119 0
M  V30 5 C 0.942070 -3.829233 3.037194 0
M  V30 6 C 1.746191 -4.135318 2.002401 0
M  V30 7 C 1.965583 -3.068614 1.175892 0
M  V30 8 N 2.597163 -2.459196 0.053972 0
M  V30 9 C 3.710896 -1.565471 0.264225 0
M  V30 10 O 3.928386 -1.472587 1.489918 0
M  V30 11 C 4.363869 -0.940723 -0.945868 0
M  V30 12 C 3.869646 0.470432 -1.084013 0
M  V30 13 C 2.865033 0.531332 -2.061484 0
M  V30 14 C 2.275279 1.750364 -2.288703 0
M  V30 15 C 2.585332 2.926799 -1.635559 0
M  V30 16 N 1.850916 4.084678 -1.944522 0
M  V30 17 C 0.548080 4.554255 -2.139052 0
M  V30 18 N 0.415303 5.809167 -2.601652 0
M  V30 19 C -0.784791 6.367839 -2.830648 0
M  V30 20 N -1.916180 5.663755 -2.597122 0
M  V30 21 C -1.884151 4.404921 -2.135755 0
M  V30 22 N -2.817033 3.462618 -1.805141 0
M  V30 23 C -2.199304 2.329954 -1.371757 0
M  V30 24 C -2.782704 1.057391 -0.933452 0
M  V30 25 C -1.913391 0.039956 -0.526230 0
M  V30 26 C -2.390989 -1.183856 -0.122581 0
M  V30 27 C -3.739446 -1.436172 -0.110974 0
M  V30 28 S -4.436478 -2.950417 0.387753 0
M  V30 29 C -4.953838 -2.922250 2.092166 0
M  V30 30 O -3.506903 -4.106382 0.129493 0
M  V30 31 O -5.672992 -3.194291 -0.425233 0
M  V30 32 C -4.558741 -0.398091 -0.521979 0
M  V30 33 C -4.141742 0.861044 -0.941043 0
M  V30 34 C -0.856523 2.620619 -1.450487 0
M  V30 35 C -0.630090 3.886740 -1.918514 0
M  V30 36 C 3.577997 2.825450 -0.685963 0
M  V30 37 C 4.184195 1.624537 -0.437728 0
M  V30 38 N 1.223429 -2.094891 1.799869 0
M  V30 39 O 0.649325 -2.564561 2.865657 0
M  V30 40 H 2.516780 -5.679857 4.253034 0
M  V30 41 H 1.561827 -5.805569 5.749345 0
M  V30 42 H 2.256814 -4.184263 5.195196 0
M  V30 43 H 0.284686 -3.352902 5.604157 0
M  V30 44 H -1.011459 -3.327459 4.368019 0
M  V30 45 H -0.992773 -4.678603 5.626988 0
M  V30 46 H -1.263861 -5.801268 3.424999 0
M  V30 47 H 0.276317 -6.442199 2.644366 0
M  V30 48 H -0.117788 -6.816333 4.345890 0
M  V30 49 H 2.285222 -5.002288 1.630569 0
M  V30 50 H 2.218613 -2.691147 -0.913773 0
M  V30 51 H 4.166616 -1.564582 -1.809060 0
M  V30 52 H 5.458249 -0.952993 -0.723496 0
M  V30 53 H 2.520989 -0.301809 -2.646745 0
M  V30 54 H 1.483169 1.805407 -3.057482 0
M  V30 55 H 2.632499 4.781701 -2.062022 0
M  V30 56 H -0.843011 7.390507 -3.205636 0
M  V30 57 H -3.855978 3.605821 -1.876866 0
M  V30 58 H -0.844594 0.124603 -0.500938 0
M  V30 59 H -1.739406 -1.982832 0.195644 0
M  V30 60 H -5.779439 -3.657716 2.263037 0
M  V30 61 H -4.067490 -3.169069 2.710938 0
M  V30 62 H -5.275143 -1.879662 2.336403 0
M  V30 63 H -5.620657 -0.591811 -0.516698 0
M  V30 64 H -4.839372 1.618173 -1.245872 0
M  V30 65 H -0.129245 1.913562 -1.154399 0
M  V30 66 H 3.879388 3.695333 -0.132300 0
M  V30 67 H 4.975743 1.455595 0.289121 0
M  V30 END ATOM
M  V30 BEGIN BOND
M  V30 1 1 1 2
M  V30 2 1 2 3
M  V30 3 1 2 4
M  V30 4 1 2 5
M  V30 5 2 5 6
M  V30 6 1 6 7
M  V30 7 1 7 8
M  V30 8 1 8 9
M  V30 9 2 9 10
M  V30 10 1 9 11
M  V30 11 1 11 12
M  V30 12 2 12 13
M  V30 13 1 13 14
M  V30 14 2 14 15
M  V30 15 1 15 16
M  V30 16 1 16 17
M  V30 17 2 17 18
M  V30 18 1 18 19
M  V30 19 2 19 20
M  V30 20 1 20 21
M  V30 21 1 21 22
M  V30 22 1 22 23
M  V30 23 1 23 24
M  V30 24 2 24 25
M  V30 25 1 25 26
M  V30 26 2 26 27
M  V30 27 1 27 28
M  V30 28 1 28 29
M  V30 29 2 28 30
M  V30 30 2 28 31
M  V30 31 1 27 32
M  V30 32 2 32 33
M  V30 33 2 23 34
M  V30 34 1 34 35
M  V30 35 1 15 36
M  V30 36 2 36 37
M  V30 37 2 7 38
M  V30 38 1 38 39
M  V30 39 1 39 5
M  V30 40 1 37 12
M  V30 41 1 35 17
M  V30 42 2 35 21
M  V30 43 1 33 24
M  V30 44 1 1 40
M  V30 45 1 1 41
M  V30 46 1 1 42
M  V30 47 1 3 43
M  V30 48 1 3 44
M  V30 49 1 3 45
M  V30 50 1 4 46
M  V30 51 1 4 47
M  V30 52 1 4 48
M  V30 53 1 6 49
M  V30 54 1 8 50
M  V30 55 1 11 51
M  V30 56 1 11 52
M  V30 57 1 13 53
M  V30 58 1 14 54
M  V30 59 1 16 55
M  V30 60 1 19 56
M  V30 61 1 22 57
M  V30 62 1 25 58
M  V30 63 1 26 59
M  V30 64 1 29 60
M  V30 65 1 29 61
M  V30 66 1 29 62
M  V30 67 1 32 63
M  V30 68 1 33 64
M  V30 69 1 34 65
M  V30 70 1 36 66
M  V30 71 1 37 67
M  V30 END BOND
M  V30 END CTAB
M  END
>  <Dataset>  (192) 
ChEMBL_Kinases

>  <Ligand_Instance>  (192) 
nan

>  <PDB_ID>  (192) 
nan

>  <Standardized_SMILES>  (192) 
CC(C)(C)c1cc(NC(=O)Cc2ccc(Nc3ncnc4[nH]c(-c5ccc(S(C)(=O)=O)cc5)cc34)cc2)no1

>  <Name>  (192) 
nan

>  <Pocket>  (192) 
nan

>  <ATP_Site>  (192) 
nan

>  <Peripheral>  (192) 
nan

>  <Num_H_Atoms_ProtBoundConf>  (192) 
nan

>  <Num_Resolved_Atoms>  (192) 
nan

>  <Num_Not_Resolved_Atoms>  (192) 
nan

$$$$
CHEMBL4128205
     RDKit          3D

  0  0  0  0  0  0  0  0  0  0999 V3000
M  V30 BEGIN CTAB
M  V30 COUNTS 50 53 0 0 0
M  V30 BEGIN ATOM
M  V30 1 C 1.773421 0.277558 5.552712 0
M  V30 2 N 2.790990 0.883993 4.705800 0
M  V30 3 C 3.922575 1.190759 5.561516 0
M  V30 4 C 3.151919 -0.040259 3.641644 0
M  V30 5 C 4.196504 0.538704 2.742519 0
M  V30 6 N 4.527373 -0.412598 1.699384 0
M  V30 7 C 3.604971 -0.917186 0.741058 0
M  V30 8 C 3.973982 -1.840812 -0.244130 0
M  V30 9 N 3.079100 -2.298275 -1.137321 0
M  V30 10 C 1.799162 -1.896465 -1.129684 0
M  V30 11 C 1.401685 -0.987631 -0.173186 0
M  V30 12 C 0.036307 -0.475355 -0.063417 0
M  V30 13 C -0.239775 0.432856 0.937731 0
M  V30 14 C -1.513798 0.953674 1.092209 0
M  V30 15 C -2.543498 0.580561 0.250969 0
M  V30 16 N -3.845906 0.941495 0.200303 0
M  V30 17 C -4.432150 0.285659 -0.818089 0
M  V30 18 C -3.460778 -0.502726 -1.411971 0
M  V30 19 C -3.703830 -1.367700 -2.555753 0
M  V30 20 C -3.553359 -0.919187 -3.854767 0
M  V30 21 C -3.807372 -1.816075 -4.888053 0
M  V30 22 C -4.197578 -3.112040 -4.587661 0
M  V30 23 C -4.349021 -3.563347 -3.277769 0
M  V30 24 F -4.732951 -4.839345 -3.001837 0
M  V30 25 C -4.091929 -2.656712 -2.257547 0
M  V30 26 F -4.241190 -3.102647 -0.993863 0
M  V30 27 C -2.260155 -0.330360 -0.750739 0
M  V30 28 C -0.979935 -0.858220 -0.911461 0
M  V30 29 N 2.315586 -0.545521 0.708469 0
M  V30 30 H 1.830892 0.811983 6.533998 0
M  V30 31 H 0.747467 0.472213 5.186693 0
M  V30 32 H 1.989466 -0.782367 5.766379 0
M  V30 33 H 4.300876 0.265356 6.005894 0
M  V30 34 H 4.684733 1.794795 5.033946 0
M  V30 35 H 3.501656 1.788340 6.412032 0
M  V30 36 H 2.248836 -0.228605 3.056877 0
M  V30 37 H 3.567595 -0.936076 4.126661 0
M  V30 38 H 3.829387 1.487208 2.250342 0
M  V30 39 H 5.092404 0.743977 3.333733 0
M  V30 40 H 5.520251 -0.781073 1.614390 0
M  V30 41 H 5.023667 -2.173409 -0.254168 0
M  V30 42 H 1.092981 -2.265375 -1.844164 0
M  V30 43 H 0.519205 0.769016 1.632215 0
M  V30 44 H -1.694853 1.669520 1.895078 0
M  V30 45 H -4.338582 1.619085 0.839396 0
M  V30 46 H -5.465558 0.342999 -1.136937 0
M  V30 47 H -3.248132 0.095548 -4.065702 0
M  V30 48 H -3.706653 -1.523599 -5.935921 0
M  V30 49 H -4.410454 -3.859830 -5.366849 0
M  V30 50 H -0.804012 -1.553946 -1.691692 0
M  V30 END ATOM
M  V30 BEGIN BOND
M  V30 1 1 1 2
M  V30 2 1 2 3
M  V30 3 1 2 4
M  V30 4 1 4 5
M  V30 5 1 5 6
M  V30 6 1 6 7
M  V30 7 2 7 8
M  V30 8 1 8 9
M  V30 9 2 9 10
M  V30 10 1 10 11
M  V30 11 1 11 12
M  V30 12 2 12 13
M  V30 13 1 13 14
M  V30 14 2 14 15
M  V30 15 1 15 16
M  V30 16 1 16 17
M  V30 17 2 17 18
M  V30 18 1 18 19
M  V30 19 2 19 20
M  V30 20 1 20 21
M  V30 21 2 21 22
M  V30 22 1 22 23
M  V30 23 1 23 24
M  V30 24 2 23 25
M  V30 25 1 25 26
M  V30 26 1 18 27
M  V30 27 2 27 28
M  V30 28 2 11 29
M  V30 29 1 29 7
M  V30 30 1 28 12
M  V30 31 1 27 15
M  V30 32 1 25 19
M  V30 33 1 1 30
M  V30 34 1 1 31
M  V30 35 1 1 32
M  V30 36 1 3 33
M  V30 37 1 3 34
M  V30 38 1 3 35
M  V30 39 1 4 36
M  V30 40 1 4 37
M  V30 41 1 5 38
M  V30 42 1 5 39
M  V30 43 1 6 40
M  V30 44 1 8 41
M  V30 45 1 10 42
M  V30 46 1 13 43
M  V30 47 1 14 44
M  V30 48 1 16 45
M  V30 49 1 17 46
M  V30 50 1 20 47
M  V30 51 1 21 48
M  V30 52 1 22 49
M  V30 53 1 28 50
M  V30 END BOND
M  V30 END CTAB
M  END
>  <Dataset>  (193) 
ChEMBL_Kinases

>  <Ligand_Instance>  (193) 
nan

>  <PDB_ID>  (193) 
nan

>  <Standardized_SMILES>  (193) 
CN(C)CCNc1cncc(-c2ccc3[nH]cc(-c4cccc(F)c4F)c3c2)n1

>  <Name>  (193) 
nan

>  <Pocket>  (193) 
nan

>  <ATP_Site>  (193) 
nan

>  <Peripheral>  (193) 
nan

>  <Num_H_Atoms_ProtBoundConf>  (193) 
nan

>  <Num_Resolved_Atoms>  (193) 
nan

>  <Num_Not_Resolved_Atoms>  (193) 
nan

$$$$
CHEMBL3354520
     RDKit          3D

  0  0  0  0  0  0  0  0  0  0999 V3000
M  V30 BEGIN CTAB
M  V30 COUNTS 51 54 0 0 0
M  V30 BEGIN ATOM
M  V30 1 F 3.308126 3.167208 4.859339 0
M  V30 2 C 4.152224 2.232200 4.304663 0
M  V30 3 C 5.305710 1.821834 4.939344 0
M  V30 4 C 6.143037 0.879484 4.361577 0
M  V30 5 C 5.752337 0.391574 3.133561 0
M  V30 6 C 4.604461 0.791178 2.486467 0
M  V30 7 F 4.337172 0.227140 1.273183 0
M  V30 8 C 3.771672 1.730989 3.066800 0
M  V30 9 C 2.549745 2.144118 2.365068 0
M  V30 10 C 2.322046 3.192564 1.462839 0
M  V30 11 C 1.031701 3.298172 0.987541 0
M  V30 12 C 0.052027 2.422890 1.384828 0
M  V30 13 C 0.294537 1.395709 2.274142 0
M  V30 14 C -0.927492 0.600030 2.549737 0
M  V30 15 N -1.042946 -0.421203 1.541492 0
M  V30 16 C -0.371082 -1.551836 1.062328 0
M  V30 17 C 0.804539 -1.868365 1.723045 0
M  V30 18 N 1.572608 -2.928479 1.384532 0
M  V30 19 C 1.231582 -3.742651 0.374447 0
M  V30 20 C 0.064051 -3.432631 -0.286026 0
M  V30 21 C -0.757435 -2.380285 0.003113 0
M  V30 22 O -1.931937 -2.003240 -0.599825 0
M  V30 23 C -2.572391 -2.614886 -1.673202 0
M  V30 24 C -2.874710 -1.656544 -2.787514 0
M  V30 25 C -4.337347 -1.549895 -3.087460 0
M  V30 26 N -4.951872 -2.833377 -3.378546 0
M  V30 27 C -4.649716 -3.814509 -2.361352 0
M  V30 28 C -3.890905 -3.243170 -1.206586 0
M  V30 29 N 1.541538 1.322387 2.711686 0
M  V30 30 H 5.488990 2.292518 5.908153 0
M  V30 31 H 7.036100 0.587207 4.897178 0
M  V30 32 H 6.416928 -0.351450 2.682737 0
M  V30 33 H 3.232307 3.745456 1.295384 0
M  V30 34 H 0.944707 4.131265 0.299542 0
M  V30 35 H -0.894999 2.673050 0.895790 0
M  V30 36 H -1.819459 1.208798 2.670554 0
M  V30 37 H -0.696816 0.077208 3.534099 0
M  V30 38 H -1.922589 -0.272992 0.972401 0
M  V30 39 H 1.294683 -1.391709 2.558414 0
M  V30 40 H 1.780665 -4.607691 0.033722 0
M  V30 41 H -0.255630 -4.050414 -1.102787 0
M  V30 42 H -1.950099 -3.473935 -2.024865 0
M  V30 43 H -2.522257 -0.633264 -2.518647 0
M  V30 44 H -2.329400 -1.964933 -3.714474 0
M  V30 45 H -4.542226 -0.909834 -3.965119 0
M  V30 46 H -4.889444 -1.126094 -2.219376 0
M  V30 47 H -4.724734 -3.186638 -4.342038 0
M  V30 48 H -5.617294 -4.198662 -1.943369 0
M  V30 49 H -4.145955 -4.686487 -2.824289 0
M  V30 50 H -4.515637 -2.467783 -0.712305 0
M  V30 51 H -3.651421 -4.096730 -0.525267 0
M  V30 END ATOM
M  V30 BEGIN BOND
M  V30 1 1 1 2
M  V30 2 2 2 3
M  V30 3 1 3 4
M  V30 4 2 4 5
M  V30 5 1 5 6
M  V30 6 1 6 7
M  V30 7 2 6 8
M  V30 8 1 8 9
M  V30 9 2 9 10
M  V30 10 1 10 11
M  V30 11 2 11 12
M  V30 12 1 12 13
M  V30 13 1 13 14
M  V30 14 1 14 15
M  V30 15 1 15 16
M  V30 16 2 16 17
M  V30 17 1 17 18
M  V30 18 2 18 19
M  V30 19 1 19 20
M  V30 20 2 20 21
M  V30 21 1 21 22
M  V30 22 1 22 23
M  V30 23 1 23 24
M  V30 24 1 24 25
M  V30 25 1 25 26
M  V30 26 1 26 27
M  V30 27 1 27 28
M  V30 28 2 13 29
M  V30 29 1 8 2
M  V30 30 1 29 9
M  V30 31 1 21 16
M  V30 32 1 28 23
M  V30 33 1 3 30
M  V30 34 1 4 31
M  V30 35 1 5 32
M  V30 36 1 10 33
M  V30 37 1 11 34
M  V30 38 1 12 35
M  V30 39 1 14 36
M  V30 40 1 14 37
M  V30 41 1 15 38
M  V30 42 1 17 39
M  V30 43 1 19 40
M  V30 44 1 20 41
M  V30 45 1 23 42
M  V30 46 1 24 43
M  V30 47 1 24 44
M  V30 48 1 25 45
M  V30 49 1 25 46
M  V30 50 1 26 47
M  V30 51 1 27 48
M  V30 52 1 27 49
M  V30 53 1 28 50
M  V30 54 1 28 51
M  V30 END BOND
M  V30 END CTAB
M  END
>  <Dataset>  (194) 
ChEMBL_Kinases

>  <Ligand_Instance>  (194) 
nan

>  <PDB_ID>  (194) 
nan

>  <Standardized_SMILES>  (194) 
Fc1cccc(F)c1-c1cccc(CNc2cnccc2OC2CCNCC2)n1

>  <Name>  (194) 
nan

>  <Pocket>  (194) 
nan

>  <ATP_Site>  (194) 
nan

>  <Peripheral>  (194) 
nan

>  <Num_H_Atoms_ProtBoundConf>  (194) 
nan

>  <Num_Resolved_Atoms>  (194) 
nan

>  <Num_Not_Resolved_Atoms>  (194) 
nan

$$$$
CHEMBL4788136
     RDKit          3D

  0  0  0  0  0  0  0  0  0  0999 V3000
M  V30 BEGIN CTAB
M  V30 COUNTS 64 67 0 0 0
M  V30 BEGIN ATOM
M  V30 1 C 2.454933 -3.059332 5.469481 0
M  V30 2 C 2.782874 -1.764321 5.620207 0
M  V30 3 C 2.635488 -1.431906 4.231483 0
M  V30 4 O 2.289827 -2.397567 3.510111 0
M  V30 5 N 2.840386 -0.167678 3.645464 0
M  V30 6 C 2.715985 0.239250 2.297696 0
M  V30 7 C 2.350012 -0.552996 1.244675 0
M  V30 8 C 2.226710 -0.145576 -0.061973 0
M  V30 9 C 2.489563 1.170223 -0.365019 0
M  V30 10 C 2.448647 1.916694 -1.617065 0
M  V30 11 O 3.305771 2.466863 -2.350044 0
M  V30 12 N 1.114227 2.065045 -2.144704 0
M  V30 13 C 0.610337 2.745899 -3.355804 0
M  V30 14 C -0.409453 3.710640 -2.708676 0
M  V30 15 C -0.898868 2.902000 -1.507095 0 CFG=1
M  V30 16 N -2.301916 2.910427 -1.375604 0
M  V30 17 C -3.140695 2.181993 -0.516146 0
M  V30 18 N -4.288960 2.074656 -0.230885 0
M  V30 19 C -4.808774 1.241177 0.635072 0
M  V30 20 C -3.928851 0.381457 1.299603 0
M  V30 21 S -4.542980 -0.790094 2.502148 0
M  V30 22 C -3.186215 -1.845436 3.092075 0
M  V30 23 C -2.699119 -2.730462 1.972236 0
M  V30 24 N -3.316333 -3.941040 1.823333 0
M  V30 25 C -2.720234 -4.537537 0.776779 0
M  V30 26 C -1.749863 -3.684863 0.303792 0
M  V30 27 C -0.811067 -3.879408 -0.844580 0
M  V30 28 C -1.113897 -5.164149 -1.574808 0
M  V30 29 C -0.867040 -2.652198 -1.698197 0
M  V30 30 C 0.599861 -4.015308 -0.275876 0
M  V30 31 O -1.771118 -2.604831 1.054589 0
M  V30 32 S -2.308020 0.872112 0.579470 0
M  V30 33 C -0.211461 1.597565 -1.682009 0
M  V30 34 C 2.869701 2.015837 0.690066 0
M  V30 35 C 2.977432 1.551667 1.987206 0
M  V30 36 H 2.163354 -3.821908 4.778158 0
M  V30 37 H 2.370106 -3.901613 6.165437 0
M  V30 38 H 2.992849 -1.590408 6.662434 0
M  V30 39 H 3.122293 0.517575 4.372350 0
M  V30 40 H 2.129008 -1.586732 1.398022 0
M  V30 41 H 1.949064 -0.707242 -0.916940 0
M  V30 42 H 1.399037 3.264170 -3.894115 0
M  V30 43 H 0.028798 2.006461 -3.933182 0
M  V30 44 H 0.180948 4.576759 -2.354776 0
M  V30 45 H -1.205160 3.996255 -3.396690 0
M  V30 46 H -0.457916 3.365530 -0.569069 0
M  V30 47 H -2.834760 3.548328 -2.003106 0
M  V30 48 H -5.903000 1.309118 0.747672 0
M  V30 49 H -2.352420 -1.167974 3.360460 0
M  V30 50 H -3.488921 -2.437226 3.970156 0
M  V30 51 H -2.895321 -5.508154 0.310741 0
M  V30 52 H -1.212867 -5.972932 -0.834972 0
M  V30 53 H -1.977483 -5.075347 -2.257361 0
M  V30 54 H -0.218619 -5.405283 -2.197393 0
M  V30 55 H -1.041888 -1.769616 -1.013434 0
M  V30 56 H -1.730121 -2.640655 -2.392808 0
M  V30 57 H 0.087735 -2.424164 -2.214764 0
M  V30 58 H 1.090393 -3.025000 -0.208250 0
M  V30 59 H 1.197197 -4.763958 -0.834936 0
M  V30 60 H 0.507409 -4.400058 0.768647 0
M  V30 61 H -0.595600 0.960280 -2.489505 0
M  V30 62 H -0.118416 1.071159 -0.711303 0
M  V30 63 H 3.110136 3.087290 0.592866 0
M  V30 64 H 3.277740 2.231164 2.802375 0
M  V30 END ATOM
M  V30 BEGIN BOND
M  V30 1 2 1 2
M  V30 2 1 2 3
M  V30 3 2 3 4
M  V30 4 1 3 5
M  V30 5 1 5 6
M  V30 6 2 6 7
M  V30 7 1 7 8
M  V30 8 2 8 9
M  V30 9 1 9 10
M  V30 10 2 10 11
M  V30 11 1 10 12
M  V30 12 1 12 13
M  V30 13 1 13 14
M  V30 14 1 14 15
M  V30 15 1 15 16
M  V30 16 1 16 17
M  V30 17 2 17 18
M  V30 18 1 18 19
M  V30 19 2 19 20
M  V30 20 1 20 21
M  V30 21 1 21 22
M  V30 22 1 22 23
M  V30 23 2 23 24
M  V30 24 1 24 25
M  V30 25 2 25 26
M  V30 26 1 26 27
M  V30 27 1 27 28
M  V30 28 1 27 29
M  V30 29 1 27 30
M  V30 30 1 26 31
M  V30 31 1 20 32
M  V30 32 1 15 33
M  V30 33 1 9 34
M  V30 34 2 34 35
M  V30 35 1 35 6
M  V30 36 1 33 12
M  V30 37 1 32 17
M  V30 38 1 31 23
M  V30 39 1 1 36
M  V30 40 1 1 37
M  V30 41 1 2 38
M  V30 42 1 5 39
M  V30 43 1 7 40
M  V30 44 1 8 41
M  V30 45 1 13 42
M  V30 46 1 13 43
M  V30 47 1 14 44
M  V30 48 1 14 45
M  V30 49 1 15 46 CFG=1
M  V30 50 1 16 47
M  V30 51 1 19 48
M  V30 52 1 22 49
M  V30 53 1 22 50
M  V30 54 1 25 51
M  V30 55 1 28 52
M  V30 56 1 28 53
M  V30 57 1 28 54
M  V30 58 1 29 55
M  V30 59 1 29 56
M  V30 60 1 29 57
M  V30 61 1 30 58
M  V30 62 1 30 59
M  V30 63 1 30 60
M  V30 64 1 33 61
M  V30 65 1 33 62
M  V30 66 1 34 63
M  V30 67 1 35 64
M  V30 END BOND
M  V30 END CTAB
M  END
>  <Dataset>  (195) 
ChEMBL_Kinases

>  <Ligand_Instance>  (195) 
nan

>  <PDB_ID>  (195) 
nan

>  <Standardized_SMILES>  (195) 
C=CC(=O)Nc1ccc(C(=O)N2CC[C@@H](Nc3ncc(SCc4ncc(C(C)(C)C)o4)s3)C2)cc1

>  <Name>  (195) 
nan

>  <Pocket>  (195) 
nan

>  <ATP_Site>  (195) 
nan

>  <Peripheral>  (195) 
nan

>  <Num_H_Atoms_ProtBoundConf>  (195) 
nan

>  <Num_Resolved_Atoms>  (195) 
nan

>  <Num_Not_Resolved_Atoms>  (195) 
nan

$$$$
CHEMBL3335365
     RDKit          3D

  0  0  0  0  0  0  0  0  0  0999 V3000
M  V30 BEGIN CTAB
M  V30 COUNTS 30 31 0 0 0
M  V30 BEGIN ATOM
M  V30 1 C -3.008371 -2.890020 4.290551 0
M  V30 2 O -1.947092 -2.102967 4.784686 0
M  V30 3 C -1.052019 -1.385684 4.022037 0
M  V30 4 C -0.131526 -0.720185 4.839007 0
M  V30 5 C 0.845275 0.055575 4.199186 0
M  V30 6 C 0.770652 0.062754 2.818983 0
M  V30 7 S 1.844170 0.937384 1.601657 0
M  V30 8 C 1.005322 0.362641 0.155795 0
M  V30 9 C 1.504164 0.801058 -1.142970 0
M  V30 10 O 2.308860 1.780295 -1.065703 0
M  V30 11 N 1.205062 0.276185 -2.429957 0
M  V30 12 C 0.335347 -0.813427 -2.833820 0
M  V30 13 O 1.844437 0.894613 -3.483470 0
M  V30 14 C 3.089275 0.273253 -3.671793 0
M  V30 15 C 0.032065 -0.402534 0.636798 0
M  V30 16 C -0.108483 -0.570210 1.974181 0
M  V30 17 C -1.057734 -1.326671 2.653542 0
M  V30 18 H -2.750662 -3.371805 3.326591 0
M  V30 19 H -3.899152 -2.259766 4.090619 0
M  V30 20 H -3.245444 -3.667200 5.045077 0
M  V30 21 H -0.091007 -0.736661 5.906479 0
M  V30 22 H 1.620252 0.627401 4.660683 0
M  V30 23 H 0.329941 -0.974827 -3.908632 0
M  V30 24 H 0.689619 -1.763473 -2.365998 0
M  V30 25 H -0.707624 -0.676118 -2.474712 0
M  V30 26 H 3.027941 -0.641939 -4.284202 0
M  V30 27 H 3.748751 1.018998 -4.138882 0
M  V30 28 H 3.450758 -0.043081 -2.666106 0
M  V30 29 H -0.599915 -0.852018 -0.113779 0
M  V30 30 H -1.849984 -1.908710 2.157058 0
M  V30 END ATOM
M  V30 BEGIN BOND
M  V30 1 1 1 2
M  V30 2 1 2 3
M  V30 3 2 3 4
M  V30 4 1 4 5
M  V30 5 2 5 6
M  V30 6 1 6 7
M  V30 7 1 7 8
M  V30 8 1 8 9
M  V30 9 2 9 10
M  V30 10 1 9 11
M  V30 11 1 11 12
M  V30 12 1 11 13
M  V30 13 1 13 14
M  V30 14 2 8 15
M  V30 15 1 15 16
M  V30 16 2 16 17
M  V30 17 1 17 3
M  V30 18 1 16 6
M  V30 19 1 1 18
M  V30 20 1 1 19
M  V30 21 1 1 20
M  V30 22 1 4 21
M  V30 23 1 5 22
M  V30 24 1 12 23
M  V30 25 1 12 24
M  V30 26 1 12 25
M  V30 27 1 14 26
M  V30 28 1 14 27
M  V30 29 1 14 28
M  V30 30 1 15 29
M  V30 31 1 17 30
M  V30 END BOND
M  V30 END CTAB
M  END
>  <Dataset>  (196) 
ChEMBL_Kinases

>  <Ligand_Instance>  (196) 
nan

>  <PDB_ID>  (196) 
nan

>  <Standardized_SMILES>  (196) 
COc1ccc2sc(C(=O)N(C)OC)cc2c1

>  <Name>  (196) 
nan

>  <Pocket>  (196) 
nan

>  <ATP_Site>  (196) 
nan

>  <Peripheral>  (196) 
nan

>  <Num_H_Atoms_ProtBoundConf>  (196) 
nan

>  <Num_Resolved_Atoms>  (196) 
nan

>  <Num_Not_Resolved_Atoms>  (196) 
nan

$$$$
CHEMBL4791974
     RDKit          3D

  0  0  0  0  0  0  0  0  0  0999 V3000
M  V30 BEGIN CTAB
M  V30 COUNTS 49 54 0 0 0
M  V30 BEGIN ATOM
M  V30 1 C 3.037712 -2.907459 4.813765 0
M  V30 2 C 3.305995 -1.884807 3.770240 0
M  V30 3 N 4.532543 -1.680069 3.196929 0
M  V30 4 C 4.419001 -0.693945 2.305679 0
M  V30 5 C 3.099587 -0.234525 2.284206 0
M  V30 6 C 2.644109 0.826996 1.437788 0
M  V30 7 C 3.466432 1.962253 1.416507 0
M  V30 8 N 3.188651 3.060969 0.667289 0
M  V30 9 C 2.069965 3.079586 -0.101602 0
M  V30 10 N 1.489515 3.968181 -0.948445 0
M  V30 11 N 0.370206 3.453232 -1.445488 0
M  V30 12 C 0.141212 2.217810 -0.971240 0
M  V30 13 C -0.997556 1.372299 -1.313513 0
M  V30 14 N -1.259219 0.118590 -0.858536 0
M  V30 15 C -2.409813 -0.319011 -1.421614 0
M  V30 16 C -3.109518 -1.500931 -1.301765 0
M  V30 17 C -2.566746 -2.525053 -0.417700 0
M  V30 18 C -1.231768 -2.912408 -0.364400 0
M  V30 19 C -0.842485 -3.896370 0.514775 0
M  V30 20 C -1.788077 -4.477033 1.325019 0
M  V30 21 C -3.109922 -4.108522 1.287581 0
M  V30 22 F -3.999201 -4.718709 2.112721 0
M  V30 23 C -3.522566 -3.121901 0.411394 0
M  V30 24 N -4.259188 -1.611046 -2.029633 0
M  V30 25 C -4.660813 -0.596762 -2.815265 0
M  V30 26 C -3.972455 0.586776 -2.943627 0
M  V30 27 C -2.804804 0.731610 -2.221182 0
M  V30 28 N -1.956351 1.774023 -2.169584 0
M  V30 29 C 1.208169 1.987054 -0.129431 0
M  V30 30 C 1.520731 0.888693 0.643356 0
M  V30 31 N 2.477437 -0.996236 3.193231 0
M  V30 32 C 1.086780 -0.903891 3.544834 0
M  V30 33 H 2.335997 -2.517808 5.582642 0
M  V30 34 H 3.987745 -3.124753 5.341520 0
M  V30 35 H 2.556903 -3.799795 4.356723 0
M  V30 36 H 5.303919 -0.405643 1.759380 0
M  V30 37 H 4.383370 2.034924 2.001307 0
M  V30 38 H 1.901749 4.906617 -1.147438 0
M  V30 39 H -0.636082 -2.357976 -1.061939 0
M  V30 40 H 0.204088 -4.144930 0.502543 0
M  V30 41 H -1.410185 -5.236019 1.984340 0
M  V30 42 H -4.564800 -2.881010 0.431345 0
M  V30 43 H -5.590622 -0.768107 -3.362443 0
M  V30 44 H -4.348552 1.380307 -3.600032 0
M  V30 45 H -2.034349 2.672596 -2.676153 0
M  V30 46 H 0.897469 0.031271 0.653582 0
M  V30 47 H 0.951113 -0.788344 4.663433 0
M  V30 48 H 0.577949 -1.895451 3.351694 0
M  V30 49 H 0.509623 -0.152724 2.992810 0
M  V30 END ATOM
M  V30 BEGIN BOND
M  V30 1 1 1 2
M  V30 2 2 2 3
M  V30 3 1 3 4
M  V30 4 2 4 5
M  V30 5 1 5 6
M  V30 6 2 6 7
M  V30 7 1 7 8
M  V30 8 2 8 9
M  V30 9 1 9 10
M  V30 10 1 10 11
M  V30 11 2 11 12
M  V30 12 1 12 13
M  V30 13 2 13 14
M  V30 14 1 14 15
M  V30 15 2 15 16
M  V30 16 1 16 17
M  V30 17 2 17 18
M  V30 18 1 18 19
M  V30 19 2 19 20
M  V30 20 1 20 21
M  V30 21 1 21 22
M  V30 22 2 21 23
M  V30 23 1 16 24
M  V30 24 2 24 25
M  V30 25 1 25 26
M  V30 26 2 26 27
M  V30 27 1 27 28
M  V30 28 1 12 29
M  V30 29 2 29 30
M  V30 30 1 5 31
M  V30 31 1 31 32
M  V30 32 1 31 2
M  V30 33 1 30 6
M  V30 34 1 29 9
M  V30 35 1 28 13
M  V30 36 1 27 15
M  V30 37 1 23 17
M  V30 38 1 1 33
M  V30 39 1 1 34
M  V30 40 1 1 35
M  V30 41 1 4 36
M  V30 42 1 7 37
M  V30 43 1 10 38
M  V30 44 1 18 39
M  V30 45 1 19 40
M  V30 46 1 20 41
M  V30 47 1 23 42
M  V30 48 1 25 43
M  V30 49 1 26 44
M  V30 50 1 28 45
M  V30 51 1 30 46
M  V30 52 1 32 47
M  V30 53 1 32 48
M  V30 54 1 32 49
M  V30 END BOND
M  V30 END CTAB
M  END
>  <Dataset>  (197) 
ChEMBL_Kinases

>  <Ligand_Instance>  (197) 
nan

>  <PDB_ID>  (197) 
nan

>  <Standardized_SMILES>  (197) 
Cc1ncc(-c2cnc3[nH]nc(-c4nc5c(-c6cccc(F)c6)nccc5[nH]4)c3c2)n1C

>  <Name>  (197) 
nan

>  <Pocket>  (197) 
nan

>  <ATP_Site>  (197) 
nan

>  <Peripheral>  (197) 
nan

>  <Num_H_Atoms_ProtBoundConf>  (197) 
nan

>  <Num_Resolved_Atoms>  (197) 
nan

>  <Num_Not_Resolved_Atoms>  (197) 
nan

$$$$
CHEMBL4791991
     RDKit          3D

  0  0  0  0  0  0  0  0  0  0999 V3000
M  V30 BEGIN CTAB
M  V30 COUNTS 64 69 0 0 0
M  V30 BEGIN ATOM
M  V30 1 C 2.993094 -1.111952 4.809408 0
M  V30 2 N 2.930560 -2.037853 3.738286 0
M  V30 3 C 3.643698 -3.257779 3.882552 0
M  V30 4 C 1.762417 -2.054097 2.943772 0
M  V30 5 C 1.520576 -0.848094 2.083631 0
M  V30 6 N 2.598993 -0.626061 1.132759 0
M  V30 7 C 2.516660 0.469075 0.214285 0
M  V30 8 C 3.516149 0.717410 -0.702083 0
M  V30 9 C 3.450151 1.771353 -1.605512 0
M  V30 10 F 4.457889 1.978348 -2.490717 0
M  V30 11 C 2.318172 2.592291 -1.560555 0
M  V30 12 C 1.306423 2.371974 -0.661086 0
M  V30 13 C 0.131677 3.235904 -0.619538 0
M  V30 14 C 0.302184 4.602209 -0.594500 0
M  V30 15 C -0.830674 5.387200 -0.541307 0
M  V30 16 C -2.105058 4.843221 -0.513187 0
M  V30 17 C -2.294186 3.472369 -0.538067 0
M  V30 18 N -3.340959 2.636212 -0.526557 0
M  V30 19 C -2.976131 1.334048 -0.569722 0
M  V30 20 C -3.972352 0.288857 -0.561185 0
M  V30 21 N -5.296198 0.488407 -0.511794 0
M  V30 22 N -5.968046 -0.633640 -0.514761 0
M  V30 23 C -5.125354 -1.684639 -0.567426 0
M  V30 24 C -5.285385 -3.053689 -0.594012 0
M  V30 25 N -4.160909 -3.803275 -0.650147 0
M  V30 26 C -2.927466 -3.290627 -0.680375 0
M  V30 27 C -1.795575 -4.202954 -0.742738 0
M  V30 28 C -2.058522 -5.551221 -0.768070 0
M  V30 29 N -1.045298 -6.429456 -0.827263 0
M  V30 30 C 0.248227 -6.126467 -0.866080 0
M  V30 31 C 0.524587 -4.777318 -0.841209 0
M  V30 32 O 1.856313 -4.325887 -0.877343 0
M  V30 33 C -0.481813 -3.822808 -0.780302 0
M  V30 34 C -2.801298 -1.919346 -0.652469 0
M  V30 35 C -3.887865 -1.078148 -0.595438 0
M  V30 36 C -1.612780 1.417720 -0.609602 0
M  V30 37 C -1.137224 2.701573 -0.591894 0
M  V30 38 C 1.406820 1.300572 0.234935 0
M  V30 39 H 2.030864 -1.168682 5.381731 0
M  V30 40 H 3.260204 -0.076461 4.544352 0
M  V30 41 H 3.778396 -1.490368 5.518233 0
M  V30 42 H 3.215453 -4.004752 3.170103 0
M  V30 43 H 4.743965 -3.172729 3.781722 0
M  V30 44 H 3.450245 -3.667207 4.902739 0
M  V30 45 H 1.788552 -2.948393 2.296310 0
M  V30 46 H 0.859644 -2.159413 3.587288 0
M  V30 47 H 0.595077 -1.035232 1.500364 0
M  V30 48 H 1.325859 0.067706 2.698864 0
M  V30 49 H 3.449703 -1.239819 1.086171 0
M  V30 50 H 4.363567 0.055080 -0.692127 0
M  V30 51 H 2.228283 3.425900 -2.249581 0
M  V30 52 H 1.305734 4.978519 -0.617808 0
M  V30 53 H -0.720988 6.470819 -0.521539 0
M  V30 54 H -2.981849 5.473218 -0.471549 0
M  V30 55 H -4.288651 3.077753 -0.486851 0
M  V30 56 H -7.011385 -0.681690 -0.480203 0
M  V30 57 H -6.276586 -3.485708 -0.570121 0
M  V30 58 H -3.044058 -5.999026 -0.743608 0
M  V30 59 H 1.054107 -6.835986 -0.914334 0
M  V30 60 H 2.063420 -3.474722 -1.351153 0
M  V30 61 H -0.233852 -2.779969 -0.762452 0
M  V30 62 H -1.820941 -1.521720 -0.677041 0
M  V30 63 H -0.965032 0.566210 -0.656315 0
M  V30 64 H 0.659239 1.067860 0.975831 0
M  V30 END ATOM
M  V30 BEGIN BOND
M  V30 1 1 1 2
M  V30 2 1 2 3
M  V30 3 1 2 4
M  V30 4 1 4 5
M  V30 5 1 5 6
M  V30 6 1 6 7
M  V30 7 2 7 8
M  V30 8 1 8 9
M  V30 9 1 9 10
M  V30 10 2 9 11
M  V30 11 1 11 12
M  V30 12 1 12 13
M  V30 13 2 13 14
M  V30 14 1 14 15
M  V30 15 2 15 16
M  V30 16 1 16 17
M  V30 17 1 17 18
M  V30 18 1 18 19
M  V30 19 1 19 20
M  V30 20 2 20 21
M  V30 21 1 21 22
M  V30 22 1 22 23
M  V30 23 2 23 24
M  V30 24 1 24 25
M  V30 25 2 25 26
M  V30 26 1 26 27
M  V30 27 2 27 28
M  V30 28 1 28 29
M  V30 29 2 29 30
M  V30 30 1 30 31
M  V30 31 1 31 32
M  V30 32 2 31 33
M  V30 33 1 26 34
M  V30 34 2 34 35
M  V30 35 2 19 36
M  V30 36 1 36 37
M  V30 37 2 12 38
M  V30 38 1 38 7
M  V30 39 1 37 13
M  V30 40 2 37 17
M  V30 41 1 35 20
M  V30 42 1 35 23
M  V30 43 1 33 27
M  V30 44 1 1 39
M  V30 45 1 1 40
M  V30 46 1 1 41
M  V30 47 1 3 42
M  V30 48 1 3 43
M  V30 49 1 3 44
M  V30 50 1 4 45
M  V30 51 1 4 46
M  V30 52 1 5 47
M  V30 53 1 5 48
M  V30 54 1 6 49
M  V30 55 1 8 50
M  V30 56 1 11 51
M  V30 57 1 14 52
M  V30 58 1 15 53
M  V30 59 1 16 54
M  V30 60 1 18 55
M  V30 61 1 22 56
M  V30 62 1 24 57
M  V30 63 1 28 58
M  V30 64 1 30 59
M  V30 65 1 32 60
M  V30 66 1 33 61
M  V30 67 1 34 62
M  V30 68 1 36 63
M  V30 69 1 38 64
M  V30 END BOND
M  V30 END CTAB
M  END
>  <Dataset>  (198) 
ChEMBL_Kinases

>  <Ligand_Instance>  (198) 
nan

>  <PDB_ID>  (198) 
nan

>  <Standardized_SMILES>  (198) 
CN(C)CCNc1cc(F)cc(-c2cccc3[nH]c(-c4n[nH]c5cnc(-c6cncc(O)c6)cc45)cc23)c1

>  <Name>  (198) 
nan

>  <Pocket>  (198) 
nan

>  <ATP_Site>  (198) 
nan

>  <Peripheral>  (198) 
nan

>  <Num_H_Atoms_ProtBoundConf>  (198) 
nan

>  <Num_Resolved_Atoms>  (198) 
nan

>  <Num_Not_Resolved_Atoms>  (198) 
nan

$$$$
CHEMBL4128114
     RDKit          3D

  0  0  0  0  0  0  0  0  0  0999 V3000
M  V30 BEGIN CTAB
M  V30 COUNTS 47 50 0 0 0
M  V30 BEGIN ATOM
M  V30 1 C 1.428288 -6.103921 3.996922 0
M  V30 2 S 2.267668 -6.679668 2.555243 0
M  V30 3 O 3.108492 -7.877708 2.888836 0
M  V30 4 O 1.244030 -7.150535 1.533946 0
M  V30 5 N 3.242955 -5.445875 1.832173 0
M  V30 6 C 2.689454 -4.240421 1.326399 0
M  V30 7 C 3.188919 -3.893383 0.082599 0
M  V30 8 C 2.793167 -2.751534 -0.612837 0
M  V30 9 C 1.853921 -1.938648 -0.012635 0
M  V30 10 C 1.400241 -0.730057 -0.691477 0
M  V30 11 C 0.471296 0.171345 -0.213040 0
M  V30 12 C 0.327069 1.167636 -1.156300 0
M  V30 13 C -0.486267 2.281765 -1.122187 0
M  V30 14 C -1.396302 2.642857 -0.039665 0
M  V30 15 C -2.262483 1.768388 0.585183 0
M  V30 16 C -3.109135 2.141876 1.607734 0
M  V30 17 C -3.034819 3.471544 1.974614 0
M  V30 18 C -3.909277 3.915733 3.050923 0
M  V30 19 N -4.812159 3.043375 3.719791 0
M  V30 20 O -4.141920 4.985112 3.653472 0
M  V30 21 C -2.198360 4.408142 1.401998 0
M  V30 22 C -1.360692 3.976871 0.369672 0
M  V30 23 C -0.395865 3.105158 -2.249333 0
M  V30 24 C 0.445302 2.830413 -3.325587 0
M  V30 25 N 1.202057 1.708955 -3.256959 0
M  V30 26 C 1.162444 0.880401 -2.208190 0
M  V30 27 N 1.799860 -0.282664 -1.889491 0
M  V30 28 C 1.344612 -2.266833 1.225282 0
M  V30 29 C 1.753690 -3.402708 1.891497 0
M  V30 30 H 2.019332 -5.342543 4.523213 0
M  V30 31 H 0.401038 -5.718380 3.739631 0
M  V30 32 H 1.341914 -6.982127 4.683380 0
M  V30 33 H 4.292259 -5.607393 1.770307 0
M  V30 34 H 3.939143 -4.484010 -0.466431 0
M  V30 35 H 3.193461 -2.495095 -1.583885 0
M  V30 36 H -0.030548 0.075891 0.739290 0
M  V30 37 H -2.276215 0.740470 0.252934 0
M  V30 38 H -3.780203 1.441107 2.084080 0
M  V30 39 H -5.830185 2.916534 3.889639 0
M  V30 40 H -4.358775 2.235522 4.233669 0
M  V30 41 H -2.208611 5.443499 1.759983 0
M  V30 42 H -0.727144 4.751231 -0.042196 0
M  V30 43 H -1.009731 4.001550 -2.289095 0
M  V30 44 H 0.484805 3.495135 -4.179693 0
M  V30 45 H 2.514164 -0.786277 -2.482550 0
M  V30 46 H 0.602456 -1.634854 1.711826 0
M  V30 47 H 1.406741 -3.730145 2.858908 0
M  V30 END ATOM
M  V30 BEGIN BOND
M  V30 1 1 1 2
M  V30 2 2 2 3
M  V30 3 2 2 4
M  V30 4 1 2 5
M  V30 5 1 5 6
M  V30 6 2 6 7
M  V30 7 1 7 8
M  V30 8 2 8 9
M  V30 9 1 9 10
M  V30 10 2 10 11
M  V30 11 1 11 12
M  V30 12 2 12 13
M  V30 13 1 13 14
M  V30 14 2 14 15
M  V30 15 1 15 16
M  V30 16 2 16 17
M  V30 17 1 17 18
M  V30 18 1 18 19
M  V30 19 2 18 20
M  V30 20 1 17 21
M  V30 21 2 21 22
M  V30 22 1 13 23
M  V30 23 2 23 24
M  V30 24 1 24 25
M  V30 25 2 25 26
M  V30 26 1 26 27
M  V30 27 1 9 28
M  V30 28 2 28 29
M  V30 29 1 29 6
M  V30 30 1 27 10
M  V30 31 1 26 12
M  V30 32 1 22 14
M  V30 33 1 1 30
M  V30 34 1 1 31
M  V30 35 1 1 32
M  V30 36 1 5 33
M  V30 37 1 7 34
M  V30 38 1 8 35
M  V30 39 1 11 36
M  V30 40 1 15 37
M  V30 41 1 16 38
M  V30 42 1 19 39
M  V30 43 1 19 40
M  V30 44 1 21 41
M  V30 45 1 22 42
M  V30 46 1 23 43
M  V30 47 1 24 44
M  V30 48 1 27 45
M  V30 49 1 28 46
M  V30 50 1 29 47
M  V30 END BOND
M  V30 END CTAB
M  END
>  <Dataset>  (199) 
ChEMBL_Kinases

>  <Ligand_Instance>  (199) 
nan

>  <PDB_ID>  (199) 
nan

>  <Standardized_SMILES>  (199) 
CS(=O)(=O)Nc1ccc(-c2cc3c(-c4ccc(C(N)=O)cc4)ccnc3[nH]2)cc1

>  <Name>  (199) 
nan

>  <Pocket>  (199) 
nan

>  <ATP_Site>  (199) 
nan

>  <Peripheral>  (199) 
nan

>  <Num_H_Atoms_ProtBoundConf>  (199) 
nan

>  <Num_Resolved_Atoms>  (199) 
nan

>  <Num_Not_Resolved_Atoms>  (199) 
nan

$$$$
CHEMBL3354521
     RDKit          3D

  0  0  0  0  0  0  0  0  0  0999 V3000
M  V30 BEGIN CTAB
M  V30 COUNTS 50 53 0 0 0
M  V30 BEGIN ATOM
M  V30 1 O -1.972400 1.977765 -0.155667 0
M  V30 2 C -1.732656 0.743781 -0.157254 0
M  V30 3 N -0.696231 0.206666 -0.955088 0
M  V30 4 C 0.228619 0.829231 -1.848682 0
M  V30 5 C -0.261840 0.900397 -3.158799 0
M  V30 6 N 0.512904 1.465822 -4.102967 0
M  V30 7 C 1.733497 1.959373 -3.824401 0
M  V30 8 C 2.247079 1.905755 -2.545511 0
M  V30 9 C 1.496680 1.336763 -1.536064 0
M  V30 10 O 1.740162 1.143979 -0.185630 0
M  V30 11 C 2.918087 1.528626 0.489480 0
M  V30 12 C 3.635626 0.343658 1.093068 0
M  V30 13 C 3.122641 -0.022338 2.465522 0
M  V30 14 N 3.264433 1.073263 3.404145 0
M  V30 15 C 3.581135 2.319530 2.735800 0
M  V30 16 C 2.621454 2.524943 1.596606 0
M  V30 17 C -2.487622 -0.217138 0.646908 0
M  V30 18 C -3.504735 0.284148 1.434312 0
M  V30 19 C -4.248685 -0.583372 2.213705 0
M  V30 20 C -3.979021 -1.937666 2.206296 0
M  V30 21 C -2.955482 -2.410762 1.408763 0
M  V30 22 C -2.482632 -3.782767 1.230448 0
M  V30 23 C -2.980004 -4.638496 0.269377 0
M  V30 24 F -3.956326 -4.196011 -0.556593 0
M  V30 25 C -2.540349 -5.934062 0.093600 0
M  V30 26 C -1.539528 -6.427324 0.920620 0
M  V30 27 C -1.025287 -5.591561 1.889801 0
M  V30 28 C -1.475485 -4.295487 2.054525 0
M  V30 29 F -0.956380 -3.481480 3.018000 0
M  V30 30 N -2.250014 -1.539262 0.661625 0
M  V30 31 H -0.430705 -0.820835 -1.012733 0
M  V30 32 H -1.229825 0.527959 -3.464075 0
M  V30 33 H 2.414322 2.427704 -4.527008 0
M  V30 34 H 3.196251 2.253666 -2.169285 0
M  V30 35 H 3.633752 2.009587 -0.203112 0
M  V30 36 H 3.486690 -0.552187 0.446716 0
M  V30 37 H 4.732436 0.479807 1.151834 0
M  V30 38 H 3.785715 -0.841981 2.825497 0
M  V30 39 H 2.098646 -0.446535 2.430518 0
M  V30 40 H 2.428106 1.144768 3.993704 0
M  V30 41 H 4.611030 2.349160 2.374726 0
M  V30 42 H 3.367261 3.139828 3.478306 0
M  V30 43 H 1.601993 2.342484 2.017316 0
M  V30 44 H 2.731364 3.533791 1.191629 0
M  V30 45 H -3.747057 1.337960 1.467825 0
M  V30 46 H -5.062577 -0.275769 2.859185 0
M  V30 47 H -4.476142 -2.723672 2.761138 0
M  V30 48 H -2.924141 -6.603664 -0.652583 0
M  V30 49 H -1.140694 -7.428113 0.848323 0
M  V30 50 H -0.232545 -5.981373 2.545402 0
M  V30 END ATOM
M  V30 BEGIN BOND
M  V30 1 2 1 2
M  V30 2 1 2 3
M  V30 3 1 3 4
M  V30 4 2 4 5
M  V30 5 1 5 6
M  V30 6 2 6 7
M  V30 7 1 7 8
M  V30 8 2 8 9
M  V30 9 1 9 10
M  V30 10 1 10 11
M  V30 11 1 11 12
M  V30 12 1 12 13
M  V30 13 1 13 14
M  V30 14 1 14 15
M  V30 15 1 15 16
M  V30 16 1 2 17
M  V30 17 2 17 18
M  V30 18 1 18 19
M  V30 19 2 19 20
M  V30 20 1 20 21
M  V30 21 1 21 22
M  V30 22 2 22 23
M  V30 23 1 23 24
M  V30 24 1 23 25
M  V30 25 2 25 26
M  V30 26 1 26 27
M  V30 27 2 27 28
M  V30 28 1 28 29
M  V30 29 2 21 30
M  V30 30 1 9 4
M  V30 31 1 16 11
M  V30 32 1 30 17
M  V30 33 1 28 22
M  V30 34 1 3 31
M  V30 35 1 5 32
M  V30 36 1 7 33
M  V30 37 1 8 34
M  V30 38 1 11 35
M  V30 39 1 12 36
M  V30 40 1 12 37
M  V30 41 1 13 38
M  V30 42 1 13 39
M  V30 43 1 14 40
M  V30 44 1 15 41
M  V30 45 1 15 42
M  V30 46 1 16 43
M  V30 47 1 16 44
M  V30 48 1 18 45
M  V30 49 1 19 46
M  V30 50 1 20 47
M  V30 51 1 25 48
M  V30 52 1 26 49
M  V30 53 1 27 50
M  V30 END BOND
M  V30 END CTAB
M  END
>  <Dataset>  (200) 
ChEMBL_Kinases

>  <Ligand_Instance>  (200) 
nan

>  <PDB_ID>  (200) 
nan

>  <Standardized_SMILES>  (200) 
O=C(Nc1cnccc1OC1CCNCC1)c1cccc(-c2c(F)cccc2F)n1

>  <Name>  (200) 
nan

>  <Pocket>  (200) 
nan

>  <ATP_Site>  (200) 
nan

>  <Peripheral>  (200) 
nan

>  <Num_H_Atoms_ProtBoundConf>  (200) 
nan

>  <Num_Resolved_Atoms>  (200) 
nan

>  <Num_Not_Resolved_Atoms>  (200) 
nan

$$$$
CHEMBL3354522
     RDKit          3D

  0  0  0  0  0  0  0  0  0  0999 V3000
M  V30 BEGIN CTAB
M  V30 COUNTS 48 52 0 0 0
M  V30 BEGIN ATOM
M  V30 1 F 0.815424 -5.132927 -2.053688 0
M  V30 2 C 2.067868 -4.711392 -1.770440 0
M  V30 3 C 3.218475 -5.476592 -1.790094 0
M  V30 4 C 4.446819 -4.918447 -1.477157 0
M  V30 5 C 4.590183 -3.572468 -1.129592 0
M  V30 6 C 3.427192 -2.818773 -1.114518 0
M  V30 7 F 3.622874 -1.521846 -0.771309 0
M  V30 8 C 2.212830 -3.386940 -1.427871 0
M  V30 9 C 1.140664 -2.409361 -1.345306 0
M  V30 10 N 0.909722 -1.299087 -1.109023 0
M  V30 11 C -0.252957 -0.675226 -1.125438 0
M  V30 12 C -0.484494 0.674119 -0.831190 0
M  V30 13 N 0.503831 1.651827 -0.451020 0
M  V30 14 C 1.163620 1.261857 0.745029 0
M  V30 15 C 2.542402 1.050107 0.798050 0
M  V30 16 N 3.229423 0.684400 1.879868 0
M  V30 17 C 2.578317 0.490789 3.045753 0
M  V30 18 C 1.199356 0.690164 3.043028 0
M  V30 19 C 0.477347 1.069194 1.927613 0
M  V30 20 O -0.878565 1.265956 1.922030 0
M  V30 21 C -1.774950 1.137342 2.967900 0 CFG=1
M  V30 22 C -2.643733 2.346537 3.228992 0
M  V30 23 C -3.660996 1.707643 4.184138 0
M  V30 24 N -3.815494 0.346416 3.719942 0
M  V30 25 C -2.873311 0.108390 2.666318 0
M  V30 26 C -1.777185 1.132932 -0.906474 0
M  V30 27 C -2.911182 0.388058 -1.251150 0
M  V30 28 C -2.634317 -0.949988 -1.536107 0
M  V30 29 C -1.349200 -1.432005 -1.467554 0
M  V30 30 S -0.614835 -3.006317 -1.743823 0
M  V30 31 H 3.096993 -6.516026 -2.060058 0
M  V30 32 H 5.330514 -5.553845 -1.503835 0
M  V30 33 H 5.559617 -3.204331 -0.900180 0
M  V30 34 H 0.634518 2.503902 -1.053931 0
M  V30 35 H 3.083685 1.201069 -0.130649 0
M  V30 36 H 3.061160 0.190865 3.980071 0
M  V30 37 H 0.682522 0.535148 3.973882 0
M  V30 38 H -1.334434 0.837996 3.925566 0
M  V30 39 H -2.132912 3.188607 3.695434 0
M  V30 40 H -3.241092 2.598479 2.325872 0
M  V30 41 H -4.592133 2.274482 4.245633 0
M  V30 42 H -3.137764 1.627967 5.167837 0
M  V30 43 H -3.622233 -0.372036 4.473443 0
M  V30 44 H -3.319958 0.410460 1.685614 0
M  V30 45 H -2.464804 -0.923092 2.641003 0
M  V30 46 H -2.014847 2.180189 -0.686474 0
M  V30 47 H -3.891898 0.786623 -1.296007 0
M  V30 48 H -3.428036 -1.628033 -1.815404 0
M  V30 END ATOM
M  V30 BEGIN BOND
M  V30 1 1 1 2
M  V30 2 2 2 3
M  V30 3 1 3 4
M  V30 4 2 4 5
M  V30 5 1 5 6
M  V30 6 1 6 7
M  V30 7 2 6 8
M  V30 8 1 8 9
M  V30 9 2 9 10
M  V30 10 1 10 11
M  V30 11 2 11 12
M  V30 12 1 12 13
M  V30 13 1 13 14
M  V30 14 2 14 15
M  V30 15 1 15 16
M  V30 16 2 16 17
M  V30 17 1 17 18
M  V30 18 2 18 19
M  V30 19 1 19 20
M  V30 20 1 20 21
M  V30 21 1 21 22
M  V30 22 1 22 23
M  V30 23 1 23 24
M  V30 24 1 24 25
M  V30 25 1 12 26
M  V30 26 2 26 27
M  V30 27 1 27 28
M  V30 28 2 28 29
M  V30 29 1 29 30
M  V30 30 1 8 2
M  V30 31 1 30 9
M  V30 32 1 29 11
M  V30 33 1 19 14
M  V30 34 1 25 21
M  V30 35 1 3 31
M  V30 36 1 4 32
M  V30 37 1 5 33
M  V30 38 1 13 34
M  V30 39 1 15 35
M  V30 40 1 17 36
M  V30 41 1 18 37
M  V30 42 1 21 38 CFG=1
M  V30 43 1 22 39
M  V30 44 1 22 40
M  V30 45 1 23 41
M  V30 46 1 23 42
M  V30 47 1 24 43
M  V30 48 1 25 44
M  V30 49 1 25 45
M  V30 50 1 26 46
M  V30 51 1 27 47
M  V30 52 1 28 48
M  V30 END BOND
M  V30 END CTAB
M  END
>  <Dataset>  (201) 
ChEMBL_Kinases

>  <Ligand_Instance>  (201) 
nan

>  <PDB_ID>  (201) 
nan

>  <Standardized_SMILES>  (201) 
Fc1cccc(F)c1-c1nc2c(Nc3cnccc3O[C@H]3CCNC3)cccc2s1

>  <Name>  (201) 
nan

>  <Pocket>  (201) 
nan

>  <ATP_Site>  (201) 
nan

>  <Peripheral>  (201) 
nan

>  <Num_H_Atoms_ProtBoundConf>  (201) 
nan

>  <Num_Resolved_Atoms>  (201) 
nan

>  <Num_Not_Resolved_Atoms>  (201) 
nan

$$$$
CHEMBL3335363
     RDKit          3D

  0  0  0  0  0  0  0  0  0  0999 V3000
M  V30 BEGIN CTAB
M  V30 COUNTS 21 22 0 0 0
M  V30 BEGIN ATOM
M  V30 1 C 1.894786 0.024010 4.448036 0
M  V30 2 C 1.511063 1.188236 3.651120 0
M  V30 3 O 1.538957 2.381267 4.028182 0
M  V30 4 C 1.037282 0.953998 2.249643 0
M  V30 5 C 0.886145 -0.205476 1.531648 0
M  V30 6 C 0.430282 -0.080178 0.270759 0
M  V30 7 C 0.218065 -1.163420 -0.601386 0
M  V30 8 C -0.251411 -0.898023 -1.865939 0
M  V30 9 O -0.468590 -1.973736 -2.750289 0
M  V30 10 C -0.546429 0.340751 -2.392816 0
M  V30 11 C -0.324697 1.378509 -1.505038 0
M  V30 12 C 0.156745 1.127661 -0.202934 0
M  V30 13 S 0.534638 2.172415 1.129171 0
M  V30 14 H 1.116335 -0.750745 4.480444 0
M  V30 15 H 2.091115 0.412979 5.489494 0
M  V30 16 H 2.885034 -0.337420 4.108717 0
M  V30 17 H 1.162400 -1.120836 2.086082 0
M  V30 18 H 0.398014 -2.200802 -0.350351 0
M  V30 19 H -0.797690 -2.869195 -2.466558 0
M  V30 20 H -0.910278 0.499076 -3.384652 0
M  V30 21 H -0.513926 2.406094 -1.784778 0
M  V30 END ATOM
M  V30 BEGIN BOND
M  V30 1 1 1 2
M  V30 2 2 2 3
M  V30 3 1 2 4
M  V30 4 2 4 5
M  V30 5 1 5 6
M  V30 6 2 6 7
M  V30 7 1 7 8
M  V30 8 1 8 9
M  V30 9 2 8 10
M  V30 10 1 10 11
M  V30 11 2 11 12
M  V30 12 1 12 13
M  V30 13 1 13 4
M  V30 14 1 12 6
M  V30 15 1 1 14
M  V30 16 1 1 15
M  V30 17 1 1 16
M  V30 18 1 5 17
M  V30 19 1 7 18
M  V30 20 1 9 19
M  V30 21 1 10 20
M  V30 22 1 11 21
M  V30 END BOND
M  V30 END CTAB
M  END
>  <Dataset>  (202) 
ChEMBL_Kinases

>  <Ligand_Instance>  (202) 
nan

>  <PDB_ID>  (202) 
nan

>  <Standardized_SMILES>  (202) 
CC(=O)c1cc2cc(O)ccc2s1

>  <Name>  (202) 
nan

>  <Pocket>  (202) 
nan

>  <ATP_Site>  (202) 
nan

>  <Peripheral>  (202) 
nan

>  <Num_H_Atoms_ProtBoundConf>  (202) 
nan

>  <Num_Resolved_Atoms>  (202) 
nan

>  <Num_Not_Resolved_Atoms>  (202) 
nan

$$$$
CHEMBL4787864
     RDKit          3D

  0  0  0  0  0  0  0  0  0  0999 V3000
M  V30 BEGIN CTAB
M  V30 COUNTS 72 78 0 0 0
M  V30 BEGIN ATOM
M  V30 1 C 7.407543 0.325843 5.122822 0
M  V30 2 N 6.271609 -0.509645 4.896429 0
M  V30 3 C 6.315390 -1.319916 3.721362 0
M  V30 4 C 5.933472 -0.572511 2.477935 0
M  V30 5 N 4.501258 -0.260073 2.624939 0
M  V30 6 C 3.608638 -0.924917 1.741317 0
M  V30 7 C 3.979954 -2.180824 1.311033 0
M  V30 8 C 3.146155 -2.910808 0.494959 0
M  V30 9 C 1.930739 -2.399285 0.096171 0
M  V30 10 C 1.535372 -1.149646 0.509410 0
M  V30 11 N 0.467897 -0.364515 0.316665 0
M  V30 12 C 0.531838 0.815609 0.934185 0
M  V30 13 C -0.355003 1.957946 1.022318 0
M  V30 14 N -0.113823 3.092880 1.711625 0
M  V30 15 N -1.101215 3.955587 1.612547 0
M  V30 16 C -2.080745 3.452614 0.842727 0
M  V30 17 N -3.275014 3.922203 0.440005 0
M  V30 18 C -4.039701 3.147684 -0.348908 0
M  V30 19 C -3.621048 1.879146 -0.753298 0
M  V30 20 C -4.479932 1.065252 -1.609963 0
M  V30 21 C -5.861433 1.151973 -1.519512 0
M  V30 22 N -6.716849 0.420079 -2.293002 0
M  V30 23 C -6.202296 -0.441917 -3.202880 0
M  V30 24 C -4.829112 -0.569117 -3.336187 0
M  V30 25 C -4.253968 -1.492378 -4.316061 0
M  V30 26 N -4.002935 -2.815997 -3.875897 0
M  V30 27 C -5.169844 -3.528609 -3.420687 0
M  V30 28 C -4.719623 -4.791896 -2.689579 0
M  V30 29 C -4.047869 -4.415876 -1.401868 0
M  V30 30 C -3.166098 -3.230911 -1.607757 0
M  V30 31 C -2.847058 -3.024266 -3.069583 0
M  V30 32 C -3.974928 0.180006 -2.544337 0
M  V30 33 C -2.406579 1.461452 -0.314306 0
M  V30 34 C -1.590783 2.217202 0.492749 0
M  V30 35 C 1.756599 0.752454 1.568904 0
M  V30 36 C 2.389896 -0.442624 1.324786 0
M  V30 37 C 4.425252 0.671495 3.720244 0
M  V30 38 C 5.063478 0.228092 4.995373 0
M  V30 39 H 7.471839 0.466880 6.238761 0
M  V30 40 H 7.289619 1.357413 4.720679 0
M  V30 41 H 8.367531 -0.121053 4.788242 0
M  V30 42 H 7.294305 -1.851245 3.638827 0
M  V30 43 H 5.518801 -2.104766 3.856574 0
M  V30 44 H 6.145842 -1.200879 1.606315 0
M  V30 45 H 6.543403 0.377145 2.427415 0
M  V30 46 H 4.881216 -2.737320 1.524147 0
M  V30 47 H 3.350595 -3.906473 0.105664 0
M  V30 48 H 1.251912 -2.954084 -0.547843 0
M  V30 49 H -0.294708 -0.720787 -0.274008 0
M  V30 50 H -1.059730 4.880012 2.091443 0
M  V30 51 H -5.016002 3.536323 -0.675826 0
M  V30 52 H -6.338014 1.810508 -0.824212 0
M  V30 53 H -6.889409 -1.015120 -3.808502 0
M  V30 54 H -4.870625 -1.550125 -5.245070 0
M  V30 55 H -3.271450 -1.065597 -4.670877 0
M  V30 56 H -5.815103 -2.925999 -2.756427 0
M  V30 57 H -5.823550 -3.890456 -4.241233 0
M  V30 58 H -3.984549 -5.302042 -3.339019 0
M  V30 59 H -5.596201 -5.437773 -2.480505 0
M  V30 60 H -4.771136 -4.205725 -0.585994 0
M  V30 61 H -3.471924 -5.314745 -1.057924 0
M  V30 62 H -2.220540 -3.423365 -1.062298 0
M  V30 63 H -3.613061 -2.346304 -1.117236 0
M  V30 64 H -2.371592 -3.974383 -3.414055 0
M  V30 65 H -2.123619 -2.227475 -3.242937 0
M  V30 66 H -2.888401 0.136239 -2.589546 0
M  V30 67 H -2.125892 0.482947 -0.648275 0
M  V30 68 H 2.164840 1.551138 2.171073 0
M  V30 69 H 4.809312 1.686224 3.415998 0
M  V30 70 H 3.344662 0.865666 4.002342 0
M  V30 71 H 5.274924 1.178648 5.572161 0
M  V30 72 H 4.309743 -0.323345 5.618096 0
M  V30 END ATOM
M  V30 BEGIN BOND
M  V30 1 1 1 2
M  V30 2 1 2 3
M  V30 3 1 3 4
M  V30 4 1 4 5
M  V30 5 1 5 6
M  V30 6 2 6 7
M  V30 7 1 7 8
M  V30 8 2 8 9
M  V30 9 1 9 10
M  V30 10 1 10 11
M  V30 11 1 11 12
M  V30 12 1 12 13
M  V30 13 2 13 14
M  V30 14 1 14 15
M  V30 15 1 15 16
M  V30 16 2 16 17
M  V30 17 1 17 18
M  V30 18 2 18 19
M  V30 19 1 19 20
M  V30 20 2 20 21
M  V30 21 1 21 22
M  V30 22 2 22 23
M  V30 23 1 23 24
M  V30 24 1 24 25
M  V30 25 1 25 26
M  V30 26 1 26 27
M  V30 27 1 27 28
M  V30 28 1 28 29
M  V30 29 1 29 30
M  V30 30 1 30 31
M  V30 31 2 24 32
M  V30 32 1 19 33
M  V30 33 2 33 34
M  V30 34 2 12 35
M  V30 35 1 35 36
M  V30 36 1 5 37
M  V30 37 1 37 38
M  V30 38 1 38 2
M  V30 39 1 36 6
M  V30 40 2 36 10
M  V30 41 1 34 13
M  V30 42 1 34 16
M  V30 43 1 32 20
M  V30 44 1 31 26
M  V30 45 1 1 39
M  V30 46 1 1 40
M  V30 47 1 1 41
M  V30 48 1 3 42
M  V30 49 1 3 43
M  V30 50 1 4 44
M  V30 51 1 4 45
M  V30 52 1 7 46
M  V30 53 1 8 47
M  V30 54 1 9 48
M  V30 55 1 11 49
M  V30 56 1 15 50
M  V30 57 1 18 51
M  V30 58 1 21 52
M  V30 59 1 23 53
M  V30 60 1 25 54
M  V30 61 1 25 55
M  V30 62 1 27 56
M  V30 63 1 27 57
M  V30 64 1 28 58
M  V30 65 1 28 59
M  V30 66 1 29 60
M  V30 67 1 29 61
M  V30 68 1 30 62
M  V30 69 1 30 63
M  V30 70 1 31 64
M  V30 71 1 31 65
M  V30 72 1 32 66
M  V30 73 1 33 67
M  V30 74 1 35 68
M  V30 75 1 37 69
M  V30 76 1 37 70
M  V30 77 1 38 71
M  V30 78 1 38 72
M  V30 END BOND
M  V30 END CTAB
M  END
>  <Dataset>  (203) 
ChEMBL_Kinases

>  <Ligand_Instance>  (203) 
nan

>  <PDB_ID>  (203) 
nan

>  <Standardized_SMILES>  (203) 
CN1CCN(c2cccc3[nH]c(-c4n[nH]c5ncc(-c6cncc(CN7CCCCC7)c6)cc45)cc23)CC1

>  <Name>  (203) 
nan

>  <Pocket>  (203) 
nan

>  <ATP_Site>  (203) 
nan

>  <Peripheral>  (203) 
nan

>  <Num_H_Atoms_ProtBoundConf>  (203) 
nan

>  <Num_Resolved_Atoms>  (203) 
nan

>  <Num_Not_Resolved_Atoms>  (203) 
nan

$$$$
CHEMBL3354523
     RDKit          3D

  0  0  0  0  0  0  0  0  0  0999 V3000
M  V30 BEGIN CTAB
M  V30 COUNTS 47 51 0 0 0
M  V30 BEGIN ATOM
M  V30 1 F 5.047758 0.675372 -0.748670 0
M  V30 2 C 5.521213 -0.260935 -1.606689 0
M  V30 3 C 6.768161 -0.307911 -2.183044 0
M  V30 4 C 7.141284 -1.310236 -3.043257 0
M  V30 5 C 6.277093 -2.331997 -3.377535 0
M  V30 6 C 5.009147 -2.344473 -2.833397 0
M  V30 7 F 4.124448 -3.316571 -3.124168 0
M  V30 8 C 4.699346 -1.305801 -1.975496 0
M  V30 9 C 3.316597 -1.300173 -1.368721 0
M  V30 10 N 2.766992 -0.621414 -0.656703 0
M  V30 11 C 1.531209 -0.705838 -0.176684 0
M  V30 12 C 0.900070 0.236768 0.754495 0
M  V30 13 C 1.589869 1.358323 1.234290 0
M  V30 14 C 1.029246 2.263931 2.108798 0
M  V30 15 C -0.264890 2.035552 2.514400 0
M  V30 16 N -0.848241 2.888606 3.343575 0
M  V30 17 C -2.130871 2.720145 3.767741 0
M  V30 18 C -2.829134 1.630000 3.316509 0
M  V30 19 C -2.295783 0.675855 2.440489 0
M  V30 20 N -3.098184 -0.435480 2.100117 0
M  V30 21 C -4.536546 -0.154368 2.059153 0
M  V30 22 C -5.243147 -0.867989 3.169322 0
M  V30 23 N -4.871274 -2.235262 3.308045 0
M  V30 24 C -4.000120 -2.738369 2.302691 0
M  V30 25 C -2.926308 -1.818661 1.806955 0
M  V30 26 C -0.997443 0.955780 2.083482 0
M  V30 27 C -0.387412 0.097684 1.219201 0
M  V30 28 C 0.814924 -1.835256 -0.650449 0
M  V30 29 S 2.041693 -2.649871 -1.752247 0
M  V30 30 H 7.439448 0.512014 -1.905131 0
M  V30 31 H 8.164431 -1.240499 -3.440812 0
M  V30 32 H 6.591960 -3.108791 -4.055392 0
M  V30 33 H 2.615313 1.535992 0.910993 0
M  V30 34 H 1.596339 3.112968 2.452058 0
M  V30 35 H -2.484332 3.482224 4.437237 0
M  V30 36 H -3.819229 1.630549 3.734260 0
M  V30 37 H -4.960315 -0.478953 1.063421 0
M  V30 38 H -4.778797 0.918544 2.114585 0
M  V30 39 H -6.321682 -0.815338 2.935195 0
M  V30 40 H -5.079157 -0.338580 4.118204 0
M  V30 41 H -4.485716 -2.405580 4.261498 0
M  V30 42 H -3.524698 -3.668187 2.668541 0
M  V30 43 H -4.644166 -3.050276 1.454362 0
M  V30 44 H -2.860938 -1.952706 0.710253 0
M  V30 45 H -1.939522 -2.178443 2.238527 0
M  V30 46 H -0.891001 -0.740378 0.832702 0
M  V30 47 H -0.177548 -2.156243 -0.441107 0
M  V30 END ATOM
M  V30 BEGIN BOND
M  V30 1 1 1 2
M  V30 2 2 2 3
M  V30 3 1 3 4
M  V30 4 2 4 5
M  V30 5 1 5 6
M  V30 6 1 6 7
M  V30 7 2 6 8
M  V30 8 1 8 9
M  V30 9 2 9 10
M  V30 10 1 10 11
M  V30 11 1 11 12
M  V30 12 2 12 13
M  V30 13 1 13 14
M  V30 14 2 14 15
M  V30 15 1 15 16
M  V30 16 2 16 17
M  V30 17 1 17 18
M  V30 18 2 18 19
M  V30 19 1 19 20
M  V30 20 1 20 21
M  V30 21 1 21 22
M  V30 22 1 22 23
M  V30 23 1 23 24
M  V30 24 1 24 25
M  V30 25 1 19 26
M  V30 26 2 26 27
M  V30 27 2 11 28
M  V30 28 1 28 29
M  V30 29 1 8 2
M  V30 30 1 29 9
M  V30 31 1 27 12
M  V30 32 1 26 15
M  V30 33 1 25 20
M  V30 34 1 3 30
M  V30 35 1 4 31
M  V30 36 1 5 32
M  V30 37 1 13 33
M  V30 38 1 14 34
M  V30 39 1 17 35
M  V30 40 1 18 36
M  V30 41 1 21 37
M  V30 42 1 21 38
M  V30 43 1 22 39
M  V30 44 1 22 40
M  V30 45 1 23 41
M  V30 46 1 24 42
M  V30 47 1 24 43
M  V30 48 1 25 44
M  V30 49 1 25 45
M  V30 50 1 27 46
M  V30 51 1 28 47
M  V30 END BOND
M  V30 END CTAB
M  END
>  <Dataset>  (204) 
ChEMBL_Kinases

>  <Ligand_Instance>  (204) 
nan

>  <PDB_ID>  (204) 
nan

>  <Standardized_SMILES>  (204) 
Fc1cccc(F)c1-c1nc(-c2ccc3nccc(N4CCNCC4)c3c2)cs1

>  <Name>  (204) 
nan

>  <Pocket>  (204) 
nan

>  <ATP_Site>  (204) 
nan

>  <Peripheral>  (204) 
nan

>  <Num_H_Atoms_ProtBoundConf>  (204) 
nan

>  <Num_Resolved_Atoms>  (204) 
nan

>  <Num_Not_Resolved_Atoms>  (204) 
nan

$$$$
CHEMBL3354526
     RDKit          3D

  0  0  0  0  0  0  0  0  0  0999 V3000
M  V30 BEGIN CTAB
M  V30 COUNTS 37 39 0 0 0
M  V30 BEGIN ATOM
M  V30 1 N 1.204111 -5.990737 2.478952 0
M  V30 2 C 0.612650 -4.845357 3.082460 0
M  V30 3 O -0.107007 -5.034267 4.112783 0
M  V30 4 C 0.877998 -3.547148 2.472793 0
M  V30 5 C 1.668206 -3.405246 1.355262 0
M  V30 6 C 1.830575 -2.109181 0.887497 0
M  V30 7 C 1.266304 -0.955594 1.449488 0
M  V30 8 C 1.641166 0.263142 0.786125 0
M  V30 9 C 3.004282 0.585695 0.860143 0
M  V30 10 N 3.202784 1.786142 0.246705 0
M  V30 11 C 2.038908 2.238240 -0.211229 0
M  V30 12 N 1.671512 3.356228 -0.883168 0
M  V30 13 C 0.369892 3.531244 -1.218198 0
M  V30 14 N -0.529421 2.594836 -0.879404 0
M  V30 15 C -0.237435 1.462423 -0.214021 0
M  V30 16 N -1.249890 0.514999 0.068901 0
M  V30 17 C -2.657503 0.590222 -0.231665 0
M  V30 18 C -2.944879 0.517267 -1.691580 0
M  V30 19 O -2.354549 1.541606 -2.404755 0
M  V30 20 C 1.082322 1.317649 0.110890 0
M  V30 21 C 0.482269 -1.220644 2.581814 0
M  V30 22 C 0.279738 -2.477287 3.097631 0
M  V30 23 H 0.851691 -6.914814 2.148108 0
M  V30 24 H 2.127894 -6.348812 2.151999 0
M  V30 25 H 2.122863 -4.254339 0.887192 0
M  V30 26 H 2.473035 -2.064506 -0.007822 0
M  V30 27 H 3.886340 0.095905 1.286038 0
M  V30 28 H 4.085874 2.332884 0.112495 0
M  V30 29 H -0.012575 4.400638 -1.757829 0
M  V30 30 H -1.045921 -0.384899 0.529942 0
M  V30 31 H -3.001337 1.597098 0.160283 0
M  V30 32 H -3.256781 -0.164954 0.309984 0
M  V30 33 H -4.042894 0.538376 -1.855988 0
M  V30 34 H -2.619102 -0.476178 -2.081680 0
M  V30 35 H -2.846075 1.761062 -3.240732 0
M  V30 36 H 0.073116 -0.272350 2.968444 0
M  V30 37 H -0.350515 -2.515768 3.975113 0
M  V30 END ATOM
M  V30 BEGIN BOND
M  V30 1 1 1 2
M  V30 2 2 2 3
M  V30 3 1 2 4
M  V30 4 2 4 5
M  V30 5 1 5 6
M  V30 6 2 6 7
M  V30 7 1 7 8
M  V30 8 2 8 9
M  V30 9 1 9 10
M  V30 10 1 10 11
M  V30 11 2 11 12
M  V30 12 1 12 13
M  V30 13 2 13 14
M  V30 14 1 14 15
M  V30 15 1 15 16
M  V30 16 1 16 17
M  V30 17 1 17 18
M  V30 18 1 18 19
M  V30 19 2 15 20
M  V30 20 1 7 21
M  V30 21 2 21 22
M  V30 22 1 22 4
M  V30 23 1 20 8
M  V30 24 1 20 11
M  V30 25 1 1 23
M  V30 26 1 1 24
M  V30 27 1 5 25
M  V30 28 1 6 26
M  V30 29 1 9 27
M  V30 30 1 10 28
M  V30 31 1 13 29
M  V30 32 1 16 30
M  V30 33 1 17 31
M  V30 34 1 17 32
M  V30 35 1 18 33
M  V30 36 1 18 34
M  V30 37 1 19 35
M  V30 38 1 21 36
M  V30 39 1 22 37
M  V30 END BOND
M  V30 END CTAB
M  END
>  <Dataset>  (205) 
ChEMBL_Kinases

>  <Ligand_Instance>  (205) 
nan

>  <PDB_ID>  (205) 
nan

>  <Standardized_SMILES>  (205) 
NC(=O)c1ccc(-c2c[nH]c3ncnc(NCCO)c23)cc1

>  <Name>  (205) 
nan

>  <Pocket>  (205) 
nan

>  <ATP_Site>  (205) 
nan

>  <Peripheral>  (205) 
nan

>  <Num_H_Atoms_ProtBoundConf>  (205) 
nan

>  <Num_Resolved_Atoms>  (205) 
nan

>  <Num_Not_Resolved_Atoms>  (205) 
nan

$$$$
CHEMBL4792061
     RDKit          3D

  0  0  0  0  0  0  0  0  0  0999 V3000
M  V30 BEGIN CTAB
M  V30 COUNTS 58 63 0 0 0
M  V30 BEGIN ATOM
M  V30 1 C 5.989715 -0.873070 5.555444 0
M  V30 2 C 6.381126 -1.146299 4.117108 0
M  V30 3 C 7.620428 -0.366471 3.759205 0
M  V30 4 C 6.620198 -2.649383 4.032323 0
M  V30 5 C 5.214866 -0.843869 3.278818 0
M  V30 6 O 4.191002 -0.443721 3.886385 0
M  V30 7 N 5.162403 -0.967873 1.868147 0
M  V30 8 C 4.097118 -0.704346 0.973222 0
M  V30 9 C 4.306853 -0.908489 -0.367677 0
M  V30 10 N 3.355421 -0.685276 -1.286736 0
M  V30 11 C 2.129677 -0.245359 -0.953563 0
M  V30 12 C 1.842358 -0.016479 0.377723 0
M  V30 13 C 0.527899 0.462945 0.812575 0
M  V30 14 C 0.404429 1.265487 1.928889 0
M  V30 15 N -0.817512 1.688058 2.300317 0
M  V30 16 C -1.909412 1.337707 1.598669 0
M  V30 17 N -3.216490 1.599539 1.725725 0
M  V30 18 N -3.897468 1.019209 0.774370 0
M  V30 19 C -3.098991 0.317637 -0.072247 0
M  V30 20 C -3.532291 -0.440461 -1.229570 0
M  V30 21 N -4.836523 -0.501580 -1.560546 0
M  V30 22 C -5.031176 -1.245995 -2.653750 0
M  V30 23 C -6.171880 -1.599559 -3.369181 0
M  V30 24 C -7.473685 -1.109500 -2.916662 0
M  V30 25 C -8.563184 -0.549757 -3.572476 0
M  V30 26 C -9.532770 -0.272582 -2.626804 0
M  V30 27 O -9.064274 -0.640252 -1.466022 0
M  V30 28 C -7.850811 -1.140314 -1.589617 0
M  V30 29 C -5.990169 -2.405719 -4.479619 0
M  V30 30 N -4.772002 -2.837115 -4.864066 0
M  V30 31 C -3.670973 -2.496673 -4.174632 0
M  V30 32 C -3.793721 -1.695370 -3.060044 0
M  V30 33 N -2.963153 -1.173568 -2.163749 0
M  V30 34 C -1.857903 0.541084 0.477267 0
M  V30 35 C -0.603420 0.114712 0.106518 0
M  V30 36 C 2.840951 -0.255072 1.299741 0
M  V30 37 H 6.625417 -1.444181 6.264981 0
M  V30 38 H 4.915748 -1.142173 5.648997 0
M  V30 39 H 6.067572 0.233796 5.691258 0
M  V30 40 H 8.437574 -0.777278 4.387204 0
M  V30 41 H 7.458934 0.677827 4.028747 0
M  V30 42 H 7.888079 -0.557362 2.717581 0
M  V30 43 H 7.105688 -3.020574 4.942961 0
M  V30 44 H 5.589247 -3.110359 4.028252 0
M  V30 45 H 7.066345 -2.965641 3.084482 0
M  V30 46 H 6.073045 -1.306776 1.498461 0
M  V30 47 H 5.277141 -1.268140 -0.742156 0
M  V30 48 H 1.341456 -0.058067 -1.690387 0
M  V30 49 H 1.277001 1.555149 2.503263 0
M  V30 50 H -3.696049 2.174814 2.452509 0
M  V30 51 H -8.542009 -0.403065 -4.649906 0
M  V30 52 H -10.499286 0.175174 -2.871146 0
M  V30 53 H -7.319167 -1.493649 -0.714858 0
M  V30 54 H -6.871071 -2.689993 -5.048307 0
M  V30 55 H -2.661760 -2.818850 -4.443213 0
M  V30 56 H -1.947259 -1.357286 -2.234265 0
M  V30 57 H -0.473013 -0.501835 -0.744904 0
M  V30 58 H 2.594337 -0.071607 2.312224 0
M  V30 END ATOM
M  V30 BEGIN BOND
M  V30 1 1 1 2
M  V30 2 1 2 3
M  V30 3 1 2 4
M  V30 4 1 2 5
M  V30 5 2 5 6
M  V30 6 1 5 7
M  V30 7 1 7 8
M  V30 8 2 8 9
M  V30 9 1 9 10
M  V30 10 2 10 11
M  V30 11 1 11 12
M  V30 12 1 12 13
M  V30 13 2 13 14
M  V30 14 1 14 15
M  V30 15 2 15 16
M  V30 16 1 16 17
M  V30 17 1 17 18
M  V30 18 2 18 19
M  V30 19 1 19 20
M  V30 20 2 20 21
M  V30 21 1 21 22
M  V30 22 2 22 23
M  V30 23 1 23 24
M  V30 24 1 24 25
M  V30 25 2 25 26
M  V30 26 1 26 27
M  V30 27 1 27 28
M  V30 28 1 23 29
M  V30 29 2 29 30
M  V30 30 1 30 31
M  V30 31 2 31 32
M  V30 32 1 32 33
M  V30 33 1 19 34
M  V30 34 2 34 35
M  V30 35 2 12 36
M  V30 36 1 36 8
M  V30 37 1 35 13
M  V30 38 1 34 16
M  V30 39 1 33 20
M  V30 40 1 32 22
M  V30 41 2 28 24
M  V30 42 1 1 37
M  V30 43 1 1 38
M  V30 44 1 1 39
M  V30 45 1 3 40
M  V30 46 1 3 41
M  V30 47 1 3 42
M  V30 48 1 4 43
M  V30 49 1 4 44
M  V30 50 1 4 45
M  V30 51 1 7 46
M  V30 52 1 9 47
M  V30 53 1 11 48
M  V30 54 1 14 49
M  V30 55 1 17 50
M  V30 56 1 25 51
M  V30 57 1 26 52
M  V30 58 1 28 53
M  V30 59 1 29 54
M  V30 60 1 31 55
M  V30 61 1 33 56
M  V30 62 1 35 57
M  V30 63 1 36 58
M  V30 END BOND
M  V30 END CTAB
M  END
>  <Dataset>  (206) 
ChEMBL_Kinases

>  <Ligand_Instance>  (206) 
nan

>  <PDB_ID>  (206) 
nan

>  <Standardized_SMILES>  (206) 
CC(C)(C)C(=O)Nc1cncc(-c2cnc3[nH]nc(-c4nc5c(-c6ccoc6)cncc5[nH]4)c3c2)c1

>  <Name>  (206) 
nan

>  <Pocket>  (206) 
nan

>  <ATP_Site>  (206) 
nan

>  <Peripheral>  (206) 
nan

>  <Num_H_Atoms_ProtBoundConf>  (206) 
nan

>  <Num_Resolved_Atoms>  (206) 
nan

>  <Num_Not_Resolved_Atoms>  (206) 
nan

$$$$
CHEMBL4789715
     RDKit          3D

  0  0  0  0  0  0  0  0  0  0999 V3000
M  V30 BEGIN CTAB
M  V30 COUNTS 62 67 0 0 0
M  V30 BEGIN ATOM
M  V30 1 C 5.947589 -0.884979 5.225780 0
M  V30 2 C 5.027995 -0.417978 6.305844 0
M  V30 3 C 5.763574 -0.463483 7.628415 0
M  V30 4 C 4.528180 0.988363 6.128498 0
M  V30 5 C 3.769681 1.165225 4.867066 0
M  V30 6 O 3.771274 0.032087 4.315876 0
M  V30 7 N 3.204284 2.405020 4.467521 0
M  V30 8 C 2.539723 2.217023 3.194160 0
M  V30 9 C 3.381623 2.445964 2.107989 0
M  V30 10 N 2.849096 2.292226 0.867717 0
M  V30 11 C 1.567383 1.934899 0.673991 0
M  V30 12 C 0.732137 1.707768 1.762447 0
M  V30 13 C -0.671228 1.315041 1.575087 0
M  V30 14 C -1.601782 1.711243 2.513486 0
M  V30 15 C -2.908739 1.322559 2.305273 0
M  V30 16 C -3.246663 0.569736 1.198801 0
M  V30 17 N -4.393502 0.060587 0.747674 0
M  V30 18 N -4.197513 -0.596289 -0.373762 0
M  V30 19 C -2.899216 -0.570751 -0.751134 0
M  V30 20 C -2.346001 -1.197059 -1.934850 0
M  V30 21 N -3.124573 -1.891043 -2.787212 0
M  V30 22 C -2.448862 -2.395179 -3.809399 0
M  V30 23 C -2.804350 -3.155596 -4.904485 0
M  V30 24 C -4.176685 -3.562328 -5.110717 0
M  V30 25 C -5.266163 -2.724562 -4.968637 0
M  V30 26 C -6.539981 -3.204586 -5.190270 0
M  V30 27 C -6.725283 -4.537866 -5.557910 0
M  V30 28 F -7.983202 -5.035937 -5.783129 0
M  V30 29 C -5.648350 -5.412391 -5.710551 0
M  V30 30 C -4.395108 -4.879791 -5.476677 0
M  V30 31 C -1.791898 -3.487680 -5.761567 0
M  V30 32 N -0.501008 -3.122513 -5.599460 0
M  V30 33 C -0.162910 -2.381255 -4.529641 0
M  V30 34 C -1.140311 -2.015386 -3.629807 0
M  V30 35 N -1.148180 -1.303016 -2.492909 0
M  V30 36 C -2.324779 0.168786 0.255323 0
M  V30 37 C -1.030593 0.563619 0.477138 0
M  V30 38 C 1.215208 1.848026 3.043811 0
M  V30 39 H 6.420976 0.004447 4.734926 0
M  V30 40 H 5.476663 -1.557610 4.470555 0
M  V30 41 H 6.776372 -1.456166 5.688731 0
M  V30 42 H 4.182946 -1.154047 6.357765 0
M  V30 43 H 5.573458 -1.448201 8.149570 0
M  V30 44 H 6.860199 -0.316461 7.528106 0
M  V30 45 H 5.311640 0.288219 8.307457 0
M  V30 46 H 5.357712 1.680834 6.277653 0
M  V30 47 H 3.806571 1.171750 6.969175 0
M  V30 48 H 3.381752 3.187311 5.165274 0
M  V30 49 H 4.425886 2.736426 2.214776 0
M  V30 50 H 1.110881 1.803473 -0.308123 0
M  V30 51 H -1.380146 2.300200 3.392866 0
M  V30 52 H -3.697770 1.595521 2.998229 0
M  V30 53 H -5.350070 0.126393 1.162145 0
M  V30 54 H -5.055679 -1.697429 -4.680266 0
M  V30 55 H -7.387826 -2.532194 -5.074981 0
M  V30 56 H -5.807738 -6.441753 -5.995161 0
M  V30 57 H -3.579762 -5.584652 -5.603468 0
M  V30 58 H -1.997216 -4.083497 -6.641901 0
M  V30 59 H 0.848538 -2.050833 -4.332690 0
M  V30 60 H -0.285185 -0.895507 -2.125414 0
M  V30 61 H -0.261647 0.298480 -0.197698 0
M  V30 62 H 0.647396 1.694550 3.936403 0
M  V30 END ATOM
M  V30 BEGIN BOND
M  V30 1 1 1 2
M  V30 2 1 2 3
M  V30 3 1 2 4
M  V30 4 1 4 5
M  V30 5 2 5 6
M  V30 6 1 5 7
M  V30 7 1 7 8
M  V30 8 2 8 9
M  V30 9 1 9 10
M  V30 10 2 10 11
M  V30 11 1 11 12
M  V30 12 1 12 13
M  V30 13 2 13 14
M  V30 14 1 14 15
M  V30 15 2 15 16
M  V30 16 1 16 17
M  V30 17 1 17 18
M  V30 18 2 18 19
M  V30 19 1 19 20
M  V30 20 2 20 21
M  V30 21 1 21 22
M  V30 22 2 22 23
M  V30 23 1 23 24
M  V30 24 2 24 25
M  V30 25 1 25 26
M  V30 26 2 26 27
M  V30 27 1 27 28
M  V30 28 1 27 29
M  V30 29 2 29 30
M  V30 30 1 23 31
M  V30 31 2 31 32
M  V30 32 1 32 33
M  V30 33 2 33 34
M  V30 34 1 34 35
M  V30 35 1 19 36
M  V30 36 2 36 37
M  V30 37 2 12 38
M  V30 38 1 38 8
M  V30 39 1 37 13
M  V30 40 1 36 16
M  V30 41 1 35 20
M  V30 42 1 34 22
M  V30 43 1 30 24
M  V30 44 1 1 39
M  V30 45 1 1 40
M  V30 46 1 1 41
M  V30 47 1 2 42
M  V30 48 1 3 43
M  V30 49 1 3 44
M  V30 50 1 3 45
M  V30 51 1 4 46
M  V30 52 1 4 47
M  V30 53 1 7 48
M  V30 54 1 9 49
M  V30 55 1 11 50
M  V30 56 1 14 51
M  V30 57 1 15 52
M  V30 58 1 17 53
M  V30 59 1 25 54
M  V30 60 1 26 55
M  V30 61 1 29 56
M  V30 62 1 30 57
M  V30 63 1 31 58
M  V30 64 1 33 59
M  V30 65 1 35 60
M  V30 66 1 37 61
M  V30 67 1 38 62
M  V30 END BOND
M  V30 END CTAB
M  END
>  <Dataset>  (207) 
ChEMBL_Kinases

>  <Ligand_Instance>  (207) 
nan

>  <PDB_ID>  (207) 
nan

>  <Standardized_SMILES>  (207) 
CC(C)CC(=O)Nc1cncc(-c2ccc3[nH]nc(-c4nc5c(-c6ccc(F)cc6)cncc5[nH]4)c3c2)c1

>  <Name>  (207) 
nan

>  <Pocket>  (207) 
nan

>  <ATP_Site>  (207) 
nan

>  <Peripheral>  (207) 
nan

>  <Num_H_Atoms_ProtBoundConf>  (207) 
nan

>  <Num_Resolved_Atoms>  (207) 
nan

>  <Num_Not_Resolved_Atoms>  (207) 
nan

$$$$
CHEMBL4127977
     RDKit          3D

  0  0  0  0  0  0  0  0  0  0999 V3000
M  V30 BEGIN CTAB
M  V30 COUNTS 47 50 0 0 0
M  V30 BEGIN ATOM
M  V30 1 C 2.126224 -2.315244 3.271254 0
M  V30 2 S 3.572555 -3.208675 2.751717 0
M  V30 3 O 4.428652 -3.475178 3.956298 0
M  V30 4 O 3.185069 -4.549234 2.170440 0
M  V30 5 N 4.478042 -2.321334 1.588995 0
M  V30 6 C 4.017833 -1.920582 0.320352 0
M  V30 7 C 4.862259 -2.107914 -0.763258 0
M  V30 8 C 4.529329 -1.761391 -2.035835 0
M  V30 9 C 3.305059 -1.192332 -2.319423 0
M  V30 10 C 2.442039 -0.992658 -1.263304 0
M  V30 11 C 1.133586 -0.394980 -1.502682 0
M  V30 12 C 0.164899 -0.133044 -0.555880 0
M  V30 13 C -0.908026 0.424633 -1.174825 0
M  V30 14 C -2.109492 0.853877 -0.648831 0
M  V30 15 C -2.489141 0.788461 0.759768 0
M  V30 16 C -3.081091 1.920770 1.318435 0
M  V30 17 C -3.492838 2.006838 2.634998 0
M  V30 18 C -3.308882 0.908956 3.448212 0
M  V30 19 C -3.724580 0.945502 4.844432 0
M  V30 20 N -3.527715 -0.194115 5.670616 0
M  V30 21 O -4.254904 1.991830 5.300752 0
M  V30 22 C -2.723963 -0.233186 2.926893 0
M  V30 23 C -2.324108 -0.286614 1.608344 0
M  V30 24 C -3.049611 1.396526 -1.524821 0
M  V30 25 C -2.727043 1.473871 -2.865528 0
M  V30 26 N -1.541593 1.045143 -3.352249 0
M  V30 27 C -0.621160 0.518181 -2.521337 0
M  V30 28 N 0.635944 0.004577 -2.667668 0
M  V30 29 C 2.799496 -1.351291 0.019631 0
M  V30 30 H 1.875220 -2.566569 4.342907 0
M  V30 31 H 2.331277 -1.212789 3.233960 0
M  V30 32 H 1.297525 -2.590423 2.611329 0
M  V30 33 H 5.477191 -2.030156 1.808650 0
M  V30 34 H 5.839222 -2.551791 -0.600679 0
M  V30 35 H 5.224255 -1.928467 -2.846887 0
M  V30 36 H 3.010767 -0.905948 -3.319730 0
M  V30 37 H 0.280497 -0.349997 0.491264 0
M  V30 38 H -3.246348 2.812726 0.712618 0
M  V30 39 H -3.944979 2.868666 3.065765 0
M  V30 40 H -2.627580 -0.456937 6.125136 0
M  V30 41 H -4.079716 -1.017161 6.052911 0
M  V30 42 H -2.558643 -1.118460 3.523770 0
M  V30 43 H -1.866521 -1.163713 1.175950 0
M  V30 44 H -4.036583 1.774730 -1.252206 0
M  V30 45 H -3.387420 1.879745 -3.634547 0
M  V30 46 H 1.080488 -0.034150 -3.610015 0
M  V30 47 H 2.124595 -1.194967 0.845905 0
M  V30 END ATOM
M  V30 BEGIN BOND
M  V30 1 1 1 2
M  V30 2 2 2 3
M  V30 3 2 2 4
M  V30 4 1 2 5
M  V30 5 1 5 6
M  V30 6 2 6 7
M  V30 7 1 7 8
M  V30 8 2 8 9
M  V30 9 1 9 10
M  V30 10 1 10 11
M  V30 11 2 11 12
M  V30 12 1 12 13
M  V30 13 2 13 14
M  V30 14 1 14 15
M  V30 15 2 15 16
M  V30 16 1 16 17
M  V30 17 2 17 18
M  V30 18 1 18 19
M  V30 19 1 19 20
M  V30 20 2 19 21
M  V30 21 1 18 22
M  V30 22 2 22 23
M  V30 23 1 14 24
M  V30 24 2 24 25
M  V30 25 1 25 26
M  V30 26 2 26 27
M  V30 27 1 27 28
M  V30 28 2 10 29
M  V30 29 1 29 6
M  V30 30 1 28 11
M  V30 31 1 27 13
M  V30 32 1 23 15
M  V30 33 1 1 30
M  V30 34 1 1 31
M  V30 35 1 1 32
M  V30 36 1 5 33
M  V30 37 1 7 34
M  V30 38 1 8 35
M  V30 39 1 9 36
M  V30 40 1 12 37
M  V30 41 1 16 38
M  V30 42 1 17 39
M  V30 43 1 20 40
M  V30 44 1 20 41
M  V30 45 1 22 42
M  V30 46 1 23 43
M  V30 47 1 24 44
M  V30 48 1 25 45
M  V30 49 1 28 46
M  V30 50 1 29 47
M  V30 END BOND
M  V30 END CTAB
M  END
>  <Dataset>  (208) 
ChEMBL_Kinases

>  <Ligand_Instance>  (208) 
nan

>  <PDB_ID>  (208) 
nan

>  <Standardized_SMILES>  (208) 
CS(=O)(=O)Nc1cccc(-c2cc3c(-c4ccc(C(N)=O)cc4)ccnc3[nH]2)c1

>  <Name>  (208) 
nan

>  <Pocket>  (208) 
nan

>  <ATP_Site>  (208) 
nan

>  <Peripheral>  (208) 
nan

>  <Num_H_Atoms_ProtBoundConf>  (208) 
nan

>  <Num_Resolved_Atoms>  (208) 
nan

>  <Num_Not_Resolved_Atoms>  (208) 
nan

$$$$
CHEMBL4792242
     RDKit          3D

  0  0  0  0  0  0  0  0  0  0999 V3000
M  V30 BEGIN CTAB
M  V30 COUNTS 57 62 0 0 0
M  V30 BEGIN ATOM
M  V30 1 C 3.300125 -1.596798 3.432658 0
M  V30 2 C 3.002970 -1.406749 1.970162 0
M  V30 3 N 4.092322 -2.034473 1.217583 0
M  V30 4 C 3.898845 -1.905909 -0.215648 0
M  V30 5 C 3.837415 -0.499049 -0.642326 0
M  V30 6 C 4.955967 0.214348 -1.011954 0
M  V30 7 N 4.818558 1.492825 -1.389020 0
M  V30 8 C 3.596095 2.100354 -1.414040 0
M  V30 9 C 2.446405 1.432311 -1.054288 0
M  V30 10 C 1.187683 2.162350 -1.112400 0
M  V30 11 C -0.026242 1.607396 -0.779101 0
M  V30 12 C -1.202816 2.303462 -0.837699 0
M  V30 13 C -2.493604 1.943725 -0.554542 0
M  V30 14 C -3.091571 0.710855 -0.093629 0
M  V30 15 C -2.665762 -0.545527 0.238209 0
M  V30 16 C -3.691330 -1.377713 0.632144 0
M  V30 17 C -3.698534 -2.696591 1.040976 0
M  V30 18 C -2.441695 -3.441822 1.104055 0
M  V30 19 C -2.140356 -4.091349 -0.085432 0
M  V30 20 C -0.990374 -4.856261 -0.240170 0
M  V30 21 C -0.127461 -4.961933 0.841785 0
M  V30 22 C -0.427235 -4.318608 2.017861 0
M  V30 23 C -1.560485 -3.561579 2.178659 0
M  V30 24 F -1.946360 -2.897560 3.272755 0
M  V30 25 C -4.898373 -3.285225 1.382799 0
M  V30 26 C -5.999610 -2.466632 1.276291 0
M  V30 27 N -5.976105 -1.181117 0.875608 0
M  V30 28 C -4.815358 -0.585221 0.536747 0
M  V30 29 N -4.420353 0.626497 0.109413 0
M  V30 30 N -3.175657 3.072222 -0.812734 0
M  V30 31 N -2.379634 4.044554 -1.219464 0
M  V30 32 C -1.106231 3.614351 -1.255999 0
M  V30 33 C 0.099412 4.192830 -1.595472 0
M  V30 34 N 1.238414 3.443807 -1.515493 0
M  V30 35 C 2.606093 0.119590 -0.669607 0
M  V30 36 H 3.196374 -0.633036 3.941645 0
M  V30 37 H 4.295652 -2.070363 3.601446 0
M  V30 38 H 2.576802 -2.341662 3.877011 0
M  V30 39 H 2.018815 -1.815115 1.663714 0
M  V30 40 H 3.042722 -0.340126 1.712005 0
M  V30 41 H 4.049072 -3.039123 1.497465 0
M  V30 42 H 4.771092 -2.388701 -0.687133 0
M  V30 43 H 2.959577 -2.445945 -0.476656 0
M  V30 44 H 5.928094 -0.249320 -0.998069 0
M  V30 45 H 3.620752 3.150074 -1.741935 0
M  V30 46 H -0.034152 0.583174 -0.461266 0
M  V30 47 H -1.643456 -0.862768 0.200185 0
M  V30 48 H -2.760726 -4.065711 -0.992051 0
M  V30 49 H -0.748658 -5.367205 -1.168570 0
M  V30 50 H 0.767568 -5.548832 0.742913 0
M  V30 51 H 0.232415 -4.384703 2.882534 0
M  V30 52 H -4.956248 -4.313236 1.708427 0
M  V30 53 H -6.973467 -2.879076 1.533524 0
M  V30 54 H -5.187527 1.333839 -0.007171 0
M  V30 55 H -2.736556 4.985856 -1.463059 0
M  V30 56 H 0.113891 5.231450 -1.918640 0
M  V30 57 H 1.724822 -0.424589 -0.383913 0
M  V30 END ATOM
M  V30 BEGIN BOND
M  V30 1 1 1 2
M  V30 2 1 2 3
M  V30 3 1 3 4
M  V30 4 1 4 5
M  V30 5 2 5 6
M  V30 6 1 6 7
M  V30 7 2 7 8
M  V30 8 1 8 9
M  V30 9 1 9 10
M  V30 10 2 10 11
M  V30 11 1 11 12
M  V30 12 1 12 13
M  V30 13 1 13 14
M  V30 14 2 14 15
M  V30 15 1 15 16
M  V30 16 2 16 17
M  V30 17 1 17 18
M  V30 18 2 18 19
M  V30 19 1 19 20
M  V30 20 2 20 21
M  V30 21 1 21 22
M  V30 22 2 22 23
M  V30 23 1 23 24
M  V30 24 1 17 25
M  V30 25 2 25 26
M  V30 26 1 26 27
M  V30 27 2 27 28
M  V30 28 1 28 29
M  V30 29 2 13 30
M  V30 30 1 30 31
M  V30 31 1 31 32
M  V30 32 1 32 33
M  V30 33 2 33 34
M  V30 34 2 9 35
M  V30 35 1 35 5
M  V30 36 1 34 10
M  V30 37 2 32 12
M  V30 38 1 29 14
M  V30 39 1 28 16
M  V30 40 1 23 18
M  V30 41 1 1 36
M  V30 42 1 1 37
M  V30 43 1 1 38
M  V30 44 1 2 39
M  V30 45 1 2 40
M  V30 46 1 3 41
M  V30 47 1 4 42
M  V30 48 1 4 43
M  V30 49 1 6 44
M  V30 50 1 8 45
M  V30 51 1 11 46
M  V30 52 1 15 47
M  V30 53 1 19 48
M  V30 54 1 20 49
M  V30 55 1 21 50
M  V30 56 1 22 51
M  V30 57 1 25 52
M  V30 58 1 26 53
M  V30 59 1 29 54
M  V30 60 1 31 55
M  V30 61 1 33 56
M  V30 62 1 35 57
M  V30 END BOND
M  V30 END CTAB
M  END
>  <Dataset>  (209) 
ChEMBL_Kinases

>  <Ligand_Instance>  (209) 
nan

>  <PDB_ID>  (209) 
nan

>  <Standardized_SMILES>  (209) 
CCNCc1cncc(-c2cc3c(-c4cc5c(-c6ccccc6F)ccnc5[nH]4)n[nH]c3cn2)c1

>  <Name>  (209) 
nan

>  <Pocket>  (209) 
nan

>  <ATP_Site>  (209) 
nan

>  <Peripheral>  (209) 
nan

>  <Num_H_Atoms_ProtBoundConf>  (209) 
nan

>  <Num_Resolved_Atoms>  (209) 
nan

>  <Num_Not_Resolved_Atoms>  (209) 
nan

$$$$
CHEMBL3335366
     RDKit          3D

  0  0  0  0  0  0  0  0  0  0999 V3000
M  V30 BEGIN CTAB
M  V30 COUNTS 32 34 0 0 0
M  V30 BEGIN ATOM
M  V30 1 O -1.133116 -3.325681 0.189367 0
M  V30 2 C -0.280061 -2.431419 0.538062 0
M  V30 3 C 0.796314 -3.018743 1.343511 0
M  V30 4 C 1.516496 -2.194822 2.210462 0
M  V30 5 C 2.550107 -2.636137 3.001335 0
M  V30 6 C 2.937124 -3.970364 2.974067 0
M  V30 7 C 2.181916 -4.738287 2.092693 0
M  V30 8 O 2.610024 -6.087271 2.100602 0
M  V30 9 C 1.162219 -4.351600 1.297913 0
M  V30 10 C -0.351240 -1.018584 0.192514 0
M  V30 11 C 0.770575 -0.227526 0.090074 0
M  V30 12 C 0.706187 1.123144 -0.181677 0
M  V30 13 C -0.549862 1.702466 -0.358757 0
M  V30 14 C -0.601661 3.071387 -0.625919 0
M  V30 15 C -1.857740 3.616279 -0.789419 0
M  V30 16 O -1.875988 4.980637 -1.052276 0
M  V30 17 C -3.041039 2.910538 -0.708612 0
M  V30 18 C -2.927414 1.561154 -0.443337 0
M  V30 19 C -1.709000 0.940096 -0.265607 0
M  V30 20 C -1.601144 -0.412269 0.008406 0
M  V30 21 H 1.327830 -1.121713 2.367219 0
M  V30 22 H 3.112902 -1.982032 3.674714 0
M  V30 23 H 3.742129 -4.309129 3.591577 0
M  V30 24 H 3.591511 -6.288842 1.992785 0
M  V30 25 H 0.627923 -5.011763 0.647942 0
M  V30 26 H 1.779699 -0.597983 0.188940 0
M  V30 27 H 1.586127 1.748748 -0.262803 0
M  V30 28 H 0.307968 3.682980 -0.700342 0
M  V30 29 H -1.300830 5.647828 -0.557577 0
M  V30 30 H -4.007062 3.423552 -0.850712 0
M  V30 31 H -3.852553 0.971549 -0.374466 0
M  V30 32 H -2.520456 -1.000490 0.076694 0
M  V30 END ATOM
M  V30 BEGIN BOND
M  V30 1 2 1 2
M  V30 2 1 2 3
M  V30 3 2 3 4
M  V30 4 1 4 5
M  V30 5 2 5 6
M  V30 6 1 6 7
M  V30 7 1 7 8
M  V30 8 2 7 9
M  V30 9 1 2 10
M  V30 10 2 10 11
M  V30 11 1 11 12
M  V30 12 2 12 13
M  V30 13 1 13 14
M  V30 14 2 14 15
M  V30 15 1 15 16
M  V30 16 1 15 17
M  V30 17 2 17 18
M  V30 18 1 18 19
M  V30 19 2 19 20
M  V30 20 1 9 3
M  V30 21 1 20 10
M  V30 22 1 19 13
M  V30 23 1 4 21
M  V30 24 1 5 22
M  V30 25 1 6 23
M  V30 26 1 8 24
M  V30 27 1 9 25
M  V30 28 1 11 26
M  V30 29 1 12 27
M  V30 30 1 14 28
M  V30 31 1 16 29
M  V30 32 1 17 30
M  V30 33 1 18 31
M  V30 34 1 20 32
M  V30 END BOND
M  V30 END CTAB
M  END
>  <Dataset>  (210) 
ChEMBL_Kinases

>  <Ligand_Instance>  (210) 
nan

>  <PDB_ID>  (210) 
nan

>  <Standardized_SMILES>  (210) 
O=C(c1cccc(O)c1)c1ccc2cc(O)ccc2c1

>  <Name>  (210) 
nan

>  <Pocket>  (210) 
nan

>  <ATP_Site>  (210) 
nan

>  <Peripheral>  (210) 
nan

>  <Num_H_Atoms_ProtBoundConf>  (210) 
nan

>  <Num_Resolved_Atoms>  (210) 
nan

>  <Num_Not_Resolved_Atoms>  (210) 
nan

$$$$
CHEMBL4129352
     RDKit          3D

  0  0  0  0  0  0  0  0  0  0999 V3000
M  V30 BEGIN CTAB
M  V30 COUNTS 54 57 0 0 0
M  V30 BEGIN ATOM
M  V30 1 C 3.420280 0.430422 3.167444 0
M  V30 2 N 3.175286 -0.895259 2.595712 0
M  V30 3 C 2.069816 -1.512853 3.306951 0
M  V30 4 C 2.835314 -0.784972 1.185425 0
M  V30 5 C 4.031659 -0.343406 0.375725 0
M  V30 6 N 3.647165 -0.242554 -1.041726 0
M  V30 7 C 2.670863 0.760550 -1.251373 0
M  V30 8 C 3.257971 1.939931 -1.729532 0
M  V30 9 N 2.460380 2.995041 -1.960126 0
M  V30 10 C 1.139226 2.919282 -1.738619 0
M  V30 11 C 0.523817 1.778371 -1.268829 0
M  V30 12 C -0.908068 1.666251 -0.978570 0
M  V30 13 C -1.675654 2.770196 -1.229890 0
M  V30 14 C -3.025174 2.699788 -0.917466 0
M  V30 15 C -3.523660 1.526109 -0.371456 0
M  V30 16 N -4.780489 1.187441 0.024453 0
M  V30 17 C -4.779973 -0.089410 0.501845 0
M  V30 18 C -3.485635 -0.570964 0.406237 0
M  V30 19 C -2.944456 -1.875451 0.763924 0
M  V30 20 C -1.805652 -2.197792 1.463606 0
M  V30 21 C -1.405258 -3.496776 1.698934 0
M  V30 22 C -2.204522 -4.507885 1.195898 0
M  V30 23 O -1.698223 -5.784810 1.492050 0
M  V30 24 C -0.804143 -6.274191 0.494042 0
M  V30 25 F -0.324734 -7.510518 0.813518 0
M  V30 26 F -1.483391 -6.352105 -0.704542 0
M  V30 27 F 0.264120 -5.404003 0.335303 0
M  V30 28 C -3.357209 -4.226333 0.488100 0
M  V30 29 C -3.731670 -2.923675 0.270127 0
M  V30 30 C -2.699950 0.448098 -0.142511 0
M  V30 31 C -1.328819 0.464756 -0.439384 0
M  V30 32 N 1.361643 0.748334 -1.053526 0
M  V30 33 H 2.658303 0.635019 3.977394 0
M  V30 34 H 4.405324 0.518826 3.646879 0
M  V30 35 H 3.313985 1.243919 2.408315 0
M  V30 36 H 1.844672 -2.476226 2.826667 0
M  V30 37 H 2.242330 -1.639521 4.372060 0
M  V30 38 H 1.170975 -0.851560 3.161136 0
M  V30 39 H 2.544886 -1.818478 0.857534 0
M  V30 40 H 1.966384 -0.098835 1.037989 0
M  V30 41 H 4.425108 0.623254 0.764394 0
M  V30 42 H 4.819400 -1.109217 0.459652 0
M  V30 43 H 4.078307 -0.871628 -1.770649 0
M  V30 44 H 4.319207 2.089987 -1.935255 0
M  V30 45 H 0.579860 3.792909 -1.948746 0
M  V30 46 H -1.393492 3.706838 -1.645688 0
M  V30 47 H -3.736843 3.498487 -1.072015 0
M  V30 48 H -5.658661 1.787555 -0.010618 0
M  V30 49 H -5.602596 -0.675048 0.897123 0
M  V30 50 H -1.257432 -1.357540 1.811196 0
M  V30 51 H -0.499191 -3.620007 2.258074 0
M  V30 52 H -3.905912 -5.091654 0.140798 0
M  V30 53 H -4.660851 -2.795837 -0.301649 0
M  V30 54 H -0.653663 -0.356307 -0.277635 0
M  V30 END ATOM
M  V30 BEGIN BOND
M  V30 1 1 1 2
M  V30 2 1 2 3
M  V30 3 1 2 4
M  V30 4 1 4 5
M  V30 5 1 5 6
M  V30 6 1 6 7
M  V30 7 2 7 8
M  V30 8 1 8 9
M  V30 9 2 9 10
M  V30 10 1 10 11
M  V30 11 1 11 12
M  V30 12 2 12 13
M  V30 13 1 13 14
M  V30 14 2 14 15
M  V30 15 1 15 16
M  V30 16 1 16 17
M  V30 17 2 17 18
M  V30 18 1 18 19
M  V30 19 2 19 20
M  V30 20 1 20 21
M  V30 21 2 21 22
M  V30 22 1 22 23
M  V30 23 1 23 24
M  V30 24 1 24 25
M  V30 25 1 24 26
M  V30 26 1 24 27
M  V30 27 1 22 28
M  V30 28 2 28 29
M  V30 29 1 18 30
M  V30 30 2 30 31
M  V30 31 2 11 32
M  V30 32 1 32 7
M  V30 33 1 31 12
M  V30 34 1 30 15
M  V30 35 1 29 19
M  V30 36 1 1 33
M  V30 37 1 1 34
M  V30 38 1 1 35
M  V30 39 1 3 36
M  V30 40 1 3 37
M  V30 41 1 3 38
M  V30 42 1 4 39
M  V30 43 1 4 40
M  V30 44 1 5 41
M  V30 45 1 5 42
M  V30 46 1 6 43
M  V30 47 1 8 44
M  V30 48 1 10 45
M  V30 49 1 13 46
M  V30 50 1 14 47
M  V30 51 1 16 48
M  V30 52 1 17 49
M  V30 53 1 20 50
M  V30 54 1 21 51
M  V30 55 1 28 52
M  V30 56 1 29 53
M  V30 57 1 31 54
M  V30 END BOND
M  V30 END CTAB
M  END
>  <Dataset>  (211) 
ChEMBL_Kinases

>  <Ligand_Instance>  (211) 
nan

>  <PDB_ID>  (211) 
nan

>  <Standardized_SMILES>  (211) 
CN(C)CCNc1cncc(-c2ccc3[nH]cc(-c4ccc(OC(F)(F)F)cc4)c3c2)n1

>  <Name>  (211) 
nan

>  <Pocket>  (211) 
nan

>  <ATP_Site>  (211) 
nan

>  <Peripheral>  (211) 
nan

>  <Num_H_Atoms_ProtBoundConf>  (211) 
nan

>  <Num_Resolved_Atoms>  (211) 
nan

>  <Num_Not_Resolved_Atoms>  (211) 
nan

$$$$
CHEMBL4791233
     RDKit          3D

  0  0  0  0  0  0  0  0  0  0999 V3000
M  V30 BEGIN CTAB
M  V30 COUNTS 57 62 0 0 0
M  V30 BEGIN ATOM
M  V30 1 C 3.134181 -2.922781 4.166998 0
M  V30 2 C 3.817574 -1.886465 3.262287 0
M  V30 3 C 4.669353 -2.648524 2.292155 0
M  V30 4 N 2.824933 -1.067629 2.618746 0
M  V30 5 C 3.154045 -0.005359 1.731733 0
M  V30 6 C 4.436915 0.337376 1.409878 0
M  V30 7 N 4.742291 1.352102 0.562935 0
M  V30 8 C 3.774210 2.091825 -0.018433 0
M  V30 9 C 2.436424 1.797659 0.264902 0
M  V30 10 C 1.318840 2.565232 -0.334135 0
M  V30 11 C 1.450103 3.917640 -0.639824 0
M  V30 12 N 0.397020 4.575474 -1.186652 0
M  V30 13 C -0.763021 3.943421 -1.435445 0
M  V30 14 N -1.954794 4.289216 -1.950309 0
M  V30 15 N -2.773768 3.272091 -1.977127 0
M  V30 16 C -2.205305 2.158535 -1.484369 0
M  V30 17 C -2.872939 0.885188 -1.390177 0
M  V30 18 C -2.568250 -0.356841 -0.955389 0
M  V30 19 C -3.592833 -1.244007 -1.088124 0
M  V30 20 C -3.652095 -2.564913 -0.757641 0
M  V30 21 C -2.631010 -3.381921 -0.170747 0
M  V30 22 C -1.343300 -3.208584 0.199699 0
M  V30 23 C -0.482277 -4.111924 0.752648 0
M  V30 24 C -0.929319 -5.382106 0.986188 0
M  V30 25 C -2.224420 -5.662946 0.645181 0
M  V30 26 C -3.030318 -4.698184 0.092114 0
M  V30 27 F -4.291309 -5.188368 -0.173761 0
M  V30 28 N -4.842144 -3.111924 -1.032715 0
M  V30 29 C -5.872755 -2.463816 -1.569853 0
M  V30 30 C -5.795299 -1.135158 -1.896249 0
M  V30 31 C -4.604999 -0.504484 -1.642963 0
M  V30 32 N -4.165343 0.753546 -1.816462 0
M  V30 33 C -0.952257 2.607751 -1.154836 0
M  V30 34 C 0.116755 1.946251 -0.601422 0
M  V30 35 C 2.168439 0.752733 1.135697 0
M  V30 36 H 2.177243 -2.421369 4.488769 0
M  V30 37 H 3.724493 -3.161663 5.057113 0
M  V30 38 H 2.813245 -3.819204 3.594093 0
M  V30 39 H 4.447617 -1.294474 3.949375 0
M  V30 40 H 4.477647 -2.368907 1.234686 0
M  V30 41 H 5.740694 -2.425426 2.519380 0
M  V30 42 H 4.526790 -3.745002 2.405526 0
M  V30 43 H 1.813828 -1.256126 2.807623 0
M  V30 44 H 5.263293 -0.186728 1.818171 0
M  V30 45 H 3.933785 2.913769 -0.702002 0
M  V30 46 H 2.392215 4.417356 -0.434280 0
M  V30 47 H -2.225799 5.246548 -2.296099 0
M  V30 48 H -1.611449 -0.499225 -0.573240 0
M  V30 49 H -0.943696 -2.259826 0.039204 0
M  V30 50 H 0.524261 -3.854213 1.005651 0
M  V30 51 H -0.293935 -6.129601 1.418642 0
M  V30 52 H -2.560896 -6.666244 0.835408 0
M  V30 53 H -6.766297 -3.043484 -1.731961 0
M  V30 54 H -6.613153 -0.593708 -2.330020 0
M  V30 55 H -4.826305 1.472410 -2.240722 0
M  V30 56 H 0.047580 0.917474 -0.358158 0
M  V30 57 H 1.127524 0.543783 1.339405 0
M  V30 END ATOM
M  V30 BEGIN BOND
M  V30 1 1 1 2
M  V30 2 1 2 3
M  V30 3 1 2 4
M  V30 4 1 4 5
M  V30 5 2 5 6
M  V30 6 1 6 7
M  V30 7 2 7 8
M  V30 8 1 8 9
M  V30 9 1 9 10
M  V30 10 2 10 11
M  V30 11 1 11 12
M  V30 12 2 12 13
M  V30 13 1 13 14
M  V30 14 1 14 15
M  V30 15 2 15 16
M  V30 16 1 16 17
M  V30 17 2 17 18
M  V30 18 1 18 19
M  V30 19 2 19 20
M  V30 20 1 20 21
M  V30 21 2 21 22
M  V30 22 1 22 23
M  V30 23 2 23 24
M  V30 24 1 24 25
M  V30 25 2 25 26
M  V30 26 1 26 27
M  V30 27 1 20 28
M  V30 28 2 28 29
M  V30 29 1 29 30
M  V30 30 2 30 31
M  V30 31 1 31 32
M  V30 32 1 16 33
M  V30 33 2 33 34
M  V30 34 2 9 35
M  V30 35 1 35 5
M  V30 36 1 34 10
M  V30 37 1 33 13
M  V30 38 1 32 17
M  V30 39 1 31 19
M  V30 40 1 26 21
M  V30 41 1 1 36
M  V30 42 1 1 37
M  V30 43 1 1 38
M  V30 44 1 2 39
M  V30 45 1 3 40
M  V30 46 1 3 41
M  V30 47 1 3 42
M  V30 48 1 4 43
M  V30 49 1 6 44
M  V30 50 1 8 45
M  V30 51 1 11 46
M  V30 52 1 14 47
M  V30 53 1 18 48
M  V30 54 1 22 49
M  V30 55 1 23 50
M  V30 56 1 24 51
M  V30 57 1 25 52
M  V30 58 1 29 53
M  V30 59 1 30 54
M  V30 60 1 32 55
M  V30 61 1 34 56
M  V30 62 1 35 57
M  V30 END BOND
M  V30 END CTAB
M  END
>  <Dataset>  (212) 
ChEMBL_Kinases

>  <Ligand_Instance>  (212) 
nan

>  <PDB_ID>  (212) 
nan

>  <Standardized_SMILES>  (212) 
CC(C)Nc1cncc(-c2cnc3[nH]nc(-c4cc5c(-c6ccccc6F)nccc5[nH]4)c3c2)c1

>  <Name>  (212) 
nan

>  <Pocket>  (212) 
nan

>  <ATP_Site>  (212) 
nan

>  <Peripheral>  (212) 
nan

>  <Num_H_Atoms_ProtBoundConf>  (212) 
nan

>  <Num_Resolved_Atoms>  (212) 
nan

>  <Num_Not_Resolved_Atoms>  (212) 
nan

$$$$
CHEMBL3355168
     RDKit          3D

  0  0  0  0  0  0  0  0  0  0999 V3000
M  V30 BEGIN CTAB
M  V30 COUNTS 54 57 0 0 0
M  V30 BEGIN ATOM
M  V30 1 C 4.825039 -1.878711 5.352885 0
M  V30 2 C 4.883731 -1.094760 4.083321 0
M  V30 3 C 5.397772 0.180525 3.990931 0
M  V30 4 C 5.400594 0.820463 2.745804 0
M  V30 5 C 4.889969 0.175436 1.615507 0
M  V30 6 C 4.941169 0.945616 0.329703 0
M  V30 7 N 3.747746 1.745973 0.157251 0
M  V30 8 C 2.462548 1.335701 -0.225166 0
M  V30 9 O 2.309648 0.090634 -0.456351 0
M  V30 10 C 1.328864 2.240165 -0.365447 0
M  V30 11 C 1.348499 3.583277 -0.174587 0
M  V30 12 C 0.263518 4.422920 -0.309244 0
M  V30 13 C -0.947413 3.877708 -0.665144 0
M  V30 14 C -1.047115 2.513945 -0.877401 0
M  V30 15 N -2.249040 1.806306 -1.251800 0
M  V30 16 C -2.772616 0.890673 -0.383142 0
M  V30 17 C -3.921624 0.357125 -0.982562 0
M  V30 18 N -4.727690 -0.646253 -0.335177 0
M  V30 19 C -4.399793 -2.014852 -0.572290 0
M  V30 20 O -3.415054 -2.251834 -1.342979 0
M  V30 21 N -5.073766 -3.122610 -0.025370 0
M  V30 22 C -4.655422 -4.470173 -0.334580 0
M  V30 23 C -5.222972 -5.099795 -1.436300 0
M  V30 24 C -4.834886 -6.406231 -1.758250 0
M  V30 25 C -3.891260 -6.991829 -0.937385 0
M  V30 26 C -3.305929 -6.395505 0.165867 0
M  V30 27 C -3.708913 -5.099492 0.462994 0
M  V30 28 Cl -3.002453 -4.286247 1.852250 0
M  V30 29 C -4.024516 0.995776 -2.201723 0
M  V30 30 N -3.003965 1.862763 -2.336752 0
M  V30 31 C 0.087500 1.711231 -0.726218 0
M  V30 32 C 4.389500 -1.102628 1.776464 0
M  V30 33 N 4.394523 -1.702207 2.978983 0
M  V30 34 H 3.772353 -2.223969 5.452692 0
M  V30 35 H 5.548999 -2.697705 5.403559 0
M  V30 36 H 5.024789 -1.195811 6.229210 0
M  V30 37 H 5.778438 0.630485 4.895778 0
M  V30 38 H 5.820083 1.822993 2.744884 0
M  V30 39 H 5.821430 1.587041 0.351047 0
M  V30 40 H 5.056851 0.248119 -0.527040 0
M  V30 41 H 3.823790 2.782773 0.337093 0
M  V30 42 H 2.264827 4.051644 0.102360 0
M  V30 43 H 0.328915 5.491692 -0.146072 0
M  V30 44 H -1.868519 4.447145 -0.799332 0
M  V30 45 H -2.400628 0.603268 0.592255 0
M  V30 46 H -5.552733 -0.465560 0.309616 0
M  V30 47 H -5.872213 -2.891337 0.600102 0
M  V30 48 H -5.961014 -4.625866 -2.068216 0
M  V30 49 H -5.243550 -6.945104 -2.604487 0
M  V30 50 H -3.554263 -8.019047 -1.150297 0
M  V30 51 H -2.564287 -6.939954 0.758582 0
M  V30 52 H -4.825208 0.780943 -2.886578 0
M  V30 53 H 0.024426 0.624873 -0.891327 0
M  V30 54 H 4.002277 -1.583189 0.890779 0
M  V30 END ATOM
M  V30 BEGIN BOND
M  V30 1 1 1 2
M  V30 2 2 2 3
M  V30 3 1 3 4
M  V30 4 2 4 5
M  V30 5 1 5 6
M  V30 6 1 6 7
M  V30 7 1 7 8
M  V30 8 2 8 9
M  V30 9 1 8 10
M  V30 10 2 10 11
M  V30 11 1 11 12
M  V30 12 2 12 13
M  V30 13 1 13 14
M  V30 14 1 14 15
M  V30 15 1 15 16
M  V30 16 2 16 17
M  V30 17 1 17 18
M  V30 18 1 18 19
M  V30 19 2 19 20
M  V30 20 1 19 21
M  V30 21 1 21 22
M  V30 22 2 22 23
M  V30 23 1 23 24
M  V30 24 2 24 25
M  V30 25 1 25 26
M  V30 26 2 26 27
M  V30 27 1 27 28
M  V30 28 1 17 29
M  V30 29 2 29 30
M  V30 30 2 14 31
M  V30 31 1 5 32
M  V30 32 2 32 33
M  V30 33 1 33 2
M  V30 34 1 31 10
M  V30 35 1 30 15
M  V30 36 1 27 22
M  V30 37 1 1 34
M  V30 38 1 1 35
M  V30 39 1 1 36
M  V30 40 1 3 37
M  V30 41 1 4 38
M  V30 42 1 6 39
M  V30 43 1 6 40
M  V30 44 1 7 41
M  V30 45 1 11 42
M  V30 46 1 12 43
M  V30 47 1 13 44
M  V30 48 1 16 45
M  V30 49 1 18 46
M  V30 50 1 21 47
M  V30 51 1 23 48
M  V30 52 1 24 49
M  V30 53 1 25 50
M  V30 54 1 26 51
M  V30 55 1 29 52
M  V30 56 1 31 53
M  V30 57 1 32 54
M  V30 END BOND
M  V30 END CTAB
M  END
>  <Dataset>  (213) 
ChEMBL_Kinases

>  <Ligand_Instance>  (213) 
nan

>  <PDB_ID>  (213) 
nan

>  <Standardized_SMILES>  (213) 
Cc1ccc(CNC(=O)c2cccc(-n3cc(NC(=O)Nc4ccccc4Cl)cn3)c2)cn1

>  <Name>  (213) 
nan

>  <Pocket>  (213) 
nan

>  <ATP_Site>  (213) 
nan

>  <Peripheral>  (213) 
nan

>  <Num_H_Atoms_ProtBoundConf>  (213) 
nan

>  <Num_Resolved_Atoms>  (213) 
nan

>  <Num_Not_Resolved_Atoms>  (213) 
nan

$$$$
CHEMBL4129362
     RDKit          3D

  0  0  0  0  0  0  0  0  0  0999 V3000
M  V30 BEGIN CTAB
M  V30 COUNTS 43 46 0 0 0
M  V30 BEGIN ATOM
M  V30 1 C -1.506887 -3.818595 0.872829 0
M  V30 2 O -0.340579 -3.208839 0.360910 0
M  V30 3 C 0.621376 -3.831954 -0.386513 0
M  V30 4 C 0.439060 -5.168787 -0.664895 0
M  V30 5 C 1.361382 -5.868263 -1.411049 0
M  V30 6 C 2.463615 -5.177743 -1.862018 0
M  V30 7 C 2.618276 -3.841843 -1.567567 0
M  V30 8 C 1.712035 -3.115143 -0.823119 0
M  V30 9 C 1.944404 -1.704537 -0.551207 0
M  V30 10 C 1.178040 -0.815101 0.166880 0
M  V30 11 C 1.801880 0.414299 0.152778 0
M  V30 12 C 1.541973 1.663052 0.674193 0
M  V30 13 C 0.332301 1.880662 1.457975 0
M  V30 14 C 0.581368 2.595362 2.636971 0
M  V30 15 C -0.438142 2.906315 3.518852 0
M  V30 16 C -1.722813 2.498041 3.219009 0
M  V30 17 C -2.770125 2.844995 4.171165 0
M  V30 18 N -4.093431 2.421327 3.868527 0
M  V30 19 O -2.492929 3.492394 5.210481 0
M  V30 20 C -1.980897 1.793762 2.061421 0
M  V30 21 C -0.960005 1.486032 1.184593 0
M  V30 22 C 2.407750 2.735399 0.471002 0
M  V30 23 C 3.550830 2.503082 -0.280508 0
M  V30 24 N 3.810275 1.279699 -0.794251 0
M  V30 25 C 2.939444 0.270426 -0.569455 0
M  V30 26 N 3.008642 -1.005626 -0.983512 0
M  V30 27 H -2.217382 -4.104819 0.083429 0
M  V30 28 H -1.194976 -4.714181 1.432823 0
M  V30 29 H -1.983894 -3.121583 1.570812 0
M  V30 30 H -0.451269 -5.686824 -0.289386 0
M  V30 31 H 1.231127 -6.911741 -1.635082 0
M  V30 32 H 3.177000 -5.742227 -2.445912 0
M  V30 33 H 3.514035 -3.392742 -1.966908 0
M  V30 34 H 0.260096 -0.999044 0.663620 0
M  V30 35 H 1.574602 2.952729 2.942267 0
M  V30 36 H -0.246101 3.453863 4.421637 0
M  V30 37 H -5.005604 2.228472 4.282145 0
M  V30 38 H -4.746453 2.365125 4.677832 0
M  V30 39 H -2.982420 1.469302 1.817143 0
M  V30 40 H -1.067422 0.944054 0.258705 0
M  V30 41 H 2.134072 3.694607 0.915796 0
M  V30 42 H 4.180705 3.367868 -0.402989 0
M  V30 43 H 3.792008 -1.410657 -1.570634 0
M  V30 END ATOM
M  V30 BEGIN BOND
M  V30 1 1 1 2
M  V30 2 1 2 3
M  V30 3 2 3 4
M  V30 4 1 4 5
M  V30 5 2 5 6
M  V30 6 1 6 7
M  V30 7 2 7 8
M  V30 8 1 8 9
M  V30 9 2 9 10
M  V30 10 1 10 11
M  V30 11 2 11 12
M  V30 12 1 12 13
M  V30 13 2 13 14
M  V30 14 1 14 15
M  V30 15 2 15 16
M  V30 16 1 16 17
M  V30 17 1 17 18
M  V30 18 2 17 19
M  V30 19 1 16 20
M  V30 20 2 20 21
M  V30 21 1 12 22
M  V30 22 2 22 23
M  V30 23 1 23 24
M  V30 24 2 24 25
M  V30 25 1 25 26
M  V30 26 1 8 3
M  V30 27 1 26 9
M  V30 28 1 25 11
M  V30 29 1 21 13
M  V30 30 1 1 27
M  V30 31 1 1 28
M  V30 32 1 1 29
M  V30 33 1 4 30
M  V30 34 1 5 31
M  V30 35 1 6 32
M  V30 36 1 7 33
M  V30 37 1 10 34
M  V30 38 1 14 35
M  V30 39 1 15 36
M  V30 40 1 18 37
M  V30 41 1 18 38
M  V30 42 1 20 39
M  V30 43 1 21 40
M  V30 44 1 22 41
M  V30 45 1 23 42
M  V30 46 1 26 43
M  V30 END BOND
M  V30 END CTAB
M  END
>  <Dataset>  (214) 
ChEMBL_Kinases

>  <Ligand_Instance>  (214) 
nan

>  <PDB_ID>  (214) 
nan

>  <Standardized_SMILES>  (214) 
COc1ccccc1-c1cc2c(-c3ccc(C(N)=O)cc3)ccnc2[nH]1

>  <Name>  (214) 
nan

>  <Pocket>  (214) 
nan

>  <ATP_Site>  (214) 
nan

>  <Peripheral>  (214) 
nan

>  <Num_H_Atoms_ProtBoundConf>  (214) 
nan

>  <Num_Resolved_Atoms>  (214) 
nan

>  <Num_Not_Resolved_Atoms>  (214) 
nan

$$$$
CHEMBL4791409
     RDKit          3D

  0  0  0  0  0  0  0  0  0  0999 V3000
M  V30 BEGIN CTAB
M  V30 COUNTS 59 64 0 0 0
M  V30 BEGIN ATOM
M  V30 1 C 0.853394 -1.742874 2.632666 0
M  V30 2 C 2.092886 -2.508412 2.499472 0
M  V30 3 C 2.144465 -3.786363 3.001824 0
M  V30 4 C 3.269611 -4.574050 2.973017 0
M  V30 5 N 4.333107 -3.989556 2.407010 0
M  V30 6 C 4.296347 -2.749890 1.914674 0
M  V30 7 C 3.187016 -1.923292 1.921322 0
M  V30 8 C 3.361603 -0.603395 1.357429 0
M  V30 9 C 2.430080 0.288684 0.910128 0
M  V30 10 C 2.695542 1.504323 0.366561 0
M  V30 11 C 1.930483 2.533725 -0.127231 0
M  V30 12 C 0.495057 2.624715 -0.216567 0
M  V30 13 N -0.476927 1.739497 0.110058 0
M  V30 14 C -1.675652 2.288687 -0.178965 0
M  V30 15 C -2.977970 1.861152 -0.054590 0
M  V30 16 C -3.302229 0.528697 0.442978 0
M  V30 17 C -4.148349 0.111857 1.449317 0
M  V30 18 C -4.291716 -1.238783 1.680578 0
M  V30 19 F -5.131305 -1.564289 2.675465 0
M  V30 20 C -3.618303 -2.187308 0.939835 0
M  V30 21 C -2.755664 -1.781236 -0.085705 0
M  V30 22 C -2.084931 -2.865028 -0.843461 0
M  V30 23 N -0.819160 -3.273293 -0.322008 0
M  V30 24 S -0.253835 -4.544980 -1.383399 0
M  V30 25 C -1.448570 -5.872126 -1.285329 0
M  V30 26 O -0.172057 -3.959072 -2.754082 0
M  V30 27 O 1.063216 -5.054784 -0.887085 0
M  V30 28 C -2.613593 -0.420132 -0.314731 0
M  V30 29 C -4.068495 2.623550 -0.418948 0
M  V30 30 N -3.805489 3.853740 -0.923937 0
M  V30 31 C -2.567067 4.322344 -1.069728 0
M  V30 32 C -1.484940 3.550723 -0.701221 0
M  V30 33 N -0.151017 3.718815 -0.708887 0
M  V30 34 N 2.763003 3.504729 -0.528943 0
M  V30 35 N 4.020506 3.147914 -0.318187 0
M  V30 36 C 4.000608 1.923628 0.230417 0
M  V30 37 C 4.931499 1.016597 0.682416 0
M  V30 38 N 4.609362 -0.158892 1.205434 0
M  V30 39 H 1.047987 -0.720879 3.067593 0
M  V30 40 H 0.193560 -1.731137 1.763022 0
M  V30 41 H 0.265793 -2.235810 3.485504 0
M  V30 42 H 1.243885 -4.204483 3.450112 0
M  V30 43 H 3.225911 -5.555970 3.384601 0
M  V30 44 H 5.267721 -2.459429 1.496729 0
M  V30 45 H 1.400289 0.037775 0.956401 0
M  V30 46 H -4.604482 0.946086 1.941572 0
M  V30 47 H -3.784155 -3.241353 1.183208 0
M  V30 48 H -2.790552 -3.728710 -0.944642 0
M  V30 49 H -1.909911 -2.553920 -1.916246 0
M  V30 50 H -0.101446 -2.499830 -0.475234 0
M  V30 51 H -1.974421 -5.818308 -0.293291 0
M  V30 52 H -0.926058 -6.826475 -1.353979 0
M  V30 53 H -2.222043 -5.743408 -2.074158 0
M  V30 54 H -1.919222 -0.260284 -1.130832 0
M  V30 55 H -5.098893 2.331201 -0.338530 0
M  V30 56 H -2.407594 5.306168 -1.476241 0
M  V30 57 H 0.248908 4.633207 -1.075700 0
M  V30 58 H 4.892666 3.693656 -0.527897 0
M  V30 59 H 5.990408 1.271342 0.609955 0
M  V30 END ATOM
M  V30 BEGIN BOND
M  V30 1 1 1 2
M  V30 2 2 2 3
M  V30 3 1 3 4
M  V30 4 2 4 5
M  V30 5 1 5 6
M  V30 6 2 6 7
M  V30 7 1 7 8
M  V30 8 2 8 9
M  V30 9 1 9 10
M  V30 10 1 10 11
M  V30 11 1 11 12
M  V30 12 2 12 13
M  V30 13 1 13 14
M  V30 14 2 14 15
M  V30 15 1 15 16
M  V30 16 2 16 17
M  V30 17 1 17 18
M  V30 18 1 18 19
M  V30 19 2 18 20
M  V30 20 1 20 21
M  V30 21 1 21 22
M  V30 22 1 22 23
M  V30 23 1 23 24
M  V30 24 1 24 25
M  V30 25 2 24 26
M  V30 26 2 24 27
M  V30 27 2 21 28
M  V30 28 1 15 29
M  V30 29 2 29 30
M  V30 30 1 30 31
M  V30 31 2 31 32
M  V30 32 1 32 33
M  V30 33 2 11 34
M  V30 34 1 34 35
M  V30 35 1 35 36
M  V30 36 1 36 37
M  V30 37 2 37 38
M  V30 38 1 7 2
M  V30 39 1 38 8
M  V30 40 2 36 10
M  V30 41 1 33 12
M  V30 42 1 32 14
M  V30 43 1 28 16
M  V30 44 1 1 39
M  V30 45 1 1 40
M  V30 46 1 1 41
M  V30 47 1 3 42
M  V30 48 1 4 43
M  V30 49 1 6 44
M  V30 50 1 9 45
M  V30 51 1 17 46
M  V30 52 1 20 47
M  V30 53 1 22 48
M  V30 54 1 22 49
M  V30 55 1 23 50
M  V30 56 1 25 51
M  V30 57 1 25 52
M  V30 58 1 25 53
M  V30 59 1 28 54
M  V30 60 1 29 55
M  V30 61 1 31 56
M  V30 62 1 33 57
M  V30 63 1 35 58
M  V30 64 1 37 59
M  V30 END BOND
M  V30 END CTAB
M  END
>  <Dataset>  (215) 
ChEMBL_Kinases

>  <Ligand_Instance>  (215) 
nan

>  <PDB_ID>  (215) 
nan

>  <Standardized_SMILES>  (215) 
Cc1ccncc1-c1cc2c(-c3nc4c(-c5cc(F)cc(CNS(C)(=O)=O)c5)cncc4[nH]3)n[nH]c2cn1

>  <Name>  (215) 
nan

>  <Pocket>  (215) 
nan

>  <ATP_Site>  (215) 
nan

>  <Peripheral>  (215) 
nan

>  <Num_H_Atoms_ProtBoundConf>  (215) 
nan

>  <Num_Resolved_Atoms>  (215) 
nan

>  <Num_Not_Resolved_Atoms>  (215) 
nan

$$$$
CHEMBL4789136
     RDKit          3D

  0  0  0  0  0  0  0  0  0  0999 V3000
M  V30 BEGIN CTAB
M  V30 COUNTS 57 61 0 0 0
M  V30 BEGIN ATOM
M  V30 1 C 6.536137 -7.337321 0.586978 0
M  V30 2 C 5.720902 -6.096070 0.648320 0
M  V30 3 C 6.001873 -4.817317 1.069011 0
M  V30 4 C 4.990195 -3.939621 0.970416 0
M  V30 5 C 5.184562 -2.533283 1.389422 0
M  V30 6 C 6.343472 -2.009412 1.924405 0
M  V30 7 C 6.378132 -0.659968 2.270696 0
M  V30 8 C 5.274918 0.156089 2.086194 0
M  V30 9 N 4.983420 1.451454 2.304224 0
M  V30 10 N 3.750609 1.737189 1.942952 0
M  V30 11 C 3.147439 0.617474 1.454677 0
M  V30 12 C 1.770830 0.481513 0.930193 0
M  V30 13 O 1.316997 -0.609638 0.511540 0
M  V30 14 N 0.969417 1.666659 0.921396 0
M  V30 15 C -0.335379 1.424443 0.393619 0
M  V30 16 C -1.374625 1.054579 1.223878 0
M  V30 17 C -2.604216 0.834687 0.641764 0
M  V30 18 C -2.806889 0.977256 -0.736497 0
M  V30 19 O -3.958642 0.769670 -1.266673 0
M  V30 20 C -4.958564 0.643009 -2.103512 0
M  V30 21 C -6.023162 1.722162 -1.800905 0
M  V30 22 C -6.270715 1.681822 -0.294575 0
M  V30 23 N -6.729485 0.401049 0.121404 0
M  V30 24 C -6.362084 -0.022622 1.427945 0
M  V30 25 C -6.791691 -0.600637 -0.873585 0
M  V30 26 C -5.675308 -0.689060 -1.845685 0
M  V30 27 C -1.694126 1.355685 -1.497323 0
M  V30 28 C -0.435045 1.590973 -0.978653 0
M  V30 29 C 4.110104 -0.365691 1.549141 0
M  V30 30 C 4.074826 -1.706637 1.205604 0
M  V30 31 S 3.598490 -4.723727 0.320357 0
M  V30 32 N 4.416199 -6.400880 0.150072 0
M  V30 33 H 6.125108 -8.082947 1.279890 0
M  V30 34 H 6.624601 -7.680379 -0.450898 0
M  V30 35 H 7.547242 -7.074805 1.017414 0
M  V30 36 H 7.008908 -4.678421 1.427853 0
M  V30 37 H 7.167051 -2.684595 2.047584 0
M  V30 38 H 7.265142 -0.243514 2.683259 0
M  V30 39 H 5.648867 2.158047 2.709717 0
M  V30 40 H 1.302834 2.612173 1.266070 0
M  V30 41 H -1.185334 0.954565 2.283147 0
M  V30 42 H -3.445254 0.543557 1.257553 0
M  V30 43 H -4.743087 0.721651 -3.204825 0
M  V30 44 H -6.945558 1.544470 -2.359484 0
M  V30 45 H -5.594043 2.692219 -2.081462 0
M  V30 46 H -7.075997 2.426439 -0.111567 0
M  V30 47 H -5.376368 2.037292 0.252288 0
M  V30 48 H -7.283082 -0.447480 1.927106 0
M  V30 49 H -5.620818 -0.871926 1.439140 0
M  V30 50 H -6.027128 0.807645 2.087841 0
M  V30 51 H -7.756842 -0.458214 -1.441757 0
M  V30 52 H -6.936923 -1.577453 -0.356275 0
M  V30 53 H -5.986048 -1.150041 -2.809681 0
M  V30 54 H -4.910075 -1.390280 -1.429782 0
M  V30 55 H -1.826100 1.473235 -2.570003 0
M  V30 56 H 0.391527 1.878985 -1.604760 0
M  V30 57 H 3.144800 -2.077802 0.785923 0
M  V30 END ATOM
M  V30 BEGIN BOND
M  V30 1 1 1 2
M  V30 2 1 2 3
M  V30 3 2 3 4
M  V30 4 1 4 5
M  V30 5 2 5 6
M  V30 6 1 6 7
M  V30 7 2 7 8
M  V30 8 1 8 9
M  V30 9 1 9 10
M  V30 10 2 10 11
M  V30 11 1 11 12
M  V30 12 2 12 13
M  V30 13 1 12 14
M  V30 14 1 14 15
M  V30 15 2 15 16
M  V30 16 1 16 17
M  V30 17 2 17 18
M  V30 18 1 18 19
M  V30 19 1 19 20
M  V30 20 1 20 21
M  V30 21 1 21 22
M  V30 22 1 22 23
M  V30 23 1 23 24
M  V30 24 1 23 25
M  V30 25 1 25 26
M  V30 26 1 18 27
M  V30 27 2 27 28
M  V30 28 1 11 29
M  V30 29 2 29 30
M  V30 30 1 4 31
M  V30 31 1 31 32
M  V30 32 2 32 2
M  V30 33 1 30 5
M  V30 34 1 29 8
M  V30 35 1 28 15
M  V30 36 1 26 20
M  V30 37 1 1 33
M  V30 38 1 1 34
M  V30 39 1 1 35
M  V30 40 1 3 36
M  V30 41 1 6 37
M  V30 42 1 7 38
M  V30 43 1 9 39
M  V30 44 1 14 40
M  V30 45 1 16 41
M  V30 46 1 17 42
M  V30 47 1 20 43
M  V30 48 1 21 44
M  V30 49 1 21 45
M  V30 50 1 22 46
M  V30 51 1 22 47
M  V30 52 1 24 48
M  V30 53 1 24 49
M  V30 54 1 24 50
M  V30 55 1 25 51
M  V30 56 1 25 52
M  V30 57 1 26 53
M  V30 58 1 26 54
M  V30 59 1 27 55
M  V30 60 1 28 56
M  V30 61 1 30 57
M  V30 END BOND
M  V30 END CTAB
M  END
>  <Dataset>  (216) 
ChEMBL_Kinases

>  <Ligand_Instance>  (216) 
nan

>  <PDB_ID>  (216) 
nan

>  <Standardized_SMILES>  (216) 
Cc1cc(-c2ccc3[nH]nc(C(=O)Nc4ccc(OC5CCN(C)CC5)cc4)c3c2)sn1

>  <Name>  (216) 
nan

>  <Pocket>  (216) 
nan

>  <ATP_Site>  (216) 
nan

>  <Peripheral>  (216) 
nan

>  <Num_H_Atoms_ProtBoundConf>  (216) 
nan

>  <Num_Resolved_Atoms>  (216) 
nan

>  <Num_Not_Resolved_Atoms>  (216) 
nan

$$$$
CHEMBL4790321
     RDKit          3D

  0  0  0  0  0  0  0  0  0  0999 V3000
M  V30 BEGIN CTAB
M  V30 COUNTS 45 48 0 0 0
M  V30 BEGIN ATOM
M  V30 1 C 1.237011 -4.843274 1.503556 0
M  V30 2 C 0.514323 -3.505653 1.475261 0
M  V30 3 C -0.878950 -3.728858 1.990690 0
M  V30 4 C 1.303954 -2.582845 2.373379 0
M  V30 5 O 1.301965 -3.162278 3.646881 0
M  V30 6 C 0.524971 -3.003530 0.032781 0
M  V30 7 N -0.144644 -1.726228 -0.099731 0
M  V30 8 N 0.466472 -0.575086 0.027512 0
M  V30 9 C -0.343136 0.481996 -0.134041 0
M  V30 10 C 0.073160 1.851763 -0.018831 0
M  V30 11 C -0.343266 3.097520 -0.304679 0
M  V30 12 N 0.495254 4.102004 -0.026659 0
M  V30 13 C 1.580012 3.504496 0.492384 0
M  V30 14 C 2.748907 4.062590 0.958027 0
M  V30 15 C 3.746367 3.268188 1.464563 0
M  V30 16 C 3.552061 1.909353 1.495949 0
M  V30 17 C 2.387799 1.396440 1.028287 0
M  V30 18 C 1.333100 2.149953 0.499848 0
M  V30 19 C -1.524556 -0.158360 -0.372923 0
M  V30 20 C -2.782021 0.334808 -0.604302 0
M  V30 21 N -3.029790 1.712915 -0.603597 0
M  V30 22 N -3.847505 -0.458388 -0.807116 0
M  V30 23 C -3.717323 -1.819214 -0.789179 0
M  V30 24 N -2.487673 -2.330627 -0.560522 0
M  V30 25 C -1.430727 -1.531653 -0.358730 0
M  V30 26 H 0.787120 -5.465793 0.704521 0
M  V30 27 H 2.318302 -4.695875 1.423042 0
M  V30 28 H 1.016713 -5.296832 2.503592 0
M  V30 29 H -1.396280 -4.439869 1.325957 0
M  V30 30 H -0.768020 -4.206541 2.986763 0
M  V30 31 H -1.434325 -2.782550 2.150199 0
M  V30 32 H 0.923373 -1.553977 2.409458 0
M  V30 33 H 2.361496 -2.580068 2.042917 0
M  V30 34 H 2.059121 -2.810427 4.183922 0
M  V30 35 H 1.576183 -2.870940 -0.264195 0
M  V30 36 H 0.037485 -3.758973 -0.615376 0
M  V30 37 H -1.273870 3.345865 -0.755275 0
M  V30 38 H 0.390530 5.113548 -0.157221 0
M  V30 39 H 2.896709 5.131207 0.931246 0
M  V30 40 H 4.647604 3.744354 1.819873 0
M  V30 41 H 4.342608 1.317706 1.894772 0
M  V30 42 H 2.323631 0.330719 1.093304 0
M  V30 43 H -3.167352 2.216881 0.316214 0
M  V30 44 H -3.021030 1.958119 -1.637934 0
M  V30 45 H -4.526928 -2.515590 -0.944440 0
M  V30 END ATOM
M  V30 BEGIN BOND
M  V30 1 1 1 2
M  V30 2 1 2 3
M  V30 3 1 2 4
M  V30 4 1 4 5
M  V30 5 1 2 6
M  V30 6 1 6 7
M  V30 7 1 7 8
M  V30 8 2 8 9
M  V30 9 1 9 10
M  V30 10 2 10 11
M  V30 11 1 11 12
M  V30 12 1 12 13
M  V30 13 2 13 14
M  V30 14 1 14 15
M  V30 15 2 15 16
M  V30 16 1 16 17
M  V30 17 2 17 18
M  V30 18 1 9 19
M  V30 19 2 19 20
M  V30 20 1 20 21
M  V30 21 1 20 22
M  V30 22 2 22 23
M  V30 23 1 23 24
M  V30 24 2 24 25
M  V30 25 1 25 7
M  V30 26 1 18 10
M  V30 27 1 25 19
M  V30 28 1 18 13
M  V30 29 1 1 26
M  V30 30 1 1 27
M  V30 31 1 1 28
M  V30 32 1 3 29
M  V30 33 1 3 30
M  V30 34 1 3 31
M  V30 35 1 4 32
M  V30 36 1 4 33
M  V30 37 1 5 34
M  V30 38 1 6 35
M  V30 39 1 6 36
M  V30 40 1 11 37
M  V30 41 1 12 38
M  V30 42 1 14 39
M  V30 43 1 15 40
M  V30 44 1 16 41
M  V30 45 1 17 42
M  V30 46 1 21 43
M  V30 47 1 21 44
M  V30 48 1 23 45
M  V30 END BOND
M  V30 END CTAB
M  END
>  <Dataset>  (217) 
ChEMBL_Kinases

>  <Ligand_Instance>  (217) 
nan

>  <PDB_ID>  (217) 
nan

>  <Standardized_SMILES>  (217) 
CC(C)(CO)Cn1nc(-c2c[nH]c3ccccc23)c2c(N)ncnc21

>  <Name>  (217) 
nan

>  <Pocket>  (217) 
nan

>  <ATP_Site>  (217) 
nan

>  <Peripheral>  (217) 
nan

>  <Num_H_Atoms_ProtBoundConf>  (217) 
nan

>  <Num_Resolved_Atoms>  (217) 
nan

>  <Num_Not_Resolved_Atoms>  (217) 
nan

$$$$
CHEMBL3355177
     RDKit          3D

  0  0  0  0  0  0  0  0  0  0999 V3000
M  V30 BEGIN CTAB
M  V30 COUNTS 61 65 0 0 0
M  V30 BEGIN ATOM
M  V30 1 O 3.082300 -3.864755 2.711858 0
M  V30 2 C 3.951632 -4.168029 3.558490 0
M  V30 3 N 4.878402 -3.150286 3.915322 0
M  V30 4 C 4.926645 -1.818403 3.413391 0
M  V30 5 C 5.816413 -0.818891 3.746996 0
M  V30 6 N 5.505388 0.266316 3.046472 0
M  V30 7 N 4.461325 0.059633 2.261753 0
M  V30 8 C 3.839279 0.982103 1.368552 0
M  V30 9 C 4.518711 2.036535 0.793155 0
M  V30 10 C 3.819499 2.867314 -0.055884 0
M  V30 11 C 2.483697 2.639376 -0.312544 0
M  V30 12 C 1.775130 1.604239 0.239016 0
M  V30 13 C 0.366307 1.334997 -0.009956 0
M  V30 14 O -0.170588 0.346885 0.561277 0
M  V30 15 N -0.444042 2.126325 -0.864953 0
M  V30 16 C -1.805460 1.901287 -1.132030 0
M  V30 17 C -2.655875 0.924738 -0.669667 0
M  V30 18 N -3.852887 1.122602 -1.202484 0
M  V30 19 N -3.846240 2.181856 -1.997683 0
M  V30 20 C -5.070010 2.562031 -2.676195 0
M  V30 21 C -6.259116 2.329995 -1.794048 0
M  V30 22 C -6.787459 0.928490 -1.825979 0
M  V30 23 N -6.173231 0.104317 -2.837612 0
M  V30 24 C -6.272189 0.845883 -4.081382 0
M  V30 25 C -5.183249 1.897360 -4.022418 0
M  V30 26 C -2.603535 2.658063 -1.957620 0
M  V30 27 C 2.502562 0.794337 1.081372 0
M  V30 28 C 4.102268 -1.219762 2.483715 0
M  V30 29 N 3.972306 -5.457298 4.100363 0
M  V30 30 C 2.928642 -6.277823 3.565989 0
M  V30 31 C 1.687935 -6.301127 4.210300 0
M  V30 32 C 0.595051 -7.057773 3.788463 0
M  V30 33 C 0.784313 -7.819037 2.662245 0
M  V30 34 C 1.987717 -7.833062 1.988100 0
M  V30 35 C 3.045851 -7.067760 2.440491 0
M  V30 36 Cl 4.611287 -7.043866 1.620349 0
M  V30 37 H 5.598318 -3.425319 4.626192 0
M  V30 38 H 6.624385 -0.916516 4.459078 0
M  V30 39 H 5.562920 2.134232 1.054382 0
M  V30 40 H 4.365594 3.696396 -0.504469 0
M  V30 41 H 2.005677 3.319067 -0.977041 0
M  V30 42 H 0.047783 2.922447 -1.306136 0
M  V30 43 H -2.414983 0.124202 0.010193 0
M  V30 44 H -5.000628 3.653954 -2.868651 0
M  V30 45 H -7.073400 3.057948 -2.008570 0
M  V30 46 H -5.940213 2.532568 -0.745302 0
M  V30 47 H -7.874681 0.938772 -2.060744 0
M  V30 48 H -6.685274 0.393215 -0.856075 0
M  V30 49 H -6.688466 -0.793293 -2.882912 0
M  V30 50 H -7.284350 1.283812 -4.235977 0
M  V30 51 H -6.027298 0.184687 -4.953465 0
M  V30 52 H -5.445442 2.625034 -4.837022 0
M  V30 53 H -4.232577 1.381021 -4.277793 0
M  V30 54 H -2.352754 3.549623 -2.548301 0
M  V30 55 H 1.976854 -0.049495 1.547637 0
M  V30 56 H 3.270977 -1.660993 1.971503 0
M  V30 57 H 4.704148 -5.702280 4.808854 0
M  V30 58 H 1.590810 -5.683771 5.092898 0
M  V30 59 H -0.316252 -6.992527 4.372410 0
M  V30 60 H -0.074006 -8.406335 2.340270 0
M  V30 61 H 2.116264 -8.443873 1.097260 0
M  V30 END ATOM
M  V30 BEGIN BOND
M  V30 1 2 1 2
M  V30 2 1 2 3
M  V30 3 1 3 4
M  V30 4 1 4 5
M  V30 5 2 5 6
M  V30 6 1 6 7
M  V30 7 1 7 8
M  V30 8 2 8 9
M  V30 9 1 9 10
M  V30 10 2 10 11
M  V30 11 1 11 12
M  V30 12 1 12 13
M  V30 13 2 13 14
M  V30 14 1 13 15
M  V30 15 1 15 16
M  V30 16 1 16 17
M  V30 17 2 17 18
M  V30 18 1 18 19
M  V30 19 1 19 20
M  V30 20 1 20 21
M  V30 21 1 21 22
M  V30 22 1 22 23
M  V30 23 1 23 24
M  V30 24 1 24 25
M  V30 25 1 19 26
M  V30 26 2 12 27
M  V30 27 1 7 28
M  V30 28 1 2 29
M  V30 29 1 29 30
M  V30 30 2 30 31
M  V30 31 1 31 32
M  V30 32 2 32 33
M  V30 33 1 33 34
M  V30 34 2 34 35
M  V30 35 1 35 36
M  V30 36 2 28 4
M  V30 37 1 35 30
M  V30 38 1 27 8
M  V30 39 2 26 16
M  V30 40 1 25 20
M  V30 41 1 3 37
M  V30 42 1 5 38
M  V30 43 1 9 39
M  V30 44 1 10 40
M  V30 45 1 11 41
M  V30 46 1 15 42
M  V30 47 1 17 43
M  V30 48 1 20 44
M  V30 49 1 21 45
M  V30 50 1 21 46
M  V30 51 1 22 47
M  V30 52 1 22 48
M  V30 53 1 23 49
M  V30 54 1 24 50
M  V30 55 1 24 51
M  V30 56 1 25 52
M  V30 57 1 25 53
M  V30 58 1 26 54
M  V30 59 1 27 55
M  V30 60 1 28 56
M  V30 61 1 29 57
M  V30 62 1 31 58
M  V30 63 1 32 59
M  V30 64 1 33 60
M  V30 65 1 34 61
M  V30 END BOND
M  V30 END CTAB
M  END
>  <Dataset>  (218) 
ChEMBL_Kinases

>  <Ligand_Instance>  (218) 
nan

>  <PDB_ID>  (218) 
nan

>  <Standardized_SMILES>  (218) 
O=C(Nc1cnn(-c2cccc(C(=O)Nc3cnn(C4CCNCC4)c3)c2)c1)Nc1ccccc1Cl

>  <Name>  (218) 
nan

>  <Pocket>  (218) 
nan

>  <ATP_Site>  (218) 
nan

>  <Peripheral>  (218) 
nan

>  <Num_H_Atoms_ProtBoundConf>  (218) 
nan

>  <Num_Resolved_Atoms>  (218) 
nan

>  <Num_Not_Resolved_Atoms>  (218) 
nan

$$$$
CHEMBL4129779
     RDKit          3D

  0  0  0  0  0  0  0  0  0  0999 V3000
M  V30 BEGIN CTAB
M  V30 COUNTS 54 57 0 0 0
M  V30 BEGIN ATOM
M  V30 1 C 1.515129 -5.218689 3.998122 0
M  V30 2 O 2.201912 -5.281650 2.770367 0
M  V30 3 C 2.582749 -4.114052 2.093774 0
M  V30 4 C 2.309365 -2.862304 2.587601 0
M  V30 5 C 2.704398 -1.720899 1.883399 0
M  V30 6 C 3.375458 -1.819846 0.681222 0
M  V30 7 C 3.784149 -0.617789 -0.053328 0
M  V30 8 C 5.005419 -0.303108 -0.650529 0
M  V30 9 N 4.936809 0.916784 -1.211859 0
M  V30 10 C 3.723654 1.462344 -1.031015 0
M  V30 11 C 3.105722 2.649194 -1.371377 0
M  V30 12 C 1.784154 2.944622 -1.027084 0
M  V30 13 C 1.068612 2.007201 -0.315924 0
M  V30 14 C -0.310407 2.200905 0.121084 0
M  V30 15 C -1.023518 3.355631 -0.118465 0
M  V30 16 N -2.283448 3.461390 0.333229 0
M  V30 17 C -2.928587 2.505040 1.021163 0
M  V30 18 C -2.210761 1.326160 1.268761 0
M  V30 19 N -2.655115 0.174427 1.980639 0
M  V30 20 C -3.744970 -0.598254 1.425674 0
M  V30 21 C -3.491063 -1.099867 0.034051 0
M  V30 22 N -4.667625 -1.848729 -0.400608 0
M  V30 23 C -5.800104 -0.943575 -0.576821 0
M  V30 24 C -4.433303 -2.490639 -1.683690 0
M  V30 25 N -0.956932 1.268203 0.798144 0
M  V30 26 C 1.702788 0.827027 0.015315 0
M  V30 27 C 3.006236 0.515314 -0.313892 0
M  V30 28 C 3.654876 -3.099256 0.178110 0
M  V30 29 C 3.253568 -4.234236 0.893001 0
M  V30 30 H 2.127080 -4.931790 4.860132 0
M  V30 31 H 0.632693 -4.541805 3.920864 0
M  V30 32 H 1.141850 -6.257228 4.203672 0
M  V30 33 H 1.783085 -2.866843 3.528845 0
M  V30 34 H 2.458428 -0.770181 2.339059 0
M  V30 35 H 5.873264 -0.983247 -0.640421 0
M  V30 36 H 5.710721 1.399383 -1.726459 0
M  V30 37 H 3.674769 3.379203 -1.929329 0
M  V30 38 H 1.325021 3.877287 -1.304933 0
M  V30 39 H -0.577811 4.173323 -0.664238 0
M  V30 40 H -3.930008 2.505392 1.418170 0
M  V30 41 H -2.146146 -0.035912 2.880807 0
M  V30 42 H -3.982741 -1.462938 2.099856 0
M  V30 43 H -4.669454 0.034725 1.406447 0
M  V30 44 H -2.616106 -1.774967 0.036298 0
M  V30 45 H -3.313922 -0.230052 -0.640057 0
M  V30 46 H -5.463328 0.035101 -0.978225 0
M  V30 47 H -6.391073 -0.843728 0.362773 0
M  V30 48 H -6.492026 -1.392870 -1.316100 0
M  V30 49 H -5.145922 -3.341663 -1.749285 0
M  V30 50 H -4.750054 -1.777753 -2.471183 0
M  V30 51 H -3.370244 -2.796074 -1.830457 0
M  V30 52 H 1.133334 0.094275 0.568899 0
M  V30 53 H 4.187417 -3.176635 -0.774954 0
M  V30 54 H 3.482967 -5.199807 0.479454 0
M  V30 END ATOM
M  V30 BEGIN BOND
M  V30 1 1 1 2
M  V30 2 1 2 3
M  V30 3 2 3 4
M  V30 4 1 4 5
M  V30 5 2 5 6
M  V30 6 1 6 7
M  V30 7 2 7 8
M  V30 8 1 8 9
M  V30 9 1 9 10
M  V30 10 2 10 11
M  V30 11 1 11 12
M  V30 12 2 12 13
M  V30 13 1 13 14
M  V30 14 2 14 15
M  V30 15 1 15 16
M  V30 16 2 16 17
M  V30 17 1 17 18
M  V30 18 1 18 19
M  V30 19 1 19 20
M  V30 20 1 20 21
M  V30 21 1 21 22
M  V30 22 1 22 23
M  V30 23 1 22 24
M  V30 24 2 18 25
M  V30 25 1 13 26
M  V30 26 2 26 27
M  V30 27 1 6 28
M  V30 28 2 28 29
M  V30 29 1 29 3
M  V30 30 1 27 7
M  V30 31 1 27 10
M  V30 32 1 25 14
M  V30 33 1 1 30
M  V30 34 1 1 31
M  V30 35 1 1 32
M  V30 36 1 4 33
M  V30 37 1 5 34
M  V30 38 1 8 35
M  V30 39 1 9 36
M  V30 40 1 11 37
M  V30 41 1 12 38
M  V30 42 1 15 39
M  V30 43 1 17 40
M  V30 44 1 19 41
M  V30 45 1 20 42
M  V30 46 1 20 43
M  V30 47 1 21 44
M  V30 48 1 21 45
M  V30 49 1 23 46
M  V30 50 1 23 47
M  V30 51 1 23 48
M  V30 52 1 24 49
M  V30 53 1 24 50
M  V30 54 1 24 51
M  V30 55 1 26 52
M  V30 56 1 28 53
M  V30 57 1 29 54
M  V30 END BOND
M  V30 END CTAB
M  END
>  <Dataset>  (219) 
ChEMBL_Kinases

>  <Ligand_Instance>  (219) 
nan

>  <PDB_ID>  (219) 
nan

>  <Standardized_SMILES>  (219) 
COc1ccc(-c2c[nH]c3ccc(-c4cncc(NCCN(C)C)n4)cc23)cc1

>  <Name>  (219) 
nan

>  <Pocket>  (219) 
nan

>  <ATP_Site>  (219) 
nan

>  <Peripheral>  (219) 
nan

>  <Num_H_Atoms_ProtBoundConf>  (219) 
nan

>  <Num_Resolved_Atoms>  (219) 
nan

>  <Num_Not_Resolved_Atoms>  (219) 
nan

$$$$
CHEMBL4789145
     RDKit          3D

  0  0  0  0  0  0  0  0  0  0999 V3000
M  V30 BEGIN CTAB
M  V30 COUNTS 77 82 0 0 0
M  V30 BEGIN ATOM
M  V30 1 C 5.264913 -2.660186 6.569697 0
M  V30 2 N 4.838140 -2.272848 5.231182 0
M  V30 3 C 5.949199 -2.250759 4.390380 0
M  V30 4 O 7.108265 -2.540826 4.828635 0
M  V30 5 C 5.834811 -1.890611 2.952426 0
M  V30 6 S 4.103283 -1.457966 2.294651 0
M  V30 7 C 4.777641 -1.156061 0.591723 0
M  V30 8 C 3.902954 -0.746301 -0.577005 0
M  V30 9 C 4.396961 -0.495389 -1.810629 0
M  V30 10 C 3.534553 -0.136213 -2.822664 0
M  V30 11 N 2.199167 -0.028955 -2.610263 0
M  V30 12 C 1.695409 -0.282310 -1.365335 0
M  V30 13 N 0.314904 -0.190764 -1.076024 0
M  V30 14 C -0.686447 0.645212 -0.616133 0
M  V30 15 O -0.352004 1.833369 -0.281157 0
M  V30 16 C -2.120676 0.363136 -0.446847 0
M  V30 17 N -2.613658 -0.880689 -0.836821 0
M  V30 18 C -2.714771 -1.196921 -2.205765 0
M  V30 19 C -3.739990 -0.449927 -2.984685 0
M  V30 20 N -5.090235 -0.627430 -2.518366 0
M  V30 21 C -5.899073 -0.502215 -1.371246 0
M  V30 22 C -6.493478 0.741164 -1.121510 0
M  V30 23 C -7.297899 0.831064 0.021571 0
M  V30 24 N -7.517084 -0.185699 0.859117 0
M  V30 25 C -6.953399 -1.370857 0.623891 0
M  V30 26 C -7.198070 -2.405930 1.491862 0
M  V30 27 C -6.632697 -3.649241 1.267078 0
M  V30 28 C -5.813583 -3.844851 0.154364 0
M  V30 29 C -5.612478 -2.763857 -0.672011 0
M  V30 30 C -6.152083 -1.520101 -0.484556 0
M  V30 31 C -7.922586 2.144958 0.275899 0
M  V30 32 C -6.978552 3.295468 0.064479 0
M  V30 33 C -6.190274 3.209291 -1.193874 0
M  V30 34 C -6.327454 1.932689 -1.963720 0
M  V30 35 C 2.534679 -0.645851 -0.321574 0
M  V30 36 N 5.855282 -1.368442 0.764600 0
M  V30 37 C 6.578293 -1.731023 1.795683 0
M  V30 38 O 7.840875 -2.030223 2.195953 0
M  V30 39 C 9.054395 -2.073879 1.580705 0
M  V30 40 C 9.631344 -0.833530 0.993874 0
M  V30 41 C 9.025649 -0.038093 -0.074763 0
M  V30 42 C 10.180427 -0.947284 -0.437163 0
M  V30 43 H 4.402569 -2.887525 7.212507 0
M  V30 44 H 5.925469 -3.541076 6.583046 0
M  V30 45 H 5.759867 -1.756563 6.993227 0
M  V30 46 H 3.881943 -2.039693 4.894858 0
M  V30 47 H 5.468519 -0.612142 -1.861850 0
M  V30 48 H 4.024177 0.045734 -3.776480 0
M  V30 49 H 0.084390 -1.171911 -1.326724 0
M  V30 50 H -2.287240 0.436193 0.674404 0
M  V30 51 H -2.685097 1.249404 -0.818662 0
M  V30 52 H -2.760328 -1.617369 -0.142784 0
M  V30 53 H -1.724628 -1.018146 -2.713746 0
M  V30 54 H -2.882506 -2.278422 -2.329640 0
M  V30 55 H -3.476158 0.608593 -3.184796 0
M  V30 56 H -3.728714 -0.908749 -4.014653 0
M  V30 57 H -5.878417 -0.972499 -3.148185 0
M  V30 58 H -7.821222 -2.321148 2.369357 0
M  V30 59 H -6.834222 -4.473443 1.967239 0
M  V30 60 H -5.394466 -4.832330 0.018269 0
M  V30 61 H -4.984404 -2.931339 -1.529365 0
M  V30 62 H -8.228002 2.174700 1.344413 0
M  V30 63 H -8.855860 2.268550 -0.338150 0
M  V30 64 H -7.602091 4.227196 0.148355 0
M  V30 65 H -6.265414 3.347405 0.932589 0
M  V30 66 H -6.513050 4.047799 -1.857850 0
M  V30 67 H -5.103354 3.436041 -0.997564 0
M  V30 68 H -5.434921 1.857802 -2.622639 0
M  V30 69 H -7.230094 2.002257 -2.602084 0
M  V30 70 H 2.112618 -0.842247 0.662564 0
M  V30 71 H 9.009077 -2.883261 0.781973 0
M  V30 72 H 9.816840 -2.499417 2.304666 0
M  V30 73 H 10.346865 -0.231421 1.657533 0
M  V30 74 H 8.039707 -0.298502 -0.454657 0
M  V30 75 H 9.301613 1.036945 -0.182567 0
M  V30 76 H 9.884891 -1.837355 -1.035856 0
M  V30 77 H 11.178731 -0.518172 -0.656738 0
M  V30 END ATOM
M  V30 BEGIN BOND
M  V30 1 1 1 2
M  V30 2 1 2 3
M  V30 3 2 3 4
M  V30 4 1 3 5
M  V30 5 1 5 6
M  V30 6 1 6 7
M  V30 7 1 7 8
M  V30 8 2 8 9
M  V30 9 1 9 10
M  V30 10 2 10 11
M  V30 11 1 11 12
M  V30 12 1 12 13
M  V30 13 1 13 14
M  V30 14 2 14 15
M  V30 15 1 14 16
M  V30 16 1 16 17
M  V30 17 1 17 18
M  V30 18 1 18 19
M  V30 19 1 19 20
M  V30 20 1 20 21
M  V30 21 2 21 22
M  V30 22 1 22 23
M  V30 23 2 23 24
M  V30 24 1 24 25
M  V30 25 2 25 26
M  V30 26 1 26 27
M  V30 27 2 27 28
M  V30 28 1 28 29
M  V30 29 2 29 30
M  V30 30 1 23 31
M  V30 31 1 31 32
M  V30 32 1 32 33
M  V30 33 1 33 34
M  V30 34 2 12 35
M  V30 35 2 7 36
M  V30 36 1 36 37
M  V30 37 1 37 38
M  V30 38 1 38 39
M  V30 39 1 39 40
M  V30 40 1 40 41
M  V30 41 1 41 42
M  V30 42 2 37 5
M  V30 43 1 42 40
M  V30 44 1 35 8
M  V30 45 1 30 21
M  V30 46 1 34 22
M  V30 47 1 30 25
M  V30 48 1 1 43
M  V30 49 1 1 44
M  V30 50 1 1 45
M  V30 51 1 2 46
M  V30 52 1 9 47
M  V30 53 1 10 48
M  V30 54 1 13 49
M  V30 55 1 16 50
M  V30 56 1 16 51
M  V30 57 1 17 52
M  V30 58 1 18 53
M  V30 59 1 18 54
M  V30 60 1 19 55
M  V30 61 1 19 56
M  V30 62 1 20 57
M  V30 63 1 26 58
M  V30 64 1 27 59
M  V30 65 1 28 60
M  V30 66 1 29 61
M  V30 67 1 31 62
M  V30 68 1 31 63
M  V30 69 1 32 64
M  V30 70 1 32 65
M  V30 71 1 33 66
M  V30 72 1 33 67
M  V30 73 1 34 68
M  V30 74 1 34 69
M  V30 75 1 35 70
M  V30 76 1 39 71
M  V30 77 1 39 72
M  V30 78 1 40 73
M  V30 79 1 41 74
M  V30 80 1 41 75
M  V30 81 1 42 76
M  V30 82 1 42 77
M  V30 END BOND
M  V30 END CTAB
M  END
>  <Dataset>  (220) 
ChEMBL_Kinases

>  <Ligand_Instance>  (220) 
nan

>  <PDB_ID>  (220) 
nan

>  <Standardized_SMILES>  (220) 
CNC(=O)c1sc(-c2ccnc(NC(=O)CNCCNc3c4c(nc5ccccc35)CCCC4)c2)nc1OCC1CC1

>  <Name>  (220) 
nan

>  <Pocket>  (220) 
nan

>  <ATP_Site>  (220) 
nan

>  <Peripheral>  (220) 
nan

>  <Num_H_Atoms_ProtBoundConf>  (220) 
nan

>  <Num_Resolved_Atoms>  (220) 
nan

>  <Num_Not_Resolved_Atoms>  (220) 
nan

$$$$
CHEMBL4129791
     RDKit          3D

  0  0  0  0  0  0  0  0  0  0999 V3000
M  V30 BEGIN CTAB
M  V30 COUNTS 67 71 0 0 0
M  V30 BEGIN ATOM
M  V30 1 C 1.996275 -1.194023 0.787928 0
M  V30 2 C 1.953967 0.221778 1.227676 0
M  V30 3 C 3.155456 0.853764 1.464676 0
M  V30 4 C 3.297181 2.157823 1.877807 0
M  V30 5 C 2.127035 2.865506 2.061103 0
M  V30 6 C 2.267179 4.257195 2.495726 0
M  V30 7 N 2.377238 5.225093 1.431296 0
M  V30 8 C 1.252044 5.321570 0.564526 0
M  V30 9 C 1.292252 4.468878 -0.660447 0
M  V30 10 O 2.418674 3.698364 -0.796551 0
M  V30 11 C 3.604827 4.338032 -0.526791 0
M  V30 12 C 3.639435 5.135575 0.732350 0
M  V30 13 C 0.912626 2.218988 1.818948 0
M  V30 14 C 0.789890 0.915299 1.406717 0
M  V30 15 C -0.539827 0.386650 1.185210 0
M  V30 16 C -0.997374 -0.805787 0.696809 0
M  V30 17 C -2.374118 -0.829391 0.675393 0
M  V30 18 C -3.385585 -1.707331 0.313318 0
M  V30 19 C -2.991251 -3.009044 -0.205559 0
M  V30 20 C -3.541033 -3.565600 -1.343485 0
M  V30 21 C -3.185988 -4.782250 -1.850447 0
M  V30 22 C -2.231592 -5.489067 -1.193599 0
M  V30 23 C -1.840817 -6.783602 -1.723980 0
M  V30 24 N -2.419955 -7.367862 -2.874619 0
M  V30 25 O -1.034513 -7.707455 -1.466578 0
M  V30 26 C -1.574128 -5.073563 -0.028289 0
M  V30 27 C -0.546075 -5.807556 0.714854 0
M  V30 28 C 0.857835 -5.603886 0.229577 0
M  V30 29 C -0.555649 -5.452285 2.189090 0
M  V30 30 C -2.041128 -3.814736 0.370123 0
M  V30 31 C -4.687216 -1.292354 0.469818 0
M  V30 32 C -5.100670 -0.070437 0.958836 0
M  V30 33 N -4.044413 0.685643 1.272036 0
M  V30 34 C -2.772735 0.388656 1.163587 0
M  V30 35 N -1.655877 1.070821 1.450632 0
M  V30 36 H 1.713719 -1.323957 -0.259825 0
M  V30 37 H 3.080907 -1.543132 0.892645 0
M  V30 38 H 1.461839 -1.895066 1.427570 0
M  V30 39 H 4.095897 0.298560 1.319908 0
M  V30 40 H 4.297185 2.549813 2.035534 0
M  V30 41 H 3.130238 4.384326 3.163794 0
M  V30 42 H 1.372031 4.528710 3.129375 0
M  V30 43 H 0.331083 5.190513 1.160791 0
M  V30 44 H 1.194383 6.390935 0.194587 0
M  V30 45 H 1.090039 5.037967 -1.614501 0
M  V30 46 H 0.410566 3.767202 -0.589351 0
M  V30 47 H 4.385285 3.528525 -0.449992 0
M  V30 48 H 3.904526 4.915632 -1.429572 0
M  V30 49 H 3.898458 6.190402 0.419373 0
M  V30 50 H 4.430618 4.857543 1.446876 0
M  V30 51 H 0.082502 2.915168 2.013768 0
M  V30 52 H -0.453536 -1.625264 0.350257 0
M  V30 53 H -4.317030 -3.014102 -1.898629 0
M  V30 54 H -3.651252 -5.176829 -2.746132 0
M  V30 55 H -3.409229 -7.607270 -2.572424 0
M  V30 56 H -2.068160 -7.566313 -3.827325 0
M  V30 57 H -0.819922 -6.891547 0.679125 0
M  V30 58 H 1.579854 -5.399229 1.065691 0
M  V30 59 H 1.001946 -4.827278 -0.519859 0
M  V30 60 H 1.236382 -6.569415 -0.207007 0
M  V30 61 H 0.083074 -4.557937 2.376975 0
M  V30 62 H -0.108079 -6.316855 2.729710 0
M  V30 63 H -1.545588 -5.272678 2.605215 0
M  V30 64 H -1.564173 -3.456338 1.282070 0
M  V30 65 H -5.392198 -2.074824 0.146532 0
M  V30 66 H -6.139395 0.170440 1.051277 0
M  V30 67 H -1.723178 2.038676 1.840629 0
M  V30 END ATOM
M  V30 BEGIN BOND
M  V30 1 1 1 2
M  V30 2 2 2 3
M  V30 3 1 3 4
M  V30 4 2 4 5
M  V30 5 1 5 6
M  V30 6 1 6 7
M  V30 7 1 7 8
M  V30 8 1 8 9
M  V30 9 1 9 10
M  V30 10 1 10 11
M  V30 11 1 11 12
M  V30 12 1 5 13
M  V30 13 2 13 14
M  V30 14 1 14 15
M  V30 15 2 15 16
M  V30 16 1 16 17
M  V30 17 2 17 18
M  V30 18 1 18 19
M  V30 19 2 19 20
M  V30 20 1 20 21
M  V30 21 2 21 22
M  V30 22 1 22 23
M  V30 23 1 23 24
M  V30 24 2 23 25
M  V30 25 1 22 26
M  V30 26 1 26 27
M  V30 27 1 27 28
M  V30 28 1 27 29
M  V30 29 2 26 30
M  V30 30 1 18 31
M  V30 31 2 31 32
M  V30 32 1 32 33
M  V30 33 2 33 34
M  V30 34 1 34 35
M  V30 35 1 14 2
M  V30 36 1 35 15
M  V30 37 1 12 7
M  V30 38 1 34 17
M  V30 39 1 30 19
M  V30 40 1 1 36
M  V30 41 1 1 37
M  V30 42 1 1 38
M  V30 43 1 3 39
M  V30 44 1 4 40
M  V30 45 1 6 41
M  V30 46 1 6 42
M  V30 47 1 8 43
M  V30 48 1 8 44
M  V30 49 1 9 45
M  V30 50 1 9 46
M  V30 51 1 11 47
M  V30 52 1 11 48
M  V30 53 1 12 49
M  V30 54 1 12 50
M  V30 55 1 13 51
M  V30 56 1 16 52
M  V30 57 1 20 53
M  V30 58 1 21 54
M  V30 59 1 24 55
M  V30 60 1 24 56
M  V30 61 1 27 57
M  V30 62 1 28 58
M  V30 63 1 28 59
M  V30 64 1 28 60
M  V30 65 1 29 61
M  V30 66 1 29 62
M  V30 67 1 29 63
M  V30 68 1 30 64
M  V30 69 1 31 65
M  V30 70 1 32 66
M  V30 71 1 35 67
M  V30 END BOND
M  V30 END CTAB
M  END
>  <Dataset>  (221) 
ChEMBL_Kinases

>  <Ligand_Instance>  (221) 
nan

>  <PDB_ID>  (221) 
nan

>  <Standardized_SMILES>  (221) 
Cc1ccc(CN2CCOCC2)cc1-c1cc2c(-c3ccc(C(N)=O)c(C(C)C)c3)ccnc2[nH]1

>  <Name>  (221) 
nan

>  <Pocket>  (221) 
nan

>  <ATP_Site>  (221) 
nan

>  <Peripheral>  (221) 
nan

>  <Num_H_Atoms_ProtBoundConf>  (221) 
nan

>  <Num_Resolved_Atoms>  (221) 
nan

>  <Num_Not_Resolved_Atoms>  (221) 
nan

$$$$
CHEMBL4791586
     RDKit          3D

  0  0  0  0  0  0  0  0  0  0999 V3000
M  V30 BEGIN CTAB
M  V30 COUNTS 47 51 0 0 0
M  V30 BEGIN ATOM
M  V30 1 O 2.153059 -2.251773 0.559647 0
M  V30 2 C 1.747999 -1.942796 -0.613478 0
M  V30 3 N 1.678857 -3.067577 -1.507697 0
M  V30 4 C 1.887210 -2.670212 -2.885631 0
M  V30 5 C 1.971999 -1.164664 -2.788685 0
M  V30 6 C 1.297010 -0.810338 -1.455032 0
M  V30 7 C 1.958747 0.437138 -0.983137 0
M  V30 8 C 1.257325 1.155596 0.132183 0
M  V30 9 N -0.207277 0.996211 0.031751 0
M  V30 10 C -0.972026 1.869203 0.846788 0
M  V30 11 C -1.266336 3.039290 0.176896 0
M  V30 12 Cl -0.779781 3.429336 -1.457917 0
M  V30 13 C -2.006177 4.016700 0.809930 0
M  V30 14 N -2.420253 3.797337 2.068400 0
M  V30 15 C -2.100479 2.640005 2.661717 0
M  V30 16 C -1.371797 1.597088 2.132844 0
M  V30 17 C -1.037992 0.400608 2.735790 0
M  V30 18 C -0.428069 -0.756188 2.619830 0
M  V30 19 C -0.373966 -1.699766 3.602856 0
M  V30 20 C 0.239268 -2.944969 3.583333 0
M  V30 21 C 0.178552 -3.744736 4.675551 0
M  V30 22 C -0.443071 -3.457918 5.847473 0
M  V30 23 C -1.071271 -2.236628 5.931613 0
M  V30 24 C -1.004588 -1.421496 4.806752 0
M  V30 25 S -1.681146 0.225238 4.505929 0
M  V30 26 C -0.991960 0.075028 -0.807233 0
M  V30 27 C -0.157393 -0.741028 -1.709244 0
M  V30 28 H 1.512973 -4.108187 -1.396427 0
M  V30 29 H 1.075182 -3.023324 -3.543048 0
M  V30 30 H 2.834637 -3.110973 -3.254532 0
M  V30 31 H 3.032875 -0.854446 -2.798140 0
M  V30 32 H 1.483271 -0.655841 -3.622877 0
M  V30 33 H 2.974187 0.184667 -0.614235 0
M  V30 34 H 2.132284 1.139793 -1.829822 0
M  V30 35 H 1.438501 2.242929 0.006935 0
M  V30 36 H 1.621936 0.879003 1.130552 0
M  V30 37 H -2.271322 4.947231 0.352237 0
M  V30 38 H -2.485246 2.556429 3.689211 0
M  V30 39 H 0.032831 -0.888774 1.655404 0
M  V30 40 H 0.787142 -3.330864 2.707665 0
M  V30 41 H 0.673166 -4.729342 4.636505 0
M  V30 42 H -0.514104 -4.062887 6.734646 0
M  V30 43 H -1.624904 -1.805160 6.767452 0
M  V30 44 H -1.781181 0.637141 -1.360213 0
M  V30 45 H -1.556076 -0.576627 -0.110191 0
M  V30 46 H -0.528616 -1.802031 -1.790800 0
M  V30 47 H -0.303893 -0.351698 -2.759955 0
M  V30 END ATOM
M  V30 BEGIN BOND
M  V30 1 2 1 2
M  V30 2 1 2 3
M  V30 3 1 3 4
M  V30 4 1 4 5
M  V30 5 1 5 6
M  V30 6 1 6 7
M  V30 7 1 7 8
M  V30 8 1 8 9
M  V30 9 1 9 10
M  V30 10 2 10 11
M  V30 11 1 11 12
M  V30 12 1 11 13
M  V30 13 2 13 14
M  V30 14 1 14 15
M  V30 15 2 15 16
M  V30 16 1 16 17
M  V30 17 2 17 18
M  V30 18 1 18 19
M  V30 19 2 19 20
M  V30 20 1 20 21
M  V30 21 2 21 22
M  V30 22 1 22 23
M  V30 23 2 23 24
M  V30 24 1 24 25
M  V30 25 1 9 26
M  V30 26 1 26 27
M  V30 27 1 6 2
M  V30 28 1 16 10
M  V30 29 1 25 17
M  V30 30 1 27 6
M  V30 31 1 24 19
M  V30 32 1 3 28
M  V30 33 1 4 29
M  V30 34 1 4 30
M  V30 35 1 5 31
M  V30 36 1 5 32
M  V30 37 1 7 33
M  V30 38 1 7 34
M  V30 39 1 8 35
M  V30 40 1 8 36
M  V30 41 1 13 37
M  V30 42 1 15 38
M  V30 43 1 18 39
M  V30 44 1 20 40
M  V30 45 1 21 41
M  V30 46 1 22 42
M  V30 47 1 23 43
M  V30 48 1 26 44
M  V30 49 1 26 45
M  V30 50 1 27 46
M  V30 51 1 27 47
M  V30 END BOND
M  V30 END CTAB
M  END
>  <Dataset>  (222) 
ChEMBL_Kinases

>  <Ligand_Instance>  (222) 
nan

>  <PDB_ID>  (222) 
nan

>  <Standardized_SMILES>  (222) 
O=C1NCCC12CCN(c1c(Cl)cncc1-c1cc3ccccc3s1)CC2

>  <Name>  (222) 
nan

>  <Pocket>  (222) 
nan

>  <ATP_Site>  (222) 
nan

>  <Peripheral>  (222) 
nan

>  <Num_H_Atoms_ProtBoundConf>  (222) 
nan

>  <Num_Resolved_Atoms>  (222) 
nan

>  <Num_Not_Resolved_Atoms>  (222) 
nan

$$$$
CHEMBL4128939
     RDKit          3D

  0  0  0  0  0  0  0  0  0  0999 V3000
M  V30 BEGIN CTAB
M  V30 COUNTS 58 62 0 0 0
M  V30 BEGIN ATOM
M  V30 1 C 2.960633 -0.417610 1.547935 0
M  V30 2 C 2.213375 -0.161096 0.314752 0
M  V30 3 C 2.799404 0.752531 -0.536084 0
M  V30 4 C 4.093347 1.411892 -0.235524 0
M  V30 5 N 4.013433 2.463601 0.737910 0
M  V30 6 C 5.358839 2.999716 0.917266 0
M  V30 7 C 5.577181 4.095954 -0.072618 0
M  V30 8 O 4.811579 5.189983 0.279670 0
M  V30 9 C 3.545986 4.869207 0.734927 0
M  V30 10 C 3.114195 3.492874 0.267551 0
M  V30 11 C 2.172498 1.079343 -1.716255 0
M  V30 12 C 0.975713 0.477081 -2.003542 0
M  V30 13 C 0.443080 -0.422795 -1.119493 0
M  V30 14 C 1.025314 -0.790980 0.079104 0
M  V30 15 C 0.384830 -1.777207 0.919624 0
M  V30 16 C -0.901446 -2.239061 0.621926 0
M  V30 17 C -1.330084 -3.145174 1.548226 0
M  V30 18 C -2.478083 -3.885381 1.734002 0
M  V30 19 C -3.571348 -3.791883 0.798963 0
M  V30 20 C -3.518554 -3.848620 -0.581406 0
M  V30 21 C -4.699793 -3.731185 -1.319330 0
M  V30 22 C -5.933792 -3.559351 -0.738178 0
M  V30 23 C -7.088844 -3.450714 -1.609431 0
M  V30 24 N -8.386361 -3.270233 -1.034120 0
M  V30 25 O -6.881321 -3.523149 -2.861245 0
M  V30 26 C -6.019573 -3.499222 0.630393 0
M  V30 27 C -4.827291 -3.618542 1.353583 0
M  V30 28 C -2.635513 -4.754619 2.811088 0
M  V30 29 C -1.561344 -4.823096 3.678874 0
M  V30 30 N -0.437138 -4.097722 3.495673 0
M  V30 31 C -0.298602 -3.262078 2.451359 0
M  V30 32 N 0.658345 -2.439030 2.018506 0
M  V30 33 H 2.258375 -0.252807 2.387784 0
M  V30 34 H 3.762083 0.346500 1.731625 0
M  V30 35 H 3.372599 -1.429098 1.612117 0
M  V30 36 H 4.519049 1.823535 -1.197980 0
M  V30 37 H 4.862278 0.635788 0.052774 0
M  V30 38 H 5.543706 3.305200 1.964290 0
M  V30 39 H 6.109563 2.193832 0.716362 0
M  V30 40 H 6.639987 4.411451 -0.028538 0
M  V30 41 H 5.321237 3.699675 -1.077491 0
M  V30 42 H 2.832320 5.594637 0.295584 0
M  V30 43 H 3.458736 4.979637 1.847233 0
M  V30 44 H 3.082572 3.533286 -0.838951 0
M  V30 45 H 2.070427 3.365315 0.619230 0
M  V30 46 H 2.602227 1.785076 -2.399356 0
M  V30 47 H 0.504324 0.744830 -2.926721 0
M  V30 48 H -0.516099 -0.830298 -1.471689 0
M  V30 49 H -1.562525 -1.981265 -0.200370 0
M  V30 50 H -2.547278 -3.986825 -1.004767 0
M  V30 51 H -4.518680 -3.792335 -2.403645 0
M  V30 52 H -9.181674 -3.948076 -0.887778 0
M  V30 53 H -8.857715 -2.426973 -0.621348 0
M  V30 54 H -6.966788 -3.366097 1.114693 0
M  V30 55 H -4.980791 -3.559864 2.443692 0
M  V30 56 H -3.531504 -5.339390 2.966584 0
M  V30 57 H -1.640493 -5.490351 4.535457 0
M  V30 58 H 1.530009 -2.376665 2.544369 0
M  V30 END ATOM
M  V30 BEGIN BOND
M  V30 1 1 1 2
M  V30 2 2 2 3
M  V30 3 1 3 4
M  V30 4 1 4 5
M  V30 5 1 5 6
M  V30 6 1 6 7
M  V30 7 1 7 8
M  V30 8 1 8 9
M  V30 9 1 9 10
M  V30 10 1 3 11
M  V30 11 2 11 12
M  V30 12 1 12 13
M  V30 13 2 13 14
M  V30 14 1 14 15
M  V30 15 2 15 16
M  V30 16 1 16 17
M  V30 17 2 17 18
M  V30 18 1 18 19
M  V30 19 2 19 20
M  V30 20 1 20 21
M  V30 21 2 21 22
M  V30 22 1 22 23
M  V30 23 1 23 24
M  V30 24 2 23 25
M  V30 25 1 22 26
M  V30 26 2 26 27
M  V30 27 1 18 28
M  V30 28 2 28 29
M  V30 29 1 29 30
M  V30 30 2 30 31
M  V30 31 1 31 32
M  V30 32 1 14 2
M  V30 33 1 32 15
M  V30 34 1 10 5
M  V30 35 1 31 17
M  V30 36 1 27 19
M  V30 37 1 1 33
M  V30 38 1 1 34
M  V30 39 1 1 35
M  V30 40 1 4 36
M  V30 41 1 4 37
M  V30 42 1 6 38
M  V30 43 1 6 39
M  V30 44 1 7 40
M  V30 45 1 7 41
M  V30 46 1 9 42
M  V30 47 1 9 43
M  V30 48 1 10 44
M  V30 49 1 10 45
M  V30 50 1 11 46
M  V30 51 1 12 47
M  V30 52 1 13 48
M  V30 53 1 16 49
M  V30 54 1 20 50
M  V30 55 1 21 51
M  V30 56 1 24 52
M  V30 57 1 24 53
M  V30 58 1 26 54
M  V30 59 1 27 55
M  V30 60 1 28 56
M  V30 61 1 29 57
M  V30 62 1 32 58
M  V30 END BOND
M  V30 END CTAB
M  END
>  <Dataset>  (223) 
ChEMBL_Kinases

>  <Ligand_Instance>  (223) 
nan

>  <PDB_ID>  (223) 
nan

>  <Standardized_SMILES>  (223) 
Cc1c(CN2CCOCC2)cccc1-c1cc2c(-c3ccc(C(N)=O)cc3)ccnc2[nH]1

>  <Name>  (223) 
nan

>  <Pocket>  (223) 
nan

>  <ATP_Site>  (223) 
nan

>  <Peripheral>  (223) 
nan

>  <Num_H_Atoms_ProtBoundConf>  (223) 
nan

>  <Num_Resolved_Atoms>  (223) 
nan

>  <Num_Not_Resolved_Atoms>  (223) 
nan

$$$$
CHEMBL4789272
     RDKit          3D

  0  0  0  0  0  0  0  0  0  0999 V3000
M  V30 BEGIN CTAB
M  V30 COUNTS 54 59 0 0 0
M  V30 BEGIN ATOM
M  V30 1 C 0.845451 -7.330944 0.512433 0
M  V30 2 C 2.095684 -6.756192 0.352242 0
M  V30 3 C 2.252035 -5.382893 0.337822 0
M  V30 4 N 3.254987 -4.504794 0.210923 0
M  V30 5 C 2.841081 -3.215603 0.270251 0
M  V30 6 C 3.802632 -2.145677 0.149268 0
M  V30 7 N 5.125407 -2.299128 -0.023881 0
M  V30 8 N 5.749959 -1.138348 -0.100560 0
M  V30 9 C 4.875319 -0.124071 0.017689 0
M  V30 10 N 4.964458 1.218533 0.011629 0
M  V30 11 C 3.866892 2.015113 0.158227 0
M  V30 12 C 2.622665 1.408109 0.318079 0
M  V30 13 C 1.412367 2.204536 0.480014 0
M  V30 14 C 1.412477 3.436475 1.106624 0
M  V30 15 N 0.258832 4.111961 1.219209 0
M  V30 16 C -0.926032 3.675940 0.760129 0
M  V30 17 C -1.016232 2.448738 0.118082 0
M  V30 18 C -2.199319 1.772007 -0.453957 0
M  V30 19 N -2.877029 0.876596 0.412089 0
M  V30 20 C -3.432735 1.385111 1.602959 0
M  V30 21 C -4.940627 1.291077 1.712129 0
M  V30 22 C -5.334155 -0.140453 1.474971 0
M  V30 23 C -4.926708 -0.464572 0.050807 0
M  V30 24 C -3.442416 -0.288922 -0.157205 0
M  V30 25 C 0.196478 1.756244 0.008625 0
M  V30 26 C 2.565014 0.031010 0.319876 0
M  V30 27 C 3.665156 -0.781599 0.172838 0
M  V30 28 C 1.502937 -3.337167 0.443943 0
M  V30 29 C 1.089918 -4.651116 0.492213 0
M  V30 30 C -0.155417 -5.233117 0.651837 0
M  V30 31 N -0.272009 -6.591108 0.661105 0
M  V30 32 H 0.716821 -8.405540 0.524474 0
M  V30 33 H 2.987502 -7.352051 0.233648 0
M  V30 34 H 4.205935 -4.916500 0.085171 0
M  V30 35 H 6.781206 -1.058800 -0.234893 0
M  V30 36 H 3.939645 3.087573 0.153364 0
M  V30 37 H 2.346616 3.848698 1.503377 0
M  V30 38 H -1.865785 4.201856 0.834074 0
M  V30 39 H -2.917447 2.574428 -0.756379 0
M  V30 40 H -1.862805 1.287273 -1.404194 0
M  V30 41 H -3.038670 0.799377 2.475261 0
M  V30 42 H -3.175571 2.442442 1.731763 0
M  V30 43 H -5.186167 1.543782 2.765306 0
M  V30 44 H -5.480442 1.944814 1.023153 0
M  V30 45 H -6.420683 -0.310562 1.524403 0
M  V30 46 H -4.757430 -0.775174 2.158658 0
M  V30 47 H -5.527328 0.134415 -0.674561 0
M  V30 48 H -5.159425 -1.537080 -0.114826 0
M  V30 49 H -2.935999 -1.201651 0.264918 0
M  V30 50 H -3.271582 -0.339191 -1.238644 0
M  V30 51 H 0.225368 0.780816 -0.482113 0
M  V30 52 H 1.608518 -0.396345 0.443201 0
M  V30 53 H 0.828228 -2.527993 0.535165 0
M  V30 54 H -1.026620 -4.593786 0.767963 0
M  V30 END ATOM
M  V30 BEGIN BOND
M  V30 1 2 1 2
M  V30 2 1 2 3
M  V30 3 1 3 4
M  V30 4 1 4 5
M  V30 5 1 5 6
M  V30 6 2 6 7
M  V30 7 1 7 8
M  V30 8 1 8 9
M  V30 9 2 9 10
M  V30 10 1 10 11
M  V30 11 2 11 12
M  V30 12 1 12 13
M  V30 13 2 13 14
M  V30 14 1 14 15
M  V30 15 2 15 16
M  V30 16 1 16 17
M  V30 17 1 17 18
M  V30 18 1 18 19
M  V30 19 1 19 20
M  V30 20 1 20 21
M  V30 21 1 21 22
M  V30 22 1 22 23
M  V30 23 1 23 24
M  V30 24 2 17 25
M  V30 25 1 12 26
M  V30 26 2 26 27
M  V30 27 2 5 28
M  V30 28 1 28 29
M  V30 29 1 29 30
M  V30 30 2 30 31
M  V30 31 1 31 1
M  V30 32 2 29 3
M  V30 33 1 27 6
M  V30 34 1 27 9
M  V30 35 1 25 13
M  V30 36 1 24 19
M  V30 37 1 1 32
M  V30 38 1 2 33
M  V30 39 1 4 34
M  V30 40 1 8 35
M  V30 41 1 11 36
M  V30 42 1 14 37
M  V30 43 1 16 38
M  V30 44 1 18 39
M  V30 45 1 18 40
M  V30 46 1 20 41
M  V30 47 1 20 42
M  V30 48 1 21 43
M  V30 49 1 21 44
M  V30 50 1 22 45
M  V30 51 1 22 46
M  V30 52 1 23 47
M  V30 53 1 23 48
M  V30 54 1 24 49
M  V30 55 1 24 50
M  V30 56 1 25 51
M  V30 57 1 26 52
M  V30 58 1 28 53
M  V30 59 1 30 54
M  V30 END BOND
M  V30 END CTAB
M  END
>  <Dataset>  (224) 
ChEMBL_Kinases

>  <Ligand_Instance>  (224) 
nan

>  <PDB_ID>  (224) 
nan

>  <Standardized_SMILES>  (224) 
c1cc2[nH]c(-c3n[nH]c4ncc(-c5cncc(CN6CCCCC6)c5)cc34)cc2cn1

>  <Name>  (224) 
nan

>  <Pocket>  (224) 
nan

>  <ATP_Site>  (224) 
nan

>  <Peripheral>  (224) 
nan

>  <Num_H_Atoms_ProtBoundConf>  (224) 
nan

>  <Num_Resolved_Atoms>  (224) 
nan

>  <Num_Not_Resolved_Atoms>  (224) 
nan

$$$$
CHEMBL3354514
     RDKit          3D

  0  0  0  0  0  0  0  0  0  0999 V3000
M  V30 BEGIN CTAB
M  V30 COUNTS 48 51 0 0 0
M  V30 BEGIN ATOM
M  V30 1 O -0.118911 -1.483033 -1.081983 0
M  V30 2 C 0.252264 -2.109887 -0.056611 0
M  V30 3 N 1.669357 -2.129843 0.035591 0
M  V30 4 C 2.343167 -1.446585 -1.036823 0
M  V30 5 C 2.598870 -2.333705 -2.090885 0
M  V30 6 N 3.223288 -1.902110 -3.198047 0
M  V30 7 C 3.594516 -0.612426 -3.273001 0
M  V30 8 C 3.360571 0.286703 -2.259285 0
M  V30 9 C 2.722480 -0.118829 -1.107798 0
M  V30 10 O 2.345202 0.507363 0.061965 0
M  V30 11 C 2.582182 1.865101 0.315628 0
M  V30 12 C 3.380778 2.082856 1.584014 0
M  V30 13 C 2.983822 3.321217 2.339232 0
M  V30 14 C 1.540124 3.278455 2.789982 0
M  V30 15 C 0.739586 2.387766 1.831004 0
M  V30 16 C 1.296580 2.653662 0.468101 0
M  V30 17 C -0.583055 -2.771274 0.973123 0
M  V30 18 C -0.080679 -3.428556 2.053501 0
M  V30 19 S -1.710316 -3.973828 2.860891 0
M  V30 20 C -2.685842 -3.207392 1.584138 0
M  V30 21 C -4.192509 -3.222671 1.542870 0
M  V30 22 C -4.841422 -2.593378 0.502335 0
M  V30 23 F -4.100604 -1.967875 -0.470735 0
M  V30 24 C -6.223883 -2.610433 0.468989 0
M  V30 25 C -6.919739 -3.254840 1.474694 0
M  V30 26 C -6.232540 -3.874671 2.501674 0
M  V30 27 C -4.851910 -3.881505 2.573365 0
M  V30 28 F -4.217662 -4.499320 3.594932 0
M  V30 29 N -1.896513 -2.704618 0.808712 0
M  V30 30 H 2.151620 -2.620963 0.847393 0
M  V30 31 H 2.340222 -3.382177 -2.123249 0
M  V30 32 H 4.101013 -0.192507 -4.131674 0
M  V30 33 H 3.615779 1.335093 -2.219657 0
M  V30 34 H 3.100178 2.316099 -0.551827 0
M  V30 35 H 4.446330 2.203259 1.298225 0
M  V30 36 H 3.330998 1.217031 2.264234 0
M  V30 37 H 3.256073 4.258543 1.812514 0
M  V30 38 H 3.589678 3.319721 3.268916 0
M  V30 39 H 1.170313 4.322439 2.702881 0
M  V30 40 H 1.421613 2.970671 3.839478 0
M  V30 41 H 0.947829 1.329439 2.162610 0
M  V30 42 H -0.338141 2.548746 1.935563 0
M  V30 43 H 0.576851 2.458160 -0.350777 0
M  V30 44 H 1.565922 3.723203 0.399234 0
M  V30 45 H 0.994050 -3.529906 2.263354 0
M  V30 46 H -6.649291 -2.093406 -0.381342 0
M  V30 47 H -7.994112 -3.242393 1.407408 0
M  V30 48 H -6.860101 -4.364606 3.261868 0
M  V30 END ATOM
M  V30 BEGIN BOND
M  V30 1 2 1 2
M  V30 2 1 2 3
M  V30 3 1 3 4
M  V30 4 2 4 5
M  V30 5 1 5 6
M  V30 6 2 6 7
M  V30 7 1 7 8
M  V30 8 2 8 9
M  V30 9 1 9 10
M  V30 10 1 10 11
M  V30 11 1 11 12
M  V30 12 1 12 13
M  V30 13 1 13 14
M  V30 14 1 14 15
M  V30 15 1 15 16
M  V30 16 1 2 17
M  V30 17 2 17 18
M  V30 18 1 18 19
M  V30 19 1 19 20
M  V30 20 1 20 21
M  V30 21 2 21 22
M  V30 22 1 22 23
M  V30 23 1 22 24
M  V30 24 2 24 25
M  V30 25 1 25 26
M  V30 26 2 26 27
M  V30 27 1 27 28
M  V30 28 2 20 29
M  V30 29 1 9 4
M  V30 30 1 16 11
M  V30 31 1 29 17
M  V30 32 1 27 21
M  V30 33 1 3 30
M  V30 34 1 5 31
M  V30 35 1 7 32
M  V30 36 1 8 33
M  V30 37 1 11 34
M  V30 38 1 12 35
M  V30 39 1 12 36
M  V30 40 1 13 37
M  V30 41 1 13 38
M  V30 42 1 14 39
M  V30 43 1 14 40
M  V30 44 1 15 41
M  V30 45 1 15 42
M  V30 46 1 16 43
M  V30 47 1 16 44
M  V30 48 1 18 45
M  V30 49 1 24 46
M  V30 50 1 25 47
M  V30 51 1 26 48
M  V30 END BOND
M  V30 END CTAB
M  END
>  <Dataset>  (225) 
ChEMBL_Kinases

>  <Ligand_Instance>  (225) 
nan

>  <PDB_ID>  (225) 
nan

>  <Standardized_SMILES>  (225) 
O=C(Nc1cnccc1OC1CCCCC1)c1csc(-c2c(F)cccc2F)n1

>  <Name>  (225) 
nan

>  <Pocket>  (225) 
nan

>  <ATP_Site>  (225) 
nan

>  <Peripheral>  (225) 
nan

>  <Num_H_Atoms_ProtBoundConf>  (225) 
nan

>  <Num_Resolved_Atoms>  (225) 
nan

>  <Num_Not_Resolved_Atoms>  (225) 
nan

$$$$
CHEMBL4789284
     RDKit          3D

  0  0  0  0  0  0  0  0  0  0999 V3000
M  V30 BEGIN CTAB
M  V30 COUNTS 62 67 0 0 0
M  V30 BEGIN ATOM
M  V30 1 C 4.833054 1.057616 6.620260 0
M  V30 2 C 5.472883 0.640656 5.308670 0
M  V30 3 C 6.830144 1.257330 5.177430 0
M  V30 4 C 5.652870 -0.874402 5.421417 0
M  V30 5 C 4.592059 0.867522 4.135755 0
M  V30 6 O 4.205138 -0.070995 3.358901 0
M  V30 7 N 4.075504 2.128813 3.732227 0
M  V30 8 C 3.265243 1.928661 2.549899 0
M  V30 9 C 3.952886 2.030247 1.349011 0
M  V30 10 N 3.211029 1.845115 0.220245 0
M  V30 11 C 1.890738 1.580169 0.281253 0
M  V30 12 C 1.189696 1.475419 1.466198 0
M  V30 13 C -0.247654 1.185326 1.493250 0
M  V30 14 C -1.040664 1.696940 2.524081 0
M  V30 15 C -2.386913 1.398684 2.509448 0
M  V30 16 C -2.921753 0.623328 1.510045 0
M  V30 17 N -4.159257 0.177863 1.237437 0
M  V30 18 N -4.161899 -0.547903 0.140552 0
M  V30 19 C -2.926968 -0.643509 -0.404327 0
M  V30 20 C -2.568347 -1.362864 -1.608224 0
M  V30 21 N -3.504230 -2.028405 -2.313084 0
M  V30 22 C -3.005122 -2.633845 -3.391050 0
M  V30 23 C -3.546203 -3.411869 -4.393948 0
M  V30 24 C -4.967056 -3.707359 -4.382408 0
M  V30 25 C -6.037665 -2.866856 -4.153055 0
M  V30 26 C -7.323140 -3.360341 -4.189985 0
M  V30 27 C -7.566195 -4.708759 -4.457815 0
M  V30 28 F -8.838859 -5.157671 -4.486224 0
M  V30 29 C -6.507927 -5.556749 -4.688081 0
M  V30 30 C -5.214610 -5.054611 -4.649760 0
M  V30 31 C -2.686820 -3.868801 -5.363516 0
M  V30 32 N -1.380315 -3.583991 -5.354724 0
M  V30 33 C -0.812551 -2.822337 -4.385256 0
M  V30 34 C -1.657776 -2.353766 -3.402634 0
M  V30 35 N -1.468976 -1.595539 -2.315885 0
M  V30 36 C -2.177816 0.100103 0.477467 0
M  V30 37 C -0.838367 0.413600 0.517446 0
M  V30 38 C 1.913072 1.657601 2.620390 0
M  V30 39 H 4.254771 0.219810 7.068357 0
M  V30 40 H 4.085801 1.844696 6.371590 0
M  V30 41 H 5.592398 1.430075 7.337203 0
M  V30 42 H 7.482759 0.724821 5.928772 0
M  V30 43 H 6.757713 2.332342 5.412665 0
M  V30 44 H 7.264286 1.064044 4.188425 0
M  V30 45 H 6.398683 -1.245630 4.692481 0
M  V30 46 H 5.893695 -1.195791 6.441210 0
M  V30 47 H 4.673932 -1.348828 5.151741 0
M  V30 48 H 4.345002 2.970473 4.320911 0
M  V30 49 H 4.994164 2.237246 1.233557 0
M  V30 50 H 1.323326 1.437163 -0.632070 0
M  V30 51 H -0.631078 2.306977 3.313904 0
M  V30 52 H -3.066342 1.765780 3.285043 0
M  V30 53 H -5.039429 0.344140 1.774260 0
M  V30 54 H -5.740063 -1.852516 -3.957391 0
M  V30 55 H -8.125652 -2.654372 -4.002295 0
M  V30 56 H -6.743468 -6.596402 -4.892083 0
M  V30 57 H -4.471952 -5.820564 -4.846818 0
M  V30 58 H -3.136186 -4.483046 -6.147795 0
M  V30 59 H 0.234532 -2.565106 -4.334406 0
M  V30 60 H -0.537690 -1.233556 -2.068721 0
M  V30 61 H -0.174205 0.052541 -0.244040 0
M  V30 62 H 1.426586 1.589044 3.577800 0
M  V30 END ATOM
M  V30 BEGIN BOND
M  V30 1 1 1 2
M  V30 2 1 2 3
M  V30 3 1 2 4
M  V30 4 1 2 5
M  V30 5 2 5 6
M  V30 6 1 5 7
M  V30 7 1 7 8
M  V30 8 2 8 9
M  V30 9 1 9 10
M  V30 10 2 10 11
M  V30 11 1 11 12
M  V30 12 1 12 13
M  V30 13 2 13 14
M  V30 14 1 14 15
M  V30 15 2 15 16
M  V30 16 1 16 17
M  V30 17 1 17 18
M  V30 18 2 18 19
M  V30 19 1 19 20
M  V30 20 2 20 21
M  V30 21 1 21 22
M  V30 22 2 22 23
M  V30 23 1 23 24
M  V30 24 2 24 25
M  V30 25 1 25 26
M  V30 26 2 26 27
M  V30 27 1 27 28
M  V30 28 1 27 29
M  V30 29 2 29 30
M  V30 30 1 23 31
M  V30 31 2 31 32
M  V30 32 1 32 33
M  V30 33 2 33 34
M  V30 34 1 34 35
M  V30 35 1 19 36
M  V30 36 2 36 37
M  V30 37 2 12 38
M  V30 38 1 38 8
M  V30 39 1 37 13
M  V30 40 1 36 16
M  V30 41 1 35 20
M  V30 42 1 34 22
M  V30 43 1 30 24
M  V30 44 1 1 39
M  V30 45 1 1 40
M  V30 46 1 1 41
M  V30 47 1 3 42
M  V30 48 1 3 43
M  V30 49 1 3 44
M  V30 50 1 4 45
M  V30 51 1 4 46
M  V30 52 1 4 47
M  V30 53 1 7 48
M  V30 54 1 9 49
M  V30 55 1 11 50
M  V30 56 1 14 51
M  V30 57 1 15 52
M  V30 58 1 17 53
M  V30 59 1 25 54
M  V30 60 1 26 55
M  V30 61 1 29 56
M  V30 62 1 30 57
M  V30 63 1 31 58
M  V30 64 1 33 59
M  V30 65 1 35 60
M  V30 66 1 37 61
M  V30 67 1 38 62
M  V30 END BOND
M  V30 END CTAB
M  END
>  <Dataset>  (226) 
ChEMBL_Kinases

>  <Ligand_Instance>  (226) 
nan

>  <PDB_ID>  (226) 
nan

>  <Standardized_SMILES>  (226) 
CC(C)(C)C(=O)Nc1cncc(-c2ccc3[nH]nc(-c4nc5c(-c6ccc(F)cc6)cncc5[nH]4)c3c2)c1

>  <Name>  (226) 
nan

>  <Pocket>  (226) 
nan

>  <ATP_Site>  (226) 
nan

>  <Peripheral>  (226) 
nan

>  <Num_H_Atoms_ProtBoundConf>  (226) 
nan

>  <Num_Resolved_Atoms>  (226) 
nan

>  <Num_Not_Resolved_Atoms>  (226) 
nan

$$$$
CHEMBL4789335
     RDKit          3D

  0  0  0  0  0  0  0  0  0  0999 V3000
M  V30 BEGIN CTAB
M  V30 COUNTS 36 38 0 0 0
M  V30 BEGIN ATOM
M  V30 1 C -0.256518 -7.439298 4.406864 0
M  V30 2 C 0.373478 -6.224003 3.846041 0
M  V30 3 C 0.905055 -5.243263 3.385453 0
M  V30 4 C 1.522130 -4.051554 2.831502 0
M  V30 5 O 2.285301 -3.353832 3.554453 0
M  V30 6 N 1.223350 -3.737537 1.484976 0
M  V30 7 C 1.633462 -2.676363 0.632471 0
M  V30 8 C 0.844728 -1.544281 0.635690 0
M  V30 9 C 1.110542 -0.442536 -0.130554 0
M  V30 10 C 0.332099 0.696755 -0.138613 0
M  V30 11 C 0.589439 1.812891 -0.905719 0
M  V30 12 C -0.327983 2.966394 -0.819158 0
M  V30 13 C -0.070781 4.313874 -0.966427 0
M  V30 14 N -1.251261 4.970345 -0.794767 0
M  V30 15 N -2.214688 4.071521 -0.548864 0
M  V30 16 C -3.634395 4.290439 -0.300666 0
M  V30 17 C -1.681930 2.825402 -0.556349 0
M  V30 18 C 1.717082 1.792050 -1.734558 0
M  V30 19 C 2.492983 0.661895 -1.729279 0
M  V30 20 C 2.235897 -0.455033 -0.961795 0
M  V30 21 C 3.001772 -1.584577 -0.949214 0
M  V30 22 N 2.711273 -2.661154 -0.177650 0
M  V30 23 H 0.368747 -8.286472 4.096127 0
M  V30 24 H -0.353561 -7.361631 5.512317 0
M  V30 25 H -1.305140 -7.564486 4.006667 0
M  V30 26 H 0.598991 -4.290273 0.858505 0
M  V30 27 H -0.052901 -1.463382 1.262910 0
M  V30 28 H -0.548599 0.700621 0.514598 0
M  V30 29 H 0.902293 4.732542 -1.179063 0
M  V30 30 H -3.865846 3.750822 0.654828 0
M  V30 31 H -4.179884 3.754880 -1.100824 0
M  V30 32 H -3.870123 5.366016 -0.228360 0
M  V30 33 H -2.189810 1.895354 -0.393150 0
M  V30 34 H 1.917586 2.664908 -2.334855 0
M  V30 35 H 3.372738 0.608578 -2.356451 0
M  V30 36 H 3.878140 -1.622482 -1.582102 0
M  V30 END ATOM
M  V30 BEGIN BOND
M  V30 1 1 1 2
M  V30 2 3 2 3
M  V30 3 1 3 4
M  V30 4 2 4 5
M  V30 5 1 4 6
M  V30 6 1 6 7
M  V30 7 2 7 8
M  V30 8 1 8 9
M  V30 9 2 9 10
M  V30 10 1 10 11
M  V30 11 1 11 12
M  V30 12 1 12 13
M  V30 13 2 13 14
M  V30 14 1 14 15
M  V30 15 1 15 16
M  V30 16 1 15 17
M  V30 17 2 11 18
M  V30 18 1 18 19
M  V30 19 2 19 20
M  V30 20 1 20 21
M  V30 21 2 21 22
M  V30 22 1 22 7
M  V30 23 1 20 9
M  V30 24 2 17 12
M  V30 25 1 1 23
M  V30 26 1 1 24
M  V30 27 1 1 25
M  V30 28 1 6 26
M  V30 29 1 8 27
M  V30 30 1 10 28
M  V30 31 1 13 29
M  V30 32 1 16 30
M  V30 33 1 16 31
M  V30 34 1 16 32
M  V30 35 1 17 33
M  V30 36 1 18 34
M  V30 37 1 19 35
M  V30 38 1 21 36
M  V30 END BOND
M  V30 END CTAB
M  END
>  <Dataset>  (227) 
ChEMBL_Kinases

>  <Ligand_Instance>  (227) 
nan

>  <PDB_ID>  (227) 
nan

>  <Standardized_SMILES>  (227) 
CC#CC(=O)Nc1cc2cc(-c3cnn(C)c3)ccc2cn1

>  <Name>  (227) 
nan

>  <Pocket>  (227) 
nan

>  <ATP_Site>  (227) 
nan

>  <Peripheral>  (227) 
nan

>  <Num_H_Atoms_ProtBoundConf>  (227) 
nan

>  <Num_Resolved_Atoms>  (227) 
nan

>  <Num_Not_Resolved_Atoms>  (227) 
nan

$$$$
CHEMBL4128901
     RDKit          3D

  0  0  0  0  0  0  0  0  0  0999 V3000
M  V30 BEGIN CTAB
M  V30 COUNTS 54 57 0 0 0
M  V30 BEGIN ATOM
M  V30 1 C 3.049036 -1.399484 3.415904 0
M  V30 2 N 3.843236 -0.882975 2.314869 0
M  V30 3 C 4.703972 -1.942755 1.767564 0
M  V30 4 C 2.984947 -0.493810 1.184729 0
M  V30 5 C 3.919154 0.026101 0.125245 0
M  V30 6 N 3.243561 0.461367 -1.082175 0
M  V30 7 C 2.288424 1.511948 -1.059456 0
M  V30 8 C 2.749826 2.796468 -1.238771 0
M  V30 9 N 1.860535 3.808062 -1.221094 0
M  V30 10 C 0.552500 3.520254 -1.027840 0
M  V30 11 C 0.055276 2.249953 -0.845107 0
M  V30 12 C -1.388160 2.011247 -0.634771 0
M  V30 13 C -2.310287 3.029916 -0.612744 0
M  V30 14 C -3.606986 2.630281 -0.401520 0
M  V30 15 C -4.089163 1.357776 -0.211981 0
M  V30 16 N -5.251372 0.726329 0.009926 0
M  V30 17 C -4.984409 -0.589537 0.107880 0
M  V30 18 C -3.636050 -0.828142 -0.050437 0
M  V30 19 C -3.158526 -2.197779 0.016472 0
M  V30 20 C -3.872068 -3.229085 -0.606233 0
M  V30 21 C -3.392033 -4.519976 -0.524863 0
M  V30 22 C -2.215956 -4.750565 0.171970 0
M  V30 23 C -1.495180 -3.733984 0.795145 0
M  V30 24 O -0.379884 -4.255621 1.401552 0
M  V30 25 C -0.264367 -4.728841 2.704677 0
M  V30 26 F 1.053364 -5.163415 2.852936 0
M  V30 27 F -0.532955 -3.687687 3.578839 0
M  V30 28 F -1.103093 -5.794741 2.894921 0
M  V30 29 C -1.994336 -2.454835 0.701106 0
M  V30 30 C -3.049898 0.404799 -0.255389 0
M  V30 31 C -1.708137 0.657225 -0.458529 0
M  V30 32 N 0.985287 1.258196 -0.870307 0
M  V30 33 H 2.642188 -2.407947 3.219940 0
M  V30 34 H 3.743226 -1.484842 4.287579 0
M  V30 35 H 2.269602 -0.660758 3.693003 0
M  V30 36 H 4.246243 -2.421819 0.870206 0
M  V30 37 H 5.679816 -1.543411 1.463269 0
M  V30 38 H 4.768841 -2.754506 2.530919 0
M  V30 39 H 2.305001 0.260964 1.576625 0
M  V30 40 H 2.474407 -1.417506 0.879220 0
M  V30 41 H 4.460691 0.910688 0.549830 0
M  V30 42 H 4.715160 -0.702582 -0.123575 0
M  V30 43 H 3.429730 0.018867 -2.024387 0
M  V30 44 H 3.808355 2.964281 -1.387916 0
M  V30 45 H -0.067922 4.397063 -1.031512 0
M  V30 46 H -2.013068 4.041879 -0.745112 0
M  V30 47 H -4.363772 3.426838 -0.379420 0
M  V30 48 H -6.134860 1.279596 0.073867 0
M  V30 49 H -5.845762 -1.243067 0.290769 0
M  V30 50 H -4.788844 -3.012344 -1.144374 0
M  V30 51 H -3.980075 -5.276738 -1.022013 0
M  V30 52 H -1.963695 -5.823196 0.149562 0
M  V30 53 H -1.370441 -1.743501 1.218840 0
M  V30 54 H -0.980122 -0.128102 -0.479140 0
M  V30 END ATOM
M  V30 BEGIN BOND
M  V30 1 1 1 2
M  V30 2 1 2 3
M  V30 3 1 2 4
M  V30 4 1 4 5
M  V30 5 1 5 6
M  V30 6 1 6 7
M  V30 7 2 7 8
M  V30 8 1 8 9
M  V30 9 2 9 10
M  V30 10 1 10 11
M  V30 11 1 11 12
M  V30 12 2 12 13
M  V30 13 1 13 14
M  V30 14 2 14 15
M  V30 15 1 15 16
M  V30 16 1 16 17
M  V30 17 2 17 18
M  V30 18 1 18 19
M  V30 19 2 19 20
M  V30 20 1 20 21
M  V30 21 2 21 22
M  V30 22 1 22 23
M  V30 23 1 23 24
M  V30 24 1 24 25
M  V30 25 1 25 26
M  V30 26 1 25 27
M  V30 27 1 25 28
M  V30 28 2 23 29
M  V30 29 1 18 30
M  V30 30 2 30 31
M  V30 31 2 11 32
M  V30 32 1 32 7
M  V30 33 1 31 12
M  V30 34 1 30 15
M  V30 35 1 29 19
M  V30 36 1 1 33
M  V30 37 1 1 34
M  V30 38 1 1 35
M  V30 39 1 3 36
M  V30 40 1 3 37
M  V30 41 1 3 38
M  V30 42 1 4 39
M  V30 43 1 4 40
M  V30 44 1 5 41
M  V30 45 1 5 42
M  V30 46 1 6 43
M  V30 47 1 8 44
M  V30 48 1 10 45
M  V30 49 1 13 46
M  V30 50 1 14 47
M  V30 51 1 16 48
M  V30 52 1 17 49
M  V30 53 1 20 50
M  V30 54 1 21 51
M  V30 55 1 22 52
M  V30 56 1 29 53
M  V30 57 1 31 54
M  V30 END BOND
M  V30 END CTAB
M  END
>  <Dataset>  (228) 
ChEMBL_Kinases

>  <Ligand_Instance>  (228) 
nan

>  <PDB_ID>  (228) 
nan

>  <Standardized_SMILES>  (228) 
CN(C)CCNc1cncc(-c2ccc3[nH]cc(-c4cccc(OC(F)(F)F)c4)c3c2)n1

>  <Name>  (228) 
nan

>  <Pocket>  (228) 
nan

>  <ATP_Site>  (228) 
nan

>  <Peripheral>  (228) 
nan

>  <Num_H_Atoms_ProtBoundConf>  (228) 
nan

>  <Num_Resolved_Atoms>  (228) 
nan

>  <Num_Not_Resolved_Atoms>  (228) 
nan

$$$$
CHEMBL4128740
     RDKit          3D

  0  0  0  0  0  0  0  0  0  0999 V3000
M  V30 BEGIN CTAB
M  V30 COUNTS 51 54 0 0 0
M  V30 BEGIN ATOM
M  V30 1 C 2.654319 -2.842537 4.962049 0
M  V30 2 N 3.185810 -1.522163 4.745530 0
M  V30 3 C 2.129273 -0.577288 5.013474 0
M  V30 4 C 3.691144 -1.421285 3.392117 0
M  V30 5 C 4.239883 -0.058298 3.109143 0
M  V30 6 N 4.757082 0.068218 1.755403 0
M  V30 7 C 3.614376 -0.304009 1.001114 0
M  V30 8 C 3.780897 -1.471580 0.271117 0
M  V30 9 N 2.767091 -1.970275 -0.498430 0
M  V30 10 C 1.598657 -1.331575 -0.553705 0
M  V30 11 C 1.414134 -0.178402 0.159658 0
M  V30 12 C 0.164923 0.567766 0.172618 0
M  V30 13 C 0.058333 1.703904 0.949989 0
M  V30 14 C -1.154733 2.381641 0.935154 0
M  V30 15 C -2.236286 1.953185 0.173745 0
M  V30 16 N -3.473988 2.485244 0.039063 0
M  V30 17 C -4.149468 1.684444 -0.826425 0
M  V30 18 C -3.348858 0.619393 -1.262864 0
M  V30 19 C -3.657114 -0.471314 -2.175578 0
M  V30 20 C -4.230736 -0.307460 -3.414774 0
M  V30 21 C -4.499689 -1.423060 -4.216960 0
M  V30 22 C -4.165465 -2.675392 -3.709414 0
M  V30 23 C -3.593327 -2.856585 -2.476311 0
M  V30 24 C -3.292033 -4.201429 -2.042308 0
M  V30 25 N -3.071383 -5.267698 -1.689782 0
M  V30 26 C -3.346743 -1.724297 -1.722355 0
M  V30 27 C -2.145079 0.809235 -0.617399 0
M  V30 28 C -0.909509 0.151261 -0.577665 0
M  V30 29 N 2.414836 0.299552 0.909790 0
M  V30 30 H 2.581588 -3.003971 6.053538 0
M  V30 31 H 1.588168 -2.878086 4.591606 0
M  V30 32 H 3.247477 -3.646772 4.439716 0
M  V30 33 H 1.706188 -0.854941 6.018016 0
M  V30 34 H 2.459129 0.465596 5.003521 0
M  V30 35 H 1.297352 -0.681453 4.273191 0
M  V30 36 H 2.945061 -1.708774 2.618914 0
M  V30 37 H 4.520378 -2.154125 3.304497 0
M  V30 38 H 3.549838 0.775002 3.281338 0
M  V30 39 H 5.103067 0.144260 3.819404 0
M  V30 40 H 5.605384 0.313453 1.182344 0
M  V30 41 H 4.686518 -2.075683 0.240882 0
M  V30 42 H 0.826411 -1.751082 -1.164268 0
M  V30 43 H 0.857309 2.075216 1.551875 0
M  V30 44 H -1.299358 3.271999 1.521512 0
M  V30 45 H -3.900238 3.340908 0.479830 0
M  V30 46 H -5.175179 1.819746 -1.160384 0
M  V30 47 H -4.437866 0.725777 -3.679448 0
M  V30 48 H -4.951751 -1.234256 -5.180342 0
M  V30 49 H -4.372587 -3.534209 -4.329369 0
M  V30 50 H -2.887461 -1.939378 -0.743495 0
M  V30 51 H -0.898071 -0.715134 -1.204212 0
M  V30 END ATOM
M  V30 BEGIN BOND
M  V30 1 1 1 2
M  V30 2 1 2 3
M  V30 3 1 2 4
M  V30 4 1 4 5
M  V30 5 1 5 6
M  V30 6 1 6 7
M  V30 7 2 7 8
M  V30 8 1 8 9
M  V30 9 2 9 10
M  V30 10 1 10 11
M  V30 11 1 11 12
M  V30 12 2 12 13
M  V30 13 1 13 14
M  V30 14 2 14 15
M  V30 15 1 15 16
M  V30 16 1 16 17
M  V30 17 2 17 18
M  V30 18 1 18 19
M  V30 19 2 19 20
M  V30 20 1 20 21
M  V30 21 2 21 22
M  V30 22 1 22 23
M  V30 23 1 23 24
M  V30 24 3 24 25
M  V30 25 2 23 26
M  V30 26 1 18 27
M  V30 27 2 27 28
M  V30 28 2 11 29
M  V30 29 1 29 7
M  V30 30 1 28 12
M  V30 31 1 27 15
M  V30 32 1 26 19
M  V30 33 1 1 30
M  V30 34 1 1 31
M  V30 35 1 1 32
M  V30 36 1 3 33
M  V30 37 1 3 34
M  V30 38 1 3 35
M  V30 39 1 4 36
M  V30 40 1 4 37
M  V30 41 1 5 38
M  V30 42 1 5 39
M  V30 43 1 6 40
M  V30 44 1 8 41
M  V30 45 1 10 42
M  V30 46 1 13 43
M  V30 47 1 14 44
M  V30 48 1 16 45
M  V30 49 1 17 46
M  V30 50 1 20 47
M  V30 51 1 21 48
M  V30 52 1 22 49
M  V30 53 1 26 50
M  V30 54 1 28 51
M  V30 END BOND
M  V30 END CTAB
M  END
>  <Dataset>  (229) 
ChEMBL_Kinases

>  <Ligand_Instance>  (229) 
nan

>  <PDB_ID>  (229) 
nan

>  <Standardized_SMILES>  (229) 
CN(C)CCNc1cncc(-c2ccc3[nH]cc(-c4cccc(C#N)c4)c3c2)n1

>  <Name>  (229) 
nan

>  <Pocket>  (229) 
nan

>  <ATP_Site>  (229) 
nan

>  <Peripheral>  (229) 
nan

>  <Num_H_Atoms_ProtBoundConf>  (229) 
nan

>  <Num_Resolved_Atoms>  (229) 
nan

>  <Num_Not_Resolved_Atoms>  (229) 
nan

$$$$
CHEMBL4129817
     RDKit          3D

  0  0  0  0  0  0  0  0  0  0999 V3000
M  V30 BEGIN CTAB
M  V30 COUNTS 64 68 0 0 0
M  V30 BEGIN ATOM
M  V30 1 C 2.487777 0.498276 3.606482 0
M  V30 2 C 1.997323 -0.320353 2.397534 0 CFG=2
M  V30 3 C 2.460707 -1.746168 2.704116 0
M  V30 4 C 3.918264 -1.690518 2.946852 0
M  V30 5 O 4.540624 -2.031815 4.003817 0
M  V30 6 N 4.675238 -1.187942 1.837153 0
M  V30 7 C 4.040119 -0.238313 0.993364 0
M  V30 8 N 4.776200 0.207472 -0.039488 0
M  V30 9 C 4.180327 1.104784 -0.849804 0
M  V30 10 N 2.924551 1.515448 -0.620175 0
M  V30 11 C 2.158623 1.081418 0.415176 0
M  V30 12 N 0.838006 1.645121 0.440198 0
M  V30 13 C 0.075434 2.239106 1.486524 0
M  V30 14 C -1.226964 1.529110 1.741275 0
M  V30 15 C -1.461143 0.540914 0.621276 0
M  V30 16 C -2.797317 -0.085724 0.706670 0
M  V30 17 N -3.979388 0.571272 0.709056 0
M  V30 18 C -4.986263 -0.330202 0.811644 0
M  V30 19 C -6.426997 -0.010079 0.850012 0
M  V30 20 F -6.844253 0.072947 -0.480078 0
M  V30 21 F -6.678419 1.144694 1.537467 0
M  V30 22 F -7.108704 -1.095475 1.397216 0
M  V30 23 C -4.319297 -1.555769 0.868500 0
M  V30 24 N -2.963574 -1.407444 0.803973 0
M  V30 25 C -2.212102 -2.621033 0.848102 0
M  V30 26 C -1.975102 -3.282633 -0.480787 0
M  V30 27 N -1.194543 -2.483305 -1.410292 0
M  V30 28 C -1.164831 -3.217215 -2.700137 0
M  V30 29 C -0.129430 -2.348333 -3.430975 0
M  V30 30 C 0.907376 -2.133470 -2.336917 0
M  V30 31 C 0.236053 -2.607818 -1.076568 0
M  V30 32 C -1.280822 1.314500 -0.664713 0
M  V30 33 C 0.151656 1.658398 -0.840119 0
M  V30 34 C 2.751590 0.165865 1.252437 0
M  V30 35 H 2.714805 1.520384 3.235578 0
M  V30 36 H 3.416108 0.057565 4.025465 0
M  V30 37 H 1.718216 0.601109 4.380380 0
M  V30 38 H 0.925222 -0.232221 2.385914 0
M  V30 39 H 1.912328 -2.186399 3.558792 0
M  V30 40 H 2.232977 -2.355157 1.820337 0
M  V30 41 H 5.662410 -1.512084 1.660894 0
M  V30 42 H 4.749806 1.481180 -1.690705 0
M  V30 43 H 0.648457 2.432894 2.411652 0
M  V30 44 H -0.221158 3.268560 1.122145 0
M  V30 45 H -2.097016 2.214221 1.784830 0
M  V30 46 H -1.176658 0.943813 2.682068 0
M  V30 47 H -0.645899 -0.199157 0.647363 0
M  V30 48 H -4.973365 -2.440400 0.953806 0
M  V30 49 H -2.620950 -3.367623 1.575871 0
M  V30 50 H -1.191962 -2.393954 1.255122 0
M  V30 51 H -1.394226 -4.212166 -0.271531 0
M  V30 52 H -2.924880 -3.565848 -0.986090 0
M  V30 53 H -2.130886 -3.214686 -3.197568 0
M  V30 54 H -0.723937 -4.194493 -2.474918 0
M  V30 55 H -0.619461 -1.410233 -3.728248 0
M  V30 56 H 0.325260 -2.884099 -4.283785 0
M  V30 57 H 1.805613 -2.770485 -2.551714 0
M  V30 58 H 1.276572 -1.113541 -2.262720 0
M  V30 59 H 0.524199 -2.082117 -0.172335 0
M  V30 60 H 0.437190 -3.693388 -0.931265 0
M  V30 61 H -1.714559 0.769071 -1.534744 0
M  V30 62 H -1.919031 2.234268 -0.551006 0
M  V30 63 H 0.178902 2.747661 -1.152363 0
M  V30 64 H 0.665669 1.076231 -1.626302 0
M  V30 END ATOM
M  V30 BEGIN BOND
M  V30 1 1 1 2
M  V30 2 1 2 3
M  V30 3 1 3 4
M  V30 4 2 4 5
M  V30 5 1 4 6
M  V30 6 1 6 7
M  V30 7 2 7 8
M  V30 8 1 8 9
M  V30 9 2 9 10
M  V30 10 1 10 11
M  V30 11 1 11 12
M  V30 12 1 12 13
M  V30 13 1 13 14
M  V30 14 1 14 15
M  V30 15 1 15 16
M  V30 16 2 16 17
M  V30 17 1 17 18
M  V30 18 1 18 19
M  V30 19 1 19 20
M  V30 20 1 19 21
M  V30 21 1 19 22
M  V30 22 2 18 23
M  V30 23 1 23 24
M  V30 24 1 24 25
M  V30 25 1 25 26
M  V30 26 1 26 27
M  V30 27 1 27 28
M  V30 28 1 28 29
M  V30 29 1 29 30
M  V30 30 1 30 31
M  V30 31 1 15 32
M  V30 32 1 32 33
M  V30 33 2 11 34
M  V30 34 1 34 2
M  V30 35 1 34 7
M  V30 36 1 33 12
M  V30 37 1 24 16
M  V30 38 1 31 27
M  V30 39 1 1 35
M  V30 40 1 1 36
M  V30 41 1 1 37
M  V30 42 1 2 38 CFG=3
M  V30 43 1 3 39
M  V30 44 1 3 40
M  V30 45 1 6 41
M  V30 46 1 9 42
M  V30 47 1 13 43
M  V30 48 1 13 44
M  V30 49 1 14 45
M  V30 50 1 14 46
M  V30 51 1 15 47
M  V30 52 1 23 48
M  V30 53 1 25 49
M  V30 54 1 25 50
M  V30 55 1 26 51
M  V30 56 1 26 52
M  V30 57 1 28 53
M  V30 58 1 28 54
M  V30 59 1 29 55
M  V30 60 1 29 56
M  V30 61 1 30 57
M  V30 62 1 30 58
M  V30 63 1 31 59
M  V30 64 1 31 60
M  V30 65 1 32 61
M  V30 66 1 32 62
M  V30 67 1 33 63
M  V30 68 1 33 64
M  V30 END BOND
M  V30 END CTAB
M  END
>  <Dataset>  (230) 
ChEMBL_Kinases

>  <Ligand_Instance>  (230) 
nan

>  <PDB_ID>  (230) 
nan

>  <Standardized_SMILES>  (230) 
C[C@@H]1CC(=O)Nc2ncnc(N3CCC(c4nc(C(F)(F)F)cn4CCN4CCCC4)CC3)c21

>  <Name>  (230) 
nan

>  <Pocket>  (230) 
nan

>  <ATP_Site>  (230) 
nan

>  <Peripheral>  (230) 
nan

>  <Num_H_Atoms_ProtBoundConf>  (230) 
nan

>  <Num_Resolved_Atoms>  (230) 
nan

>  <Num_Not_Resolved_Atoms>  (230) 
nan

$$$$
CHEMBL3354511
     RDKit          3D

  0  0  0  0  0  0  0  0  0  0999 V3000
M  V30 BEGIN CTAB
M  V30 COUNTS 44 47 0 0 0
M  V30 BEGIN ATOM
M  V30 1 O 2.887506 -1.848832 0.085716 0
M  V30 2 C 1.637060 -1.754074 0.086623 0
M  V30 3 N 1.101223 -0.941882 -0.972782 0
M  V30 4 C 2.190753 -0.461415 -1.747059 0
M  V30 5 C 2.711679 -1.187624 -2.792691 0
M  V30 6 N 3.764572 -0.678511 -3.498345 0
M  V30 7 C 4.285858 0.525068 -3.170097 0
M  V30 8 C 3.736095 1.239935 -2.103910 0
M  V30 9 C 2.657290 0.766988 -1.346919 0
M  V30 10 O 2.379941 1.696573 -0.406259 0
M  V30 11 C 1.378249 1.692338 0.549785 0 CFG=1
M  V30 12 C 2.024406 1.687519 1.947116 0
M  V30 13 C 2.357355 3.114957 2.229998 0
M  V30 14 N 1.494894 3.924071 1.390982 0
M  V30 15 C 0.690863 3.049442 0.596132 0
M  V30 16 C 0.800658 -2.414912 1.081930 0
M  V30 17 C 1.406491 -3.191781 2.086650 0
M  V30 18 S -0.107323 -3.786553 3.061265 0
M  V30 19 C -1.217546 -2.855071 1.896442 0
M  V30 20 C -2.723412 -2.931126 2.157193 0
M  V30 21 C -3.211819 -3.660099 3.209706 0
M  V30 22 F -2.412835 -4.328127 4.045119 0
M  V30 23 C -4.607760 -3.625872 3.307231 0
M  V30 24 C -5.406555 -2.925028 2.426661 0
M  V30 25 C -4.820343 -2.215207 1.390346 0
M  V30 26 C -3.431102 -2.208319 1.237021 0
M  V30 27 F -2.887516 -1.513855 0.226246 0
M  V30 28 N -0.514248 -2.373405 1.161440 0
M  V30 29 H 0.046289 -0.817873 -1.037905 0
M  V30 30 H 2.223430 -2.135589 -2.972452 0
M  V30 31 H 5.111974 0.817580 -3.799334 0
M  V30 32 H 4.303870 2.180629 -2.009919 0
M  V30 33 H 0.671772 0.869184 0.516014 0
M  V30 34 H 1.375703 1.191684 2.669874 0
M  V30 35 H 2.991728 1.119811 1.851969 0
M  V30 36 H 2.225593 3.306180 3.315463 0
M  V30 37 H 3.438186 3.326244 2.012620 0
M  V30 38 H 0.922204 4.507492 2.058773 0
M  V30 39 H 0.734821 3.431544 -0.454037 0
M  V30 40 H -0.350197 2.923945 0.958725 0
M  V30 41 H 2.546792 -3.392812 2.244483 0
M  V30 42 H -5.071199 -4.187908 4.127749 0
M  V30 43 H -6.493006 -2.939940 2.559644 0
M  V30 44 H -5.444507 -1.666188 0.700376 0
M  V30 END ATOM
M  V30 BEGIN BOND
M  V30 1 2 1 2
M  V30 2 1 2 3
M  V30 3 1 3 4
M  V30 4 2 4 5
M  V30 5 1 5 6
M  V30 6 2 6 7
M  V30 7 1 7 8
M  V30 8 2 8 9
M  V30 9 1 9 10
M  V30 10 1 10 11
M  V30 11 1 11 12
M  V30 12 1 12 13
M  V30 13 1 13 14
M  V30 14 1 14 15
M  V30 15 1 2 16
M  V30 16 2 16 17
M  V30 17 1 17 18
M  V30 18 1 18 19
M  V30 19 1 19 20
M  V30 20 2 20 21
M  V30 21 1 21 22
M  V30 22 1 21 23
M  V30 23 2 23 24
M  V30 24 1 24 25
M  V30 25 2 25 26
M  V30 26 1 26 27
M  V30 27 2 19 28
M  V30 28 1 9 4
M  V30 29 1 15 11
M  V30 30 1 28 16
M  V30 31 1 26 20
M  V30 32 1 3 29
M  V30 33 1 5 30
M  V30 34 1 7 31
M  V30 35 1 8 32
M  V30 36 1 11 33 CFG=3
M  V30 37 1 12 34
M  V30 38 1 12 35
M  V30 39 1 13 36
M  V30 40 1 13 37
M  V30 41 1 14 38
M  V30 42 1 15 39
M  V30 43 1 15 40
M  V30 44 1 17 41
M  V30 45 1 23 42
M  V30 46 1 24 43
M  V30 47 1 25 44
M  V30 END BOND
M  V30 END CTAB
M  END
>  <Dataset>  (231) 
ChEMBL_Kinases

>  <Ligand_Instance>  (231) 
nan

>  <PDB_ID>  (231) 
nan

>  <Standardized_SMILES>  (231) 
O=C(Nc1cnccc1O[C@H]1CCNC1)c1csc(-c2c(F)cccc2F)n1

>  <Name>  (231) 
nan

>  <Pocket>  (231) 
nan

>  <ATP_Site>  (231) 
nan

>  <Peripheral>  (231) 
nan

>  <Num_H_Atoms_ProtBoundConf>  (231) 
nan

>  <Num_Resolved_Atoms>  (231) 
nan

>  <Num_Not_Resolved_Atoms>  (231) 
nan

$$$$
CHEMBL4790211
     RDKit          3D

  0  0  0  0  0  0  0  0  0  0999 V3000
M  V30 BEGIN CTAB
M  V30 COUNTS 64 70 0 0 0
M  V30 BEGIN ATOM
M  V30 1 F 5.692771 1.537658 5.769011 0
M  V30 2 C 5.917331 1.961649 4.510175 0
M  V30 3 C 6.866835 2.921923 4.247897 0
M  V30 4 C 7.006362 3.274972 2.921233 0
M  V30 5 C 6.272381 2.736894 1.883746 0
M  V30 6 C 5.321208 1.768499 2.186277 0
M  V30 7 C 4.574972 1.223702 1.059831 0
M  V30 8 C 5.276792 0.815064 -0.053752 0
M  V30 9 N 4.559094 0.300555 -1.087776 0
M  V30 10 C 3.219439 0.183911 -1.052031 0
M  V30 11 C 2.522482 0.593751 0.062406 0
M  V30 12 N 1.225571 0.614033 0.399981 0
M  V30 13 C 0.965402 1.109565 1.608529 0
M  V30 14 C -0.214442 1.340762 2.410626 0
M  V30 15 N -0.226420 1.874136 3.650518 0
M  V30 16 N -1.447233 1.962763 4.130181 0
M  V30 17 C -2.338763 1.494100 3.243031 0
M  V30 18 N -3.676989 1.375148 3.266639 0
M  V30 19 C -4.284416 0.851252 2.187037 0
M  V30 20 C -3.567940 0.436700 1.064824 0
M  V30 21 C -4.240301 -0.123311 -0.084527 0
M  V30 22 C -5.525983 0.247476 -0.494407 0
M  V30 23 N -6.122532 -0.295475 -1.570462 0
M  V30 24 C -5.496640 -1.231553 -2.307067 0
M  V30 25 C -4.226363 -1.677114 -2.000375 0
M  V30 26 C -3.427270 -2.685933 -2.709991 0
M  V30 27 N -3.608601 -4.034490 -2.253062 0
M  V30 28 C -3.282105 -4.254898 -0.880247 0
M  V30 29 C -1.826795 -4.359237 -0.562540 0
M  V30 30 C -0.968028 -4.699637 -1.744113 0
M  V30 31 C -1.764751 -5.639654 -2.627619 0
M  V30 32 C -2.953475 -4.927729 -3.166461 0
M  V30 33 C -3.643749 -1.095138 -0.885331 0
M  V30 34 C -2.206606 0.583674 1.100976 0
M  V30 35 C -1.547974 1.112459 2.180305 0
M  V30 36 C 2.241267 1.425150 2.055374 0
M  V30 37 C 3.202109 1.121663 1.136435 0
M  V30 38 C 5.159459 1.395201 3.503972 0
M  V30 39 H 7.426828 3.329590 5.058596 0
M  V30 40 H 7.767772 4.042326 2.721355 0
M  V30 41 H 6.427394 3.053730 0.870608 0
M  V30 42 H 6.353092 0.876233 -0.160008 0
M  V30 43 H 2.666700 -0.228309 -1.884625 0
M  V30 44 H 0.516612 0.259947 -0.263217 0
M  V30 45 H -1.617455 2.355328 5.079461 0
M  V30 46 H -5.359427 0.764223 2.224576 0
M  V30 47 H -6.029881 1.000562 0.096895 0
M  V30 48 H -5.944339 -1.699460 -3.189758 0
M  V30 49 H -3.757355 -2.687663 -3.788119 0
M  V30 50 H -2.389264 -2.329545 -2.739807 0
M  V30 51 H -3.806858 -5.210572 -0.583168 0
M  V30 52 H -3.787914 -3.478715 -0.281096 0
M  V30 53 H -1.452946 -3.433064 -0.040148 0
M  V30 54 H -1.690947 -5.182659 0.191461 0
M  V30 55 H -0.048755 -5.223229 -1.347064 0
M  V30 56 H -0.564750 -3.825838 -2.283244 0
M  V30 57 H -1.164349 -6.030954 -3.471543 0
M  V30 58 H -2.049217 -6.491795 -1.984954 0
M  V30 59 H -3.703590 -5.675371 -3.509269 0
M  V30 60 H -2.624925 -4.399032 -4.105501 0
M  V30 61 H -2.646622 -1.382396 -0.567130 0
M  V30 62 H -1.679512 0.265125 0.243130 0
M  V30 63 H 2.521558 1.868642 3.013912 0
M  V30 64 H 4.422519 0.639022 3.733128 0
M  V30 END ATOM
M  V30 BEGIN BOND
M  V30 1 1 1 2
M  V30 2 2 2 3
M  V30 3 1 3 4
M  V30 4 2 4 5
M  V30 5 1 5 6
M  V30 6 1 6 7
M  V30 7 2 7 8
M  V30 8 1 8 9
M  V30 9 2 9 10
M  V30 10 1 10 11
M  V30 11 1 11 12
M  V30 12 1 12 13
M  V30 13 1 13 14
M  V30 14 2 14 15
M  V30 15 1 15 16
M  V30 16 1 16 17
M  V30 17 2 17 18
M  V30 18 1 18 19
M  V30 19 2 19 20
M  V30 20 1 20 21
M  V30 21 2 21 22
M  V30 22 1 22 23
M  V30 23 2 23 24
M  V30 24 1 24 25
M  V30 25 1 25 26
M  V30 26 1 26 27
M  V30 27 1 27 28
M  V30 28 1 28 29
M  V30 29 1 29 30
M  V30 30 1 30 31
M  V30 31 1 31 32
M  V30 32 2 25 33
M  V30 33 1 20 34
M  V30 34 2 34 35
M  V30 35 2 13 36
M  V30 36 1 36 37
M  V30 37 2 6 38
M  V30 38 1 38 2
M  V30 39 1 37 7
M  V30 40 2 37 11
M  V30 41 1 35 14
M  V30 42 1 35 17
M  V30 43 1 33 21
M  V30 44 1 32 27
M  V30 45 1 3 39
M  V30 46 1 4 40
M  V30 47 1 5 41
M  V30 48 1 8 42
M  V30 49 1 10 43
M  V30 50 1 12 44
M  V30 51 1 16 45
M  V30 52 1 19 46
M  V30 53 1 22 47
M  V30 54 1 24 48
M  V30 55 1 26 49
M  V30 56 1 26 50
M  V30 57 1 28 51
M  V30 58 1 28 52
M  V30 59 1 29 53
M  V30 60 1 29 54
M  V30 61 1 30 55
M  V30 62 1 30 56
M  V30 63 1 31 57
M  V30 64 1 31 58
M  V30 65 1 32 59
M  V30 66 1 32 60
M  V30 67 1 33 61
M  V30 68 1 34 62
M  V30 69 1 36 63
M  V30 70 1 38 64
M  V30 END BOND
M  V30 END CTAB
M  END
>  <Dataset>  (232) 
ChEMBL_Kinases

>  <Ligand_Instance>  (232) 
nan

>  <PDB_ID>  (232) 
nan

>  <Standardized_SMILES>  (232) 
Fc1cccc(-c2cncc3[nH]c(-c4n[nH]c5ncc(-c6cncc(CN7CCCCC7)c6)cc45)cc23)c1

>  <Name>  (232) 
nan

>  <Pocket>  (232) 
nan

>  <ATP_Site>  (232) 
nan

>  <Peripheral>  (232) 
nan

>  <Num_H_Atoms_ProtBoundConf>  (232) 
nan

>  <Num_Resolved_Atoms>  (232) 
nan

>  <Num_Not_Resolved_Atoms>  (232) 
nan

$$$$
CHEMBL4789529
     RDKit          3D

  0  0  0  0  0  0  0  0  0  0999 V3000
M  V30 BEGIN CTAB
M  V30 COUNTS 47 51 0 0 0
M  V30 BEGIN ATOM
M  V30 1 C -0.307062 -4.098797 4.052246 0
M  V30 2 N 0.601089 -3.039995 3.751762 0
M  V30 3 C 1.279755 -2.476078 4.900404 0
M  V30 4 C 1.462008 -3.248458 2.634574 0
M  V30 5 C 2.330207 -2.054729 2.473105 0
M  V30 6 C 3.557374 -1.940781 3.092527 0
M  V30 7 N 4.370527 -0.859536 2.961190 0
M  V30 8 C 3.970459 0.175596 2.181625 0
M  V30 9 C 2.758814 0.149108 1.523699 0
M  V30 10 C 2.247838 1.212203 0.667575 0
M  V30 11 C 2.933143 2.381075 0.418180 0
M  V30 12 C 2.479637 3.406586 -0.385781 0
M  V30 13 C 1.254079 3.275316 -0.994982 0
M  V30 14 N 0.510462 4.020117 -1.808678 0
M  V30 15 N -0.620383 3.377134 -2.089707 0
M  V30 16 C -0.605255 2.210871 -1.453144 0
M  V30 17 C -1.645869 1.161514 -1.465226 0
M  V30 18 C -2.837180 1.263435 -2.180986 0
M  V30 19 C -3.546007 0.090298 -1.942336 0
M  V30 20 C -4.760795 -0.450051 -2.325187 0
M  V30 21 C -5.148577 -1.693694 -1.870467 0
M  V30 22 C -4.343331 -2.432094 -1.026057 0
M  V30 23 N -3.164782 -1.891430 -0.663478 0
M  V30 24 C -2.770565 -0.677667 -1.098535 0
M  V30 25 N -1.629719 -0.032828 -0.812982 0
M  V30 26 C 0.575655 2.102075 -0.739418 0
M  V30 27 N 1.052811 1.125080 0.051529 0
M  V30 28 C 1.973838 -0.972822 1.692584 0
M  V30 29 H -1.304610 -3.697789 4.333985 0
M  V30 30 H 0.002705 -4.776850 4.867036 0
M  V30 31 H -0.455200 -4.683116 3.099847 0
M  V30 32 H 1.660608 -1.459441 4.590234 0
M  V30 33 H 2.124278 -3.057940 5.268491 0
M  V30 34 H 0.596800 -2.271865 5.736402 0
M  V30 35 H 2.027273 -4.199580 2.639302 0
M  V30 36 H 0.814168 -3.282240 1.727170 0
M  V30 37 H 3.928985 -2.726330 3.721821 0
M  V30 38 H 4.595619 1.047472 2.058779 0
M  V30 39 H 3.902129 2.544458 0.867747 0
M  V30 40 H 3.076668 4.311565 -0.542009 0
M  V30 41 H 0.859849 4.958428 -2.120248 0
M  V30 42 H -3.191532 2.061682 -2.807503 0
M  V30 43 H -5.387871 0.142094 -2.991986 0
M  V30 44 H -6.109397 -2.124830 -2.171258 0
M  V30 45 H -4.674127 -3.418161 -0.678451 0
M  V30 46 H -0.856243 -0.369723 -0.202450 0
M  V30 47 H 1.001813 -1.023551 1.180651 0
M  V30 END ATOM
M  V30 BEGIN BOND
M  V30 1 1 1 2
M  V30 2 1 2 3
M  V30 3 1 2 4
M  V30 4 1 4 5
M  V30 5 2 5 6
M  V30 6 1 6 7
M  V30 7 2 7 8
M  V30 8 1 8 9
M  V30 9 1 9 10
M  V30 10 2 10 11
M  V30 11 1 11 12
M  V30 12 2 12 13
M  V30 13 1 13 14
M  V30 14 1 14 15
M  V30 15 2 15 16
M  V30 16 1 16 17
M  V30 17 2 17 18
M  V30 18 1 18 19
M  V30 19 2 19 20
M  V30 20 1 20 21
M  V30 21 2 21 22
M  V30 22 1 22 23
M  V30 23 2 23 24
M  V30 24 1 24 25
M  V30 25 1 16 26
M  V30 26 2 26 27
M  V30 27 2 9 28
M  V30 28 1 28 5
M  V30 29 1 27 10
M  V30 30 1 26 13
M  V30 31 1 25 17
M  V30 32 1 24 19
M  V30 33 1 1 29
M  V30 34 1 1 30
M  V30 35 1 1 31
M  V30 36 1 3 32
M  V30 37 1 3 33
M  V30 38 1 3 34
M  V30 39 1 4 35
M  V30 40 1 4 36
M  V30 41 1 6 37
M  V30 42 1 8 38
M  V30 43 1 11 39
M  V30 44 1 12 40
M  V30 45 1 14 41
M  V30 46 1 18 42
M  V30 47 1 20 43
M  V30 48 1 21 44
M  V30 49 1 22 45
M  V30 50 1 25 46
M  V30 51 1 28 47
M  V30 END BOND
M  V30 END CTAB
M  END
>  <Dataset>  (233) 
ChEMBL_Kinases

>  <Ligand_Instance>  (233) 
nan

>  <PDB_ID>  (233) 
nan

>  <Standardized_SMILES>  (233) 
CN(C)Cc1cncc(-c2ccc3[nH]nc(-c4cc5cccnc5[nH]4)c3n2)c1

>  <Name>  (233) 
nan

>  <Pocket>  (233) 
nan

>  <ATP_Site>  (233) 
nan

>  <Peripheral>  (233) 
nan

>  <Num_H_Atoms_ProtBoundConf>  (233) 
nan

>  <Num_Resolved_Atoms>  (233) 
nan

>  <Num_Not_Resolved_Atoms>  (233) 
nan

$$$$
CHEMBL4128717
     RDKit          3D

  0  0  0  0  0  0  0  0  0  0999 V3000
M  V30 BEGIN CTAB
M  V30 COUNTS 62 66 0 0 0
M  V30 BEGIN ATOM
M  V30 1 C 0.591754 -1.149161 1.225272 0
M  V30 2 C 0.335285 0.293328 0.981682 0
M  V30 3 C 1.410403 1.189331 0.796392 0
M  V30 4 O 2.611141 0.652465 0.847336 0
M  V30 5 C 3.929740 0.809686 0.773814 0
M  V30 6 C 4.588720 1.312095 -0.462585 0
M  V30 7 N 4.268937 2.585374 -0.940801 0
M  V30 8 C 4.712996 3.673517 -0.169234 0
M  V30 9 C 4.485355 4.965069 -0.929369 0
M  V30 10 O 5.114049 4.824448 -2.155474 0
M  V30 11 C 4.405406 3.953664 -2.982491 0
M  V30 12 C 3.858793 2.770253 -2.267527 0
M  V30 13 C 1.175161 2.527437 0.580819 0
M  V30 14 C -0.119495 2.988981 0.546247 0
M  V30 15 C -1.147326 2.097336 0.728941 0
M  V30 16 C -0.972938 0.720127 0.953105 0
M  V30 17 C -2.148450 -0.085290 1.107983 0
M  V30 18 C -2.420889 -1.401972 1.257185 0
M  V30 19 C -3.755978 -1.700041 1.359205 0
M  V30 20 C -4.438385 -2.904607 1.518590 0
M  V30 21 C -3.748428 -4.186650 1.616892 0
M  V30 22 C -4.385681 -5.116836 0.781975 0
M  V30 23 C -3.926229 -6.424682 0.693077 0
M  V30 24 C -2.836819 -6.787039 1.438328 0
M  V30 25 C -2.308150 -8.141616 1.389395 0
M  V30 26 N -2.939766 -9.117824 0.541665 0
M  V30 27 O -1.338017 -8.667618 1.984256 0
M  V30 28 C -2.213756 -5.888182 2.250942 0
M  V30 29 C -2.668307 -4.588764 2.341001 0
M  V30 30 C -5.819204 -2.789117 1.579486 0
M  V30 31 C -6.430019 -1.558346 1.486157 0
M  V30 32 N -5.708077 -0.433035 1.332848 0
M  V30 33 C -4.358969 -0.488110 1.267066 0
M  V30 34 N -3.414792 0.443205 1.121445 0
M  V30 35 H 1.726303 -1.228173 1.329659 0
M  V30 36 H 0.392965 -1.806100 0.385387 0
M  V30 37 H 0.278159 -1.491858 2.234022 0
M  V30 38 H 4.507015 -0.135797 1.055081 0
M  V30 39 H 4.258919 1.505140 1.617517 0
M  V30 40 H 5.714171 1.274873 -0.327182 0
M  V30 41 H 4.441246 0.578541 -1.315081 0
M  V30 42 H 4.330682 3.730209 0.869538 0
M  V30 43 H 5.833443 3.594403 -0.048584 0
M  V30 44 H 4.915062 5.850494 -0.408401 0
M  V30 45 H 3.400216 5.121807 -1.099546 0
M  V30 46 H 3.584891 4.570398 -3.405142 0
M  V30 47 H 5.018175 3.663655 -3.862533 0
M  V30 48 H 2.751425 2.775022 -2.358367 0
M  V30 49 H 4.165681 1.848634 -2.848220 0
M  V30 50 H 1.962604 3.248908 0.439075 0
M  V30 51 H -0.286236 4.028458 0.377817 0
M  V30 52 H -2.131639 2.581359 0.679735 0
M  V30 53 H -1.684519 -2.163095 1.289148 0
M  V30 54 H -5.263298 -4.954829 0.136696 0
M  V30 55 H -4.371906 -7.182571 0.071894 0
M  V30 56 H -3.139386 -8.960094 -0.469312 0
M  V30 57 H -3.307778 -10.086177 0.684212 0
M  V30 58 H -1.357895 -6.126362 2.851761 0
M  V30 59 H -2.271483 -3.781574 2.943320 0
M  V30 60 H -6.411342 -3.680505 1.701976 0
M  V30 61 H -7.517793 -1.433360 1.530842 0
M  V30 62 H -3.726931 1.458926 1.034772 0
M  V30 END ATOM
M  V30 BEGIN BOND
M  V30 1 1 1 2
M  V30 2 2 2 3
M  V30 3 1 3 4
M  V30 4 1 4 5
M  V30 5 1 5 6
M  V30 6 1 6 7
M  V30 7 1 7 8
M  V30 8 1 8 9
M  V30 9 1 9 10
M  V30 10 1 10 11
M  V30 11 1 11 12
M  V30 12 1 3 13
M  V30 13 2 13 14
M  V30 14 1 14 15
M  V30 15 2 15 16
M  V30 16 1 16 17
M  V30 17 2 17 18
M  V30 18 1 18 19
M  V30 19 2 19 20
M  V30 20 1 20 21
M  V30 21 2 21 22
M  V30 22 1 22 23
M  V30 23 2 23 24
M  V30 24 1 24 25
M  V30 25 1 25 26
M  V30 26 2 25 27
M  V30 27 1 24 28
M  V30 28 2 28 29
M  V30 29 1 20 30
M  V30 30 2 30 31
M  V30 31 1 31 32
M  V30 32 2 32 33
M  V30 33 1 33 34
M  V30 34 1 16 2
M  V30 35 1 34 17
M  V30 36 1 12 7
M  V30 37 1 33 19
M  V30 38 1 29 21
M  V30 39 1 1 35
M  V30 40 1 1 36
M  V30 41 1 1 37
M  V30 42 1 5 38
M  V30 43 1 5 39
M  V30 44 1 6 40
M  V30 45 1 6 41
M  V30 46 1 8 42
M  V30 47 1 8 43
M  V30 48 1 9 44
M  V30 49 1 9 45
M  V30 50 1 11 46
M  V30 51 1 11 47
M  V30 52 1 12 48
M  V30 53 1 12 49
M  V30 54 1 13 50
M  V30 55 1 14 51
M  V30 56 1 15 52
M  V30 57 1 18 53
M  V30 58 1 22 54
M  V30 59 1 23 55
M  V30 60 1 26 56
M  V30 61 1 26 57
M  V30 62 1 28 58
M  V30 63 1 29 59
M  V30 64 1 30 60
M  V30 65 1 31 61
M  V30 66 1 34 62
M  V30 END BOND
M  V30 END CTAB
M  END
>  <Dataset>  (234) 
ChEMBL_Kinases

>  <Ligand_Instance>  (234) 
nan

>  <PDB_ID>  (234) 
nan

>  <Standardized_SMILES>  (234) 
Cc1c(OCCN2CCOCC2)cccc1-c1cc2c(-c3ccc(C(N)=O)cc3)ccnc2[nH]1

>  <Name>  (234) 
nan

>  <Pocket>  (234) 
nan

>  <ATP_Site>  (234) 
nan

>  <Peripheral>  (234) 
nan

>  <Num_H_Atoms_ProtBoundConf>  (234) 
nan

>  <Num_Resolved_Atoms>  (234) 
nan

>  <Num_Not_Resolved_Atoms>  (234) 
nan

$$$$
CHEMBL3354512
     RDKit          3D

  0  0  0  0  0  0  0  0  0  0999 V3000
M  V30 BEGIN CTAB
M  V30 COUNTS 44 47 0 0 0
M  V30 BEGIN ATOM
M  V30 1 O 2.030079 -1.876854 -1.241366 0
M  V30 2 C 1.210846 -1.878997 -0.288634 0
M  V30 3 N 1.663286 -1.397202 0.959638 0
M  V30 4 C 3.016237 -0.949893 1.030786 0
M  V30 5 C 3.855743 -2.008900 1.389794 0
M  V30 6 N 5.195869 -1.791862 1.513070 0
M  V30 7 C 5.714249 -0.561512 1.290379 0
M  V30 8 C 4.905426 0.495760 0.935709 0
M  V30 9 C 3.546233 0.323408 0.799477 0
M  V30 10 O 2.524717 1.192952 0.461313 0
M  V30 11 C 2.682252 2.545525 0.160296 0 CFG=2
M  V30 12 C 1.929612 3.451281 1.121445 0
M  V30 13 C 0.587659 3.596220 0.449864 0
M  V30 14 N 0.856026 3.573047 -0.958972 0
M  V30 15 C 2.113510 2.923001 -1.187305 0
M  V30 16 C -0.153169 -2.363096 -0.474497 0
M  V30 17 C -0.510794 -2.825504 -1.740089 0
M  V30 18 S -2.324333 -3.322878 -1.458029 0
M  V30 19 C -2.214653 -2.810465 0.274116 0
M  V30 20 C -3.364765 -2.894909 1.293237 0
M  V30 21 C -3.116279 -2.464193 2.567968 0
M  V30 22 F -1.886850 -1.989003 2.871901 0
M  V30 23 C -4.184643 -2.564445 3.437425 0
M  V30 24 C -5.406218 -3.071503 3.008743 0
M  V30 25 C -5.584350 -3.487178 1.707100 0
M  V30 26 C -4.549673 -3.408863 0.796938 0
M  V30 27 F -4.671101 -3.803577 -0.493660 0
M  V30 28 N -1.121276 -2.425562 0.412437 0
M  V30 29 H 1.047733 -1.363931 1.799479 0
M  V30 30 H 3.565610 -3.026167 1.591821 0
M  V30 31 H 6.748435 -0.319903 1.367981 0
M  V30 32 H 5.196364 1.514236 0.733314 0
M  V30 33 H 3.734819 2.819662 0.224934 0
M  V30 34 H 1.846373 2.969143 2.115693 0
M  V30 35 H 2.426582 4.419927 1.155294 0
M  V30 36 H -0.128766 2.799409 0.784463 0
M  V30 37 H 0.100343 4.554840 0.775782 0
M  V30 38 H 0.070541 3.244541 -1.543672 0
M  V30 39 H 1.986557 2.028430 -1.813634 0
M  V30 40 H 2.789718 3.680230 -1.680040 0
M  V30 41 H 0.063007 -2.920324 -2.741456 0
M  V30 42 H -4.023255 -2.232361 4.456046 0
M  V30 43 H -6.244085 -3.149831 3.692125 0
M  V30 44 H -6.525733 -3.893518 1.320375 0
M  V30 END ATOM
M  V30 BEGIN BOND
M  V30 1 2 1 2
M  V30 2 1 2 3
M  V30 3 1 3 4
M  V30 4 2 4 5
M  V30 5 1 5 6
M  V30 6 2 6 7
M  V30 7 1 7 8
M  V30 8 2 8 9
M  V30 9 1 9 10
M  V30 10 1 10 11
M  V30 11 1 11 12
M  V30 12 1 12 13
M  V30 13 1 13 14
M  V30 14 1 14 15
M  V30 15 1 2 16
M  V30 16 2 16 17
M  V30 17 1 17 18
M  V30 18 1 18 19
M  V30 19 1 19 20
M  V30 20 2 20 21
M  V30 21 1 21 22
M  V30 22 1 21 23
M  V30 23 2 23 24
M  V30 24 1 24 25
M  V30 25 2 25 26
M  V30 26 1 26 27
M  V30 27 2 19 28
M  V30 28 1 9 4
M  V30 29 1 15 11
M  V30 30 1 28 16
M  V30 31 1 26 20
M  V30 32 1 3 29
M  V30 33 1 5 30
M  V30 34 1 7 31
M  V30 35 1 8 32
M  V30 36 1 11 33 CFG=3
M  V30 37 1 12 34
M  V30 38 1 12 35
M  V30 39 1 13 36
M  V30 40 1 13 37
M  V30 41 1 14 38
M  V30 42 1 15 39
M  V30 43 1 15 40
M  V30 44 1 17 41
M  V30 45 1 23 42
M  V30 46 1 24 43
M  V30 47 1 25 44
M  V30 END BOND
M  V30 END CTAB
M  END
>  <Dataset>  (235) 
ChEMBL_Kinases

>  <Ligand_Instance>  (235) 
nan

>  <PDB_ID>  (235) 
nan

>  <Standardized_SMILES>  (235) 
O=C(Nc1cnccc1O[C@@H]1CCNC1)c1csc(-c2c(F)cccc2F)n1

>  <Name>  (235) 
nan

>  <Pocket>  (235) 
nan

>  <ATP_Site>  (235) 
nan

>  <Peripheral>  (235) 
nan

>  <Num_H_Atoms_ProtBoundConf>  (235) 
nan

>  <Num_Resolved_Atoms>  (235) 
nan

>  <Num_Not_Resolved_Atoms>  (235) 
nan

$$$$
CHEMBL4128577
     RDKit          3D

  0  0  0  0  0  0  0  0  0  0999 V3000
M  V30 BEGIN CTAB
M  V30 COUNTS 56 60 0 0 0
M  V30 BEGIN ATOM
M  V30 1 C 1.866012 0.442929 4.920037 0
M  V30 2 O 2.433591 0.167172 3.656268 0
M  V30 3 C 3.785465 -0.046245 3.558225 0
M  V30 4 C 4.589650 0.006261 4.678898 0
M  V30 5 C 5.953770 -0.197347 4.657328 0
M  V30 6 C 6.504584 -0.463810 3.438227 0
M  V30 7 C 5.715569 -0.518559 2.317665 0
M  V30 8 C 4.340179 -0.315320 2.326234 0
M  V30 9 C 3.603209 -0.394923 1.089330 0
M  V30 10 C 2.265044 -0.237173 0.832530 0
M  V30 11 C 1.999550 -0.401615 -0.509935 0
M  V30 12 C 0.907248 -0.370356 -1.350673 0
M  V30 13 C -0.400469 -0.081661 -0.771527 0
M  V30 14 C -0.621651 0.955670 0.109869 0
M  V30 15 C -1.888105 1.160451 0.616593 0
M  V30 16 C -2.876216 0.296007 0.200888 0
M  V30 17 C -4.165208 0.607422 0.796736 0
M  V30 18 N -5.516322 0.191044 0.830842 0
M  V30 19 O -4.364772 1.547175 1.597578 0
M  V30 20 C -2.725293 -0.756288 -0.673456 0
M  V30 21 C -3.844380 -1.621960 -1.052904 0
M  V30 22 C -4.614430 -1.156404 -2.265884 0
M  V30 23 C -5.461695 -2.385627 -2.585895 0
M  V30 24 C -4.749647 -3.567445 -1.917236 0
M  V30 25 C -3.371133 -2.987649 -1.566632 0
M  V30 26 C -1.436842 -0.920736 -1.154172 0
M  V30 27 C 1.022955 -0.596727 -2.715801 0
M  V30 28 C 2.279110 -0.858692 -3.223768 0
M  V30 29 N 3.326871 -0.886558 -2.405143 0
M  V30 30 C 3.200326 -0.666258 -1.089260 0
M  V30 31 N 4.129637 -0.656032 -0.121377 0
M  V30 32 H 2.180604 -0.383306 5.604030 0
M  V30 33 H 2.341146 1.371864 5.307891 0
M  V30 34 H 0.777086 0.511437 4.898749 0
M  V30 35 H 4.126647 0.221367 5.644421 0
M  V30 36 H 6.564625 -0.152058 5.546549 0
M  V30 37 H 7.577340 -0.624876 3.414268 0
M  V30 38 H 6.267728 -0.738219 1.409756 0
M  V30 39 H 1.500915 -0.017116 1.555407 0
M  V30 40 H 0.205987 1.609441 0.397579 0
M  V30 41 H -2.001803 1.973023 1.290816 0
M  V30 42 H -6.021952 -0.604614 1.250427 0
M  V30 43 H -6.030993 -0.604603 1.248881 0
M  V30 44 H -4.495015 -1.776781 -0.169513 0
M  V30 45 H -3.889630 -1.050105 -3.081232 0
M  V30 46 H -5.221831 -0.274172 -2.064798 0
M  V30 47 H -5.564580 -2.557262 -3.657756 0
M  V30 48 H -6.435748 -2.207385 -2.069535 0
M  V30 49 H -5.244769 -3.774093 -0.946669 0
M  V30 50 H -4.687469 -4.446166 -2.567078 0
M  V30 51 H -2.845950 -3.570075 -0.811517 0
M  V30 52 H -2.838072 -2.820876 -2.515963 0
M  V30 53 H -1.251843 -1.735904 -1.849618 0
M  V30 54 H 0.158335 -0.566007 -3.341873 0
M  V30 55 H 2.403095 -1.042049 -4.298117 0
M  V30 56 H 5.163044 -0.834075 -0.295846 0
M  V30 END ATOM
M  V30 BEGIN BOND
M  V30 1 1 1 2
M  V30 2 1 2 3
M  V30 3 2 3 4
M  V30 4 1 4 5
M  V30 5 2 5 6
M  V30 6 1 6 7
M  V30 7 2 7 8
M  V30 8 1 8 9
M  V30 9 2 9 10
M  V30 10 1 10 11
M  V30 11 2 11 12
M  V30 12 1 12 13
M  V30 13 2 13 14
M  V30 14 1 14 15
M  V30 15 2 15 16
M  V30 16 1 16 17
M  V30 17 1 17 18
M  V30 18 2 17 19
M  V30 19 1 16 20
M  V30 20 1 20 21
M  V30 21 1 21 22
M  V30 22 1 22 23
M  V30 23 1 23 24
M  V30 24 1 24 25
M  V30 25 2 20 26
M  V30 26 1 12 27
M  V30 27 2 27 28
M  V30 28 1 28 29
M  V30 29 2 29 30
M  V30 30 1 30 31
M  V30 31 1 8 3
M  V30 32 1 31 9
M  V30 33 1 30 11
M  V30 34 1 26 13
M  V30 35 1 25 21
M  V30 36 1 1 32
M  V30 37 1 1 33
M  V30 38 1 1 34
M  V30 39 1 4 35
M  V30 40 1 5 36
M  V30 41 1 6 37
M  V30 42 1 7 38
M  V30 43 1 10 39
M  V30 44 1 14 40
M  V30 45 1 15 41
M  V30 46 1 18 42
M  V30 47 1 18 43
M  V30 48 1 21 44
M  V30 49 1 22 45
M  V30 50 1 22 46
M  V30 51 1 23 47
M  V30 52 1 23 48
M  V30 53 1 24 49
M  V30 54 1 24 50
M  V30 55 1 25 51
M  V30 56 1 25 52
M  V30 57 1 26 53
M  V30 58 1 27 54
M  V30 59 1 28 55
M  V30 60 1 31 56
M  V30 END BOND
M  V30 END CTAB
M  END
>  <Dataset>  (236) 
ChEMBL_Kinases

>  <Ligand_Instance>  (236) 
nan

>  <PDB_ID>  (236) 
nan

>  <Standardized_SMILES>  (236) 
COc1ccccc1-c1cc2c(-c3ccc(C(N)=O)c(C4CCCC4)c3)ccnc2[nH]1

>  <Name>  (236) 
nan

>  <Pocket>  (236) 
nan

>  <ATP_Site>  (236) 
nan

>  <Peripheral>  (236) 
nan

>  <Num_H_Atoms_ProtBoundConf>  (236) 
nan

>  <Num_Resolved_Atoms>  (236) 
nan

>  <Num_Not_Resolved_Atoms>  (236) 
nan

$$$$
CHEMBL3354513
     RDKit          3D

  0  0  0  0  0  0  0  0  0  0999 V3000
M  V30 BEGIN CTAB
M  V30 COUNTS 47 50 0 0 0
M  V30 BEGIN ATOM
M  V30 1 O 0.573274 0.381579 1.428831 0
M  V30 2 C -0.189183 -0.523095 1.063775 0
M  V30 3 N 0.163906 -1.287979 -0.050511 0
M  V30 4 C 1.239384 -1.300604 -0.934242 0
M  V30 5 C 1.145119 -2.290853 -1.892230 0
M  V30 6 N 2.067141 -2.485350 -2.841230 0
M  V30 7 C 3.162778 -1.720038 -2.928260 0
M  V30 8 C 3.307950 -0.718702 -2.000056 0
M  V30 9 C 2.365626 -0.514057 -1.024140 0
M  V30 10 O 2.471570 0.462906 -0.090204 0
M  V30 11 C 3.511258 1.381742 0.038924 0
M  V30 12 C 3.003619 2.786214 -0.225409 0
M  V30 13 C 2.444762 3.465370 0.990404 0
M  V30 14 N 3.517179 3.525567 1.984865 0
M  V30 15 C 3.673269 2.148564 2.440029 0
M  V30 16 C 4.224703 1.268110 1.372313 0
M  V30 17 C -1.378947 -0.650271 1.886614 0
M  V30 18 C -1.611841 0.177232 2.972154 0
M  V30 19 S -3.268567 -0.463957 3.614628 0
M  V30 20 C -3.292166 -1.749327 2.239630 0
M  V30 21 C -4.429483 -2.728959 2.095642 0
M  V30 22 C -4.311110 -3.606112 1.048380 0
M  V30 23 F -3.216374 -3.551469 0.223150 0
M  V30 24 C -5.348232 -4.505235 0.910857 0
M  V30 25 C -6.413778 -4.486638 1.791936 0
M  V30 26 C -6.480979 -3.572000 2.838527 0
M  V30 27 C -5.462076 -2.658313 3.006572 0
M  V30 28 F -5.477494 -1.745850 4.008973 0
M  V30 29 N -2.335253 -1.531758 1.702853 0
M  V30 30 H -0.637945 -1.982044 -0.155154 0
M  V30 31 H 0.331156 -3.027297 -2.002898 0
M  V30 32 H 3.890177 -1.899811 -3.704327 0
M  V30 33 H 4.205401 -0.140077 -2.122341 0
M  V30 34 H 4.298257 1.213387 -0.721773 0
M  V30 35 H 3.842895 3.434648 -0.611217 0
M  V30 36 H 2.204061 2.678740 -0.992147 0
M  V30 37 H 2.218147 4.515491 0.716115 0
M  V30 38 H 1.594004 2.924112 1.400745 0
M  V30 39 H 3.224073 4.108497 2.797262 0
M  V30 40 H 2.723295 1.771090 2.893423 0
M  V30 41 H 4.417345 2.184365 3.259605 0
M  V30 42 H 5.301298 1.510864 1.264345 0
M  V30 43 H 4.170986 0.223139 1.739105 0
M  V30 44 H -1.014617 1.057170 3.444205 0
M  V30 45 H -5.277722 -5.210875 0.088320 0
M  V30 46 H -7.221789 -5.219286 1.649903 0
M  V30 47 H -7.334990 -3.593098 3.505646 0
M  V30 END ATOM
M  V30 BEGIN BOND
M  V30 1 2 1 2
M  V30 2 1 2 3
M  V30 3 1 3 4
M  V30 4 2 4 5
M  V30 5 1 5 6
M  V30 6 2 6 7
M  V30 7 1 7 8
M  V30 8 2 8 9
M  V30 9 1 9 10
M  V30 10 1 10 11
M  V30 11 1 11 12
M  V30 12 1 12 13
M  V30 13 1 13 14
M  V30 14 1 14 15
M  V30 15 1 15 16
M  V30 16 1 2 17
M  V30 17 2 17 18
M  V30 18 1 18 19
M  V30 19 1 19 20
M  V30 20 1 20 21
M  V30 21 2 21 22
M  V30 22 1 22 23
M  V30 23 1 22 24
M  V30 24 2 24 25
M  V30 25 1 25 26
M  V30 26 2 26 27
M  V30 27 1 27 28
M  V30 28 2 20 29
M  V30 29 1 9 4
M  V30 30 1 16 11
M  V30 31 1 29 17
M  V30 32 1 27 21
M  V30 33 1 3 30
M  V30 34 1 5 31
M  V30 35 1 7 32
M  V30 36 1 8 33
M  V30 37 1 11 34
M  V30 38 1 12 35
M  V30 39 1 12 36
M  V30 40 1 13 37
M  V30 41 1 13 38
M  V30 42 1 14 39
M  V30 43 1 15 40
M  V30 44 1 15 41
M  V30 45 1 16 42
M  V30 46 1 16 43
M  V30 47 1 18 44
M  V30 48 1 24 45
M  V30 49 1 25 46
M  V30 50 1 26 47
M  V30 END BOND
M  V30 END CTAB
M  END
>  <Dataset>  (237) 
ChEMBL_Kinases

>  <Ligand_Instance>  (237) 
nan

>  <PDB_ID>  (237) 
nan

>  <Standardized_SMILES>  (237) 
O=C(Nc1cnccc1OC1CCNCC1)c1csc(-c2c(F)cccc2F)n1

>  <Name>  (237) 
nan

>  <Pocket>  (237) 
nan

>  <ATP_Site>  (237) 
nan

>  <Peripheral>  (237) 
nan

>  <Num_H_Atoms_ProtBoundConf>  (237) 
nan

>  <Num_Resolved_Atoms>  (237) 
nan

>  <Num_Not_Resolved_Atoms>  (237) 
nan

$$$$
CHEMBL4128459
     RDKit          3D

  0  0  0  0  0  0  0  0  0  0999 V3000
M  V30 BEGIN CTAB
M  V30 COUNTS 64 68 0 0 0
M  V30 BEGIN ATOM
M  V30 1 C 2.130500 -1.736343 1.379689 0
M  V30 2 C 2.520555 -0.317923 1.196562 0
M  V30 3 C 3.856742 -0.042331 1.406026 0
M  V30 4 C 4.348371 1.235006 1.279953 0
M  V30 5 C 3.456258 2.224625 0.937354 0
M  V30 6 C 3.975092 3.586239 0.804292 0
M  V30 7 N 4.458598 3.977334 -0.463440 0
M  V30 8 C 3.530636 3.938161 -1.553901 0
M  V30 9 C 3.687194 2.704371 -2.416071 0
M  V30 10 O 4.987944 2.739764 -2.918482 0
M  V30 11 C 5.833980 2.487294 -1.848840 0
M  V30 12 C 5.780049 3.545750 -0.792077 0
M  V30 13 C 2.140595 1.897731 0.740635 0
M  V30 14 C 1.605741 0.636270 0.855311 0
M  V30 15 C 0.203427 0.411415 0.604619 0
M  V30 16 C -0.654538 -0.647314 0.536903 0
M  V30 17 C -1.943052 -0.277416 0.238230 0
M  V30 18 C -3.103591 -1.004031 0.077711 0
M  V30 19 C -3.124054 -2.455517 0.210438 0
M  V30 20 C -2.253426 -3.365733 -0.351054 0
M  V30 21 C -2.398997 -4.718884 -0.129447 0
M  V30 22 C -3.424901 -5.162015 0.660535 0
M  V30 23 C -3.543491 -6.568245 0.861016 0
M  V30 24 N -3.639475 -7.708124 1.007837 0
M  V30 25 C -4.346438 -4.338288 1.266660 0
M  V30 26 C -5.470130 -4.773135 2.131879 0
M  V30 27 C -6.690529 -5.098645 1.297104 0
M  V30 28 C -5.066559 -5.854822 3.075096 0
M  V30 29 C -4.146122 -2.980351 1.004557 0
M  V30 30 C -4.287962 -0.382401 -0.222508 0
M  V30 31 C -4.184827 1.001267 -0.340594 0
M  V30 32 N -3.048693 1.708234 -0.183311 0
M  V30 33 C -1.895615 1.089472 0.110542 0
M  V30 34 N -0.624268 1.441546 0.332993 0
M  V30 35 H 3.012891 -2.346064 1.737760 0
M  V30 36 H 1.814358 -2.193471 0.423143 0
M  V30 37 H 1.350388 -1.869351 2.127007 0
M  V30 38 H 4.556920 -0.813632 1.673799 0
M  V30 39 H 5.399277 1.414122 1.451907 0
M  V30 40 H 3.168554 4.312050 1.098092 0
M  V30 41 H 4.788965 3.787239 1.547311 0
M  V30 42 H 2.472684 4.071196 -1.271204 0
M  V30 43 H 3.769419 4.793577 -2.227580 0
M  V30 44 H 2.935467 2.782918 -3.222448 0
M  V30 45 H 3.593325 1.779677 -1.800243 0
M  V30 46 H 5.574793 1.481071 -1.458520 0
M  V30 47 H 6.863510 2.415322 -2.255239 0
M  V30 48 H 6.293585 3.184545 0.115971 0
M  V30 49 H 6.336238 4.443913 -1.142056 0
M  V30 50 H 1.534742 2.755944 0.478324 0
M  V30 51 H -0.374051 -1.648229 0.691856 0
M  V30 52 H -1.482601 -2.957478 -0.955630 0
M  V30 53 H -1.696371 -5.381023 -0.588533 0
M  V30 54 H -5.770360 -3.872064 2.741279 0
M  V30 55 H -6.554091 -5.976073 0.646027 0
M  V30 56 H -6.877100 -4.229079 0.639299 0
M  V30 57 H -7.555617 -5.215478 1.987501 0
M  V30 58 H -5.581419 -6.800400 2.790412 0
M  V30 59 H -5.462279 -5.638818 4.108372 0
M  V30 60 H -3.976893 -5.949400 3.193577 0
M  V30 61 H -4.868981 -2.306692 1.477568 0
M  V30 62 H -5.234365 -0.887014 -0.361984 0
M  V30 63 H -5.059894 1.607019 -0.577141 0
M  V30 64 H -0.429644 2.477333 0.268871 0
M  V30 END ATOM
M  V30 BEGIN BOND
M  V30 1 1 1 2
M  V30 2 2 2 3
M  V30 3 1 3 4
M  V30 4 2 4 5
M  V30 5 1 5 6
M  V30 6 1 6 7
M  V30 7 1 7 8
M  V30 8 1 8 9
M  V30 9 1 9 10
M  V30 10 1 10 11
M  V30 11 1 11 12
M  V30 12 1 5 13
M  V30 13 2 13 14
M  V30 14 1 14 15
M  V30 15 2 15 16
M  V30 16 1 16 17
M  V30 17 2 17 18
M  V30 18 1 18 19
M  V30 19 2 19 20
M  V30 20 1 20 21
M  V30 21 2 21 22
M  V30 22 1 22 23
M  V30 23 3 23 24
M  V30 24 1 22 25
M  V30 25 1 25 26
M  V30 26 1 26 27
M  V30 27 1 26 28
M  V30 28 2 25 29
M  V30 29 1 18 30
M  V30 30 2 30 31
M  V30 31 1 31 32
M  V30 32 2 32 33
M  V30 33 1 33 34
M  V30 34 1 14 2
M  V30 35 1 34 15
M  V30 36 1 12 7
M  V30 37 1 33 17
M  V30 38 1 29 19
M  V30 39 1 1 35
M  V30 40 1 1 36
M  V30 41 1 1 37
M  V30 42 1 3 38
M  V30 43 1 4 39
M  V30 44 1 6 40
M  V30 45 1 6 41
M  V30 46 1 8 42
M  V30 47 1 8 43
M  V30 48 1 9 44
M  V30 49 1 9 45
M  V30 50 1 11 46
M  V30 51 1 11 47
M  V30 52 1 12 48
M  V30 53 1 12 49
M  V30 54 1 13 50
M  V30 55 1 16 51
M  V30 56 1 20 52
M  V30 57 1 21 53
M  V30 58 1 26 54
M  V30 59 1 27 55
M  V30 60 1 27 56
M  V30 61 1 27 57
M  V30 62 1 28 58
M  V30 63 1 28 59
M  V30 64 1 28 60
M  V30 65 1 29 61
M  V30 66 1 30 62
M  V30 67 1 31 63
M  V30 68 1 34 64
M  V30 END BOND
M  V30 END CTAB
M  END
>  <Dataset>  (238) 
ChEMBL_Kinases

>  <Ligand_Instance>  (238) 
nan

>  <PDB_ID>  (238) 
nan

>  <Standardized_SMILES>  (238) 
Cc1ccc(CN2CCOCC2)cc1-c1cc2c(-c3ccc(C#N)c(C(C)C)c3)ccnc2[nH]1

>  <Name>  (238) 
nan

>  <Pocket>  (238) 
nan

>  <ATP_Site>  (238) 
nan

>  <Peripheral>  (238) 
nan

>  <Num_H_Atoms_ProtBoundConf>  (238) 
nan

>  <Num_Resolved_Atoms>  (238) 
nan

>  <Num_Not_Resolved_Atoms>  (238) 
nan

$$$$
CHEMBL4791855
     RDKit          3D

  0  0  0  0  0  0  0  0  0  0999 V3000
M  V30 BEGIN CTAB
M  V30 COUNTS 57 63 0 0 0
M  V30 BEGIN ATOM
M  V30 1 C 2.516863 -2.858363 0.554258 0
M  V30 2 N 2.688827 -1.530979 -0.073123 0
M  V30 3 C 4.078198 -1.207939 0.184587 0
M  V30 4 C 4.549774 0.124592 -0.243214 0
M  V30 5 C 3.982761 1.313890 0.429823 0
M  V30 6 N 2.568416 1.441147 0.217282 0
M  V30 7 C 1.878851 1.919589 1.281120 0
M  V30 8 C 0.567422 2.026186 0.970754 0
M  V30 9 N 0.441554 1.614156 -0.281527 0
M  V30 10 N 1.663884 1.265252 -0.716012 0
M  V30 11 C -0.691537 2.441602 1.543553 0
M  V30 12 N -0.611826 3.727182 1.829830 0
M  V30 13 C -1.625386 4.463704 2.381223 0
M  V30 14 C -2.806062 3.776007 2.644325 0
M  V30 15 C -2.906779 2.425912 2.349826 0
M  V30 16 N -3.872379 1.466546 2.460109 0
M  V30 17 C -3.422219 0.287267 2.001498 0
M  V30 18 N -2.175750 0.484866 1.599563 0
M  V30 19 C -1.849641 1.764212 1.801043 0
M  V30 20 C -3.954525 -1.039570 1.851971 0
M  V30 21 N -5.004319 -1.600784 2.472011 0
M  V30 22 N -5.133096 -2.837180 2.022417 0
M  V30 23 C -4.175686 -3.130660 1.094478 0
M  V30 24 C -3.914403 -4.277151 0.363195 0
M  V30 25 C -2.841649 -4.248544 -0.512688 0
M  V30 26 C -2.117577 -3.072883 -0.584420 0
M  V30 27 C -2.378569 -1.934410 0.142155 0
M  V30 28 C -3.428816 -1.977164 0.993035 0
M  V30 29 C -0.989207 -3.125370 -1.520642 0
M  V30 30 C -1.028559 -3.781963 -2.726902 0
M  V30 31 N 0.074839 -3.760960 -3.480521 0
M  V30 32 C 1.160459 -3.103853 -3.024794 0
M  V30 33 C 1.278424 -2.419158 -1.821918 0
M  V30 34 C 0.125271 -2.460459 -1.071883 0
M  V30 35 C 2.557188 -1.779586 -1.510841 0
M  V30 36 H 3.465287 -3.245929 0.964000 0
M  V30 37 H 1.819048 -2.796587 1.417255 0
M  V30 38 H 2.128225 -3.551743 -0.206446 0
M  V30 39 H 4.226737 -1.266333 1.305784 0
M  V30 40 H 4.721807 -2.043577 -0.193761 0
M  V30 41 H 4.458657 0.287925 -1.351045 0
M  V30 42 H 5.674368 0.129383 -0.089880 0
M  V30 43 H 4.448161 2.213114 -0.086793 0
M  V30 44 H 4.227906 1.358729 1.522563 0
M  V30 45 H 2.112778 2.227479 2.285726 0
M  V30 46 H -1.589229 5.513157 2.624350 0
M  V30 47 H -3.707433 4.223487 3.083847 0
M  V30 48 H -4.819257 1.644389 2.848558 0
M  V30 49 H -5.865185 -3.527415 2.320239 0
M  V30 50 H -4.524417 -5.176356 0.464882 0
M  V30 51 H -2.570734 -5.120441 -1.130847 0
M  V30 52 H -1.716273 -1.100816 -0.035738 0
M  V30 53 H -1.990792 -4.249529 -2.914479 0
M  V30 54 H 1.995067 -3.166504 -3.741468 0
M  V30 55 H 0.231129 -1.925203 -0.145489 0
M  V30 56 H 2.692388 -0.894561 -2.123471 0
M  V30 57 H 3.439035 -2.441555 -1.746268 0
M  V30 END ATOM
M  V30 BEGIN BOND
M  V30 1 1 1 2
M  V30 2 1 2 3
M  V30 3 1 3 4
M  V30 4 1 4 5
M  V30 5 1 5 6
M  V30 6 1 6 7
M  V30 7 2 7 8
M  V30 8 1 8 9
M  V30 9 2 9 10
M  V30 10 1 8 11
M  V30 11 2 11 12
M  V30 12 1 12 13
M  V30 13 2 13 14
M  V30 14 1 14 15
M  V30 15 1 15 16
M  V30 16 1 16 17
M  V30 17 2 17 18
M  V30 18 1 18 19
M  V30 19 1 17 20
M  V30 20 2 20 21
M  V30 21 1 21 22
M  V30 22 1 22 23
M  V30 23 2 23 24
M  V30 24 1 24 25
M  V30 25 2 25 26
M  V30 26 1 26 27
M  V30 27 2 27 28
M  V30 28 1 26 29
M  V30 29 2 29 30
M  V30 30 1 30 31
M  V30 31 2 31 32
M  V30 32 1 32 33
M  V30 33 2 33 34
M  V30 34 1 33 35
M  V30 35 1 35 2
M  V30 36 1 10 6
M  V30 37 1 19 11
M  V30 38 1 28 20
M  V30 39 1 34 29
M  V30 40 2 19 15
M  V30 41 1 28 23
M  V30 42 1 1 36
M  V30 43 1 1 37
M  V30 44 1 1 38
M  V30 45 1 3 39
M  V30 46 1 3 40
M  V30 47 1 4 41
M  V30 48 1 4 42
M  V30 49 1 5 43
M  V30 50 1 5 44
M  V30 51 1 7 45
M  V30 52 1 13 46
M  V30 53 1 14 47
M  V30 54 1 16 48
M  V30 55 1 22 49
M  V30 56 1 24 50
M  V30 57 1 25 51
M  V30 58 1 27 52
M  V30 59 1 30 53
M  V30 60 1 32 54
M  V30 61 1 34 55
M  V30 62 1 35 56
M  V30 63 1 35 57
M  V30 END BOND
M  V30 END CTAB
M  END
>  <Dataset>  (239) 
ChEMBL_Kinases

>  <Ligand_Instance>  (239) 
nan

>  <PDB_ID>  (239) 
nan

>  <Standardized_SMILES>  (239) 
CN1CCCn2cc(nn2)-c2nccc3[nH]c(nc23)-c2n[nH]c3ccc(cc23)-c2cncc(c2)C1

>  <Name>  (239) 
nan

>  <Pocket>  (239) 
nan

>  <ATP_Site>  (239) 
nan

>  <Peripheral>  (239) 
nan

>  <Num_H_Atoms_ProtBoundConf>  (239) 
nan

>  <Num_Resolved_Atoms>  (239) 
nan

>  <Num_Not_Resolved_Atoms>  (239) 
nan

$$$$
CHEMBL4791671
     RDKit          3D

  0  0  0  0  0  0  0  0  0  0999 V3000
M  V30 BEGIN CTAB
M  V30 COUNTS 55 60 0 0 0
M  V30 BEGIN ATOM
M  V30 1 C 3.953174 -4.235365 8.873680 0
M  V30 2 N 3.779878 -3.810065 7.490352 0
M  V30 3 C 3.414324 -2.604111 6.966381 0
M  V30 4 C 3.392141 -2.704371 5.585456 0
M  V30 5 C 3.041783 -1.601084 4.677887 0
M  V30 6 C 3.397686 -0.355202 5.157327 0
M  V30 7 C 3.116357 0.766873 4.384492 0
M  V30 8 C 2.485669 0.606881 3.152132 0
M  V30 9 C 2.190830 1.703528 2.357114 0
M  V30 10 N 1.581027 1.505701 1.173650 0
M  V30 11 C 1.238245 0.286466 0.715550 0
M  V30 12 N 0.599753 0.264945 -0.556608 0
M  V30 13 C 1.103679 0.163396 -1.867346 0
M  V30 14 O 2.331815 0.067128 -2.099255 0
M  V30 15 C 0.190405 0.168335 -3.000202 0
M  V30 16 C 0.734772 0.059574 -4.262215 0
M  V30 17 C -0.152016 0.066682 -5.326979 0
M  V30 18 N -1.508289 0.172239 -5.217394 0
M  V30 19 C -2.044186 0.279579 -3.969297 0
M  V30 20 N -3.446000 0.392988 -3.767492 0
M  V30 21 C -4.089124 0.519027 -2.446684 0
M  V30 22 C -5.562016 0.578973 -2.772893 0
M  V30 23 C -5.481014 1.379994 -4.072519 0
M  V30 24 C -4.494398 0.409216 -4.735570 0
M  V30 25 C -5.293487 -0.863329 -4.544901 0
M  V30 26 N -5.947901 -0.708244 -3.255249 0
M  V30 27 C -1.174622 0.273465 -2.909838 0
M  V30 28 C 1.518648 -0.826039 1.484723 0
M  V30 29 C 2.146187 -0.667653 2.711001 0
M  V30 30 C 2.416148 -1.796394 3.462268 0
M  V30 31 C 3.755174 -4.005458 5.299716 0
M  V30 32 N 3.980189 -4.639231 6.466737 0
M  V30 33 H 3.300810 -5.108401 9.034524 0
M  V30 34 H 5.019218 -4.407611 9.124587 0
M  V30 35 H 3.612323 -3.408494 9.543340 0
M  V30 36 H 3.197879 -1.769148 7.593842 0
M  V30 37 H 3.888882 -0.195957 6.111165 0
M  V30 38 H 3.380450 1.760808 4.727457 0
M  V30 39 H 2.465021 2.686478 2.722028 0
M  V30 40 H -0.409244 0.346982 -0.304854 0
M  V30 41 H 1.791944 -0.029805 -4.472589 0
M  V30 42 H 0.160021 -0.012783 -6.369568 0
M  V30 43 H -3.901360 -0.479692 -1.970171 0
M  V30 44 H -3.714170 1.365270 -1.871956 0
M  V30 45 H -6.182075 1.010499 -2.006245 0
M  V30 46 H -6.439598 1.418052 -4.596334 0
M  V30 47 H -5.014473 2.375013 -3.906360 0
M  V30 48 H -4.244088 0.655343 -5.753799 0
M  V30 49 H -4.663923 -1.778391 -4.593926 0
M  V30 50 H -6.094750 -0.903242 -5.330569 0
M  V30 51 H -6.973436 -0.762262 -3.315004 0
M  V30 52 H -1.624048 0.359940 -1.930884 0
M  V30 53 H 1.236979 -1.780655 1.099603 0
M  V30 54 H 2.166088 -2.796695 3.148582 0
M  V30 55 H 3.811801 -4.334629 4.270355 0
M  V30 END ATOM
M  V30 BEGIN BOND
M  V30 1 1 1 2
M  V30 2 1 2 3
M  V30 3 2 3 4
M  V30 4 1 4 5
M  V30 5 2 5 6
M  V30 6 1 6 7
M  V30 7 2 7 8
M  V30 8 1 8 9
M  V30 9 2 9 10
M  V30 10 1 10 11
M  V30 11 1 11 12
M  V30 12 1 12 13
M  V30 13 2 13 14
M  V30 14 1 13 15
M  V30 15 2 15 16
M  V30 16 1 16 17
M  V30 17 2 17 18
M  V30 18 1 18 19
M  V30 19 1 19 20
M  V30 20 1 20 21
M  V30 21 1 21 22
M  V30 22 1 22 23
M  V30 23 1 23 24
M  V30 24 1 24 25
M  V30 25 1 25 26
M  V30 26 2 19 27
M  V30 27 2 11 28
M  V30 28 1 28 29
M  V30 29 2 29 30
M  V30 30 1 4 31
M  V30 31 2 31 32
M  V30 32 1 32 2
M  V30 33 1 30 5
M  V30 34 1 29 8
M  V30 35 1 27 15
M  V30 36 1 24 20
M  V30 37 1 26 22
M  V30 38 1 1 33
M  V30 39 1 1 34
M  V30 40 1 1 35
M  V30 41 1 3 36
M  V30 42 1 6 37
M  V30 43 1 7 38
M  V30 44 1 9 39
M  V30 45 1 12 40
M  V30 46 1 16 41
M  V30 47 1 17 42
M  V30 48 1 21 43
M  V30 49 1 21 44
M  V30 50 1 22 45
M  V30 51 1 23 46
M  V30 52 1 23 47
M  V30 53 1 24 48
M  V30 54 1 25 49
M  V30 55 1 25 50
M  V30 56 1 26 51
M  V30 57 1 27 52
M  V30 58 1 28 53
M  V30 59 1 30 54
M  V30 60 1 31 55
M  V30 END BOND
M  V30 END CTAB
M  END
>  <Dataset>  (240) 
ChEMBL_Kinases

>  <Ligand_Instance>  (240) 
nan

>  <PDB_ID>  (240) 
nan

>  <Standardized_SMILES>  (240) 
Cn1cc(-c2ccc3cnc(NC(=O)c4ccnc(N5CC6CC5CN6)c4)cc3c2)cn1

>  <Name>  (240) 
nan

>  <Pocket>  (240) 
nan

>  <ATP_Site>  (240) 
nan

>  <Peripheral>  (240) 
nan

>  <Num_H_Atoms_ProtBoundConf>  (240) 
nan

>  <Num_Resolved_Atoms>  (240) 
nan

>  <Num_Not_Resolved_Atoms>  (240) 
nan

$$$$
CHEMBL4077447
     RDKit          3D

  0  0  0  0  0  0  0  0  0  0999 V3000
M  V30 BEGIN CTAB
M  V30 COUNTS 49 52 0 0 0
M  V30 BEGIN ATOM
M  V30 1 O 0.467760 -0.146264 -0.102724 0
M  V30 2 C 0.688165 1.044707 0.215905 0
M  V30 3 N 0.961145 1.833710 -0.908132 0
M  V30 4 C 1.103143 1.890854 -2.332549 0
M  V30 5 C 2.140762 0.934718 -2.796713 0
M  V30 6 C 3.415922 1.482011 -2.822532 0
M  V30 7 C 4.471707 0.643225 -3.182216 0
M  V30 8 C 4.300200 -0.667227 -3.502647 0
M  V30 9 C 3.021459 -1.228982 -3.481208 0
M  V30 10 C 1.961247 -0.390288 -3.121783 0
M  V30 11 Cl 0.348738 -1.050430 -3.163075 0
M  V30 12 C 0.653344 1.499362 1.593974 0
M  V30 13 C 0.759640 2.805552 1.990689 0
M  V30 14 C 0.711137 3.063319 3.342706 0
M  V30 15 C 0.564972 2.081167 4.281583 0
M  V30 16 C 0.455513 0.741148 3.889330 0
M  V30 17 N 0.308332 -0.314124 4.809006 0
M  V30 18 C 0.173570 -1.730259 4.679990 0
M  V30 19 C -1.018895 -2.210405 3.971748 0
M  V30 20 N -2.187160 -2.350699 4.628995 0
M  V30 21 N -3.105494 -2.812716 3.797435 0
M  V30 22 C -2.590083 -2.993169 2.576753 0
M  V30 23 C -3.248679 -3.489853 1.386482 0
M  V30 24 C -2.593682 -3.654883 0.194708 0
M  V30 25 C -3.322882 -4.137687 -0.871886 0
M  V30 26 N -4.622758 -4.445745 -0.788464 0
M  V30 27 C -5.317697 -4.303333 0.358072 0
M  V30 28 C -4.596837 -3.821407 1.429217 0
M  V30 29 N -1.322418 -2.618573 2.716062 0
M  V30 30 C 0.506651 0.518621 2.543850 0
M  V30 31 H 1.148200 2.829803 -0.544137 0
M  V30 32 H 1.313480 2.889204 -2.722284 0
M  V30 33 H 0.101769 1.624671 -2.778098 0
M  V30 34 H 3.758953 2.475971 -2.607628 0
M  V30 35 H 5.516739 0.937553 -3.244020 0
M  V30 36 H 5.091593 -1.360318 -3.787716 0
M  V30 37 H 2.797343 -2.265515 -3.722044 0
M  V30 38 H 0.874451 3.593543 1.276717 0
M  V30 39 H 0.791938 4.093902 3.697342 0
M  V30 40 H 0.531105 2.322534 5.355574 0
M  V30 41 H 0.297740 0.032974 5.820096 0
M  V30 42 H 1.097983 -2.162157 4.156140 0
M  V30 43 H 0.210200 -2.234158 5.665699 0
M  V30 44 H -1.533319 -3.399531 0.141526 0
M  V30 45 H -2.834564 -4.281270 -1.828008 0
M  V30 46 H -6.365239 -4.547247 0.438629 0
M  V30 47 H -5.131834 -3.694873 2.372376 0
M  V30 48 H -0.588379 -2.621245 1.973996 0
M  V30 49 H 0.427920 -0.513644 2.248863 0
M  V30 END ATOM
M  V30 BEGIN BOND
M  V30 1 2 1 2
M  V30 2 1 2 3
M  V30 3 1 3 4
M  V30 4 1 4 5
M  V30 5 2 5 6
M  V30 6 1 6 7
M  V30 7 2 7 8
M  V30 8 1 8 9
M  V30 9 2 9 10
M  V30 10 1 10 11
M  V30 11 1 2 12
M  V30 12 2 12 13
M  V30 13 1 13 14
M  V30 14 2 14 15
M  V30 15 1 15 16
M  V30 16 1 16 17
M  V30 17 1 17 18
M  V30 18 1 18 19
M  V30 19 2 19 20
M  V30 20 1 20 21
M  V30 21 2 21 22
M  V30 22 1 22 23
M  V30 23 2 23 24
M  V30 24 1 24 25
M  V30 25 2 25 26
M  V30 26 1 26 27
M  V30 27 2 27 28
M  V30 28 1 22 29
M  V30 29 2 16 30
M  V30 30 1 10 5
M  V30 31 1 30 12
M  V30 32 1 29 19
M  V30 33 1 28 23
M  V30 34 1 3 31
M  V30 35 1 4 32
M  V30 36 1 4 33
M  V30 37 1 6 34
M  V30 38 1 7 35
M  V30 39 1 8 36
M  V30 40 1 9 37
M  V30 41 1 13 38
M  V30 42 1 14 39
M  V30 43 1 15 40
M  V30 44 1 17 41
M  V30 45 1 18 42
M  V30 46 1 18 43
M  V30 47 1 24 44
M  V30 48 1 25 45
M  V30 49 1 27 46
M  V30 50 1 28 47
M  V30 51 1 29 48
M  V30 52 1 30 49
M  V30 END BOND
M  V30 END CTAB
M  END
>  <Dataset>  (241) 
ChEMBL_Kinases

>  <Ligand_Instance>  (241) 
nan

>  <PDB_ID>  (241) 
nan

>  <Standardized_SMILES>  (241) 
O=C(NCc1ccccc1Cl)c1cccc(NCc2nnc(-c3ccncc3)[nH]2)c1

>  <Name>  (241) 
nan

>  <Pocket>  (241) 
nan

>  <ATP_Site>  (241) 
nan

>  <Peripheral>  (241) 
nan

>  <Num_H_Atoms_ProtBoundConf>  (241) 
nan

>  <Num_Resolved_Atoms>  (241) 
nan

>  <Num_Not_Resolved_Atoms>  (241) 
nan

$$$$
CHEMBL4077977
     RDKit          3D

  0  0  0  0  0  0  0  0  0  0999 V3000
M  V30 BEGIN CTAB
M  V30 COUNTS 34 36 0 0 0
M  V30 BEGIN ATOM
M  V30 1 N 0.386445 -2.603303 4.050368 0
M  V30 2 C 1.671980 -2.412040 3.472490 0
M  V30 3 O 2.579841 -3.050117 4.030888 0
M  V30 4 C 1.885375 -1.534794 2.319627 0
M  V30 5 C 3.177374 -1.432841 1.851630 0
M  V30 6 C 3.356465 -0.602701 0.766754 0
M  V30 7 Cl 4.973087 -0.425143 0.118680 0
M  V30 8 C 2.257094 0.053173 0.236689 0
M  V30 9 C 2.232771 0.932768 -0.851880 0
M  V30 10 Cl 3.621961 1.409168 -1.811596 0
M  V30 11 C 0.889730 1.298541 -0.952757 0
M  V30 12 I 0.325825 2.644699 -2.464423 0
M  V30 13 N 0.127916 0.719980 -0.031975 0
M  V30 14 C -1.267112 0.826284 0.205777 0
M  V30 15 C -1.810461 -0.394669 0.977623 0
M  V30 16 C -1.744603 -1.609919 0.114552 0
M  V30 17 N -2.684956 -1.447003 -1.008361 0
M  V30 18 C -2.112509 -0.362190 -1.827113 0
M  V30 19 C -2.161220 0.895651 -0.984765 0
M  V30 20 C 0.969196 -0.058787 0.715951 0
M  V30 21 N 0.855787 -0.877348 1.769132 0
M  V30 22 H 0.144495 -1.970507 4.863792 0
M  V30 23 H -0.424745 -3.233616 3.878067 0
M  V30 24 H 4.033242 -1.945353 2.266673 0
M  V30 25 H -1.489998 1.678621 0.869736 0
M  V30 26 H -2.911862 -0.150225 1.079094 0
M  V30 27 H -1.443729 -0.474558 1.988509 0
M  V30 28 H -1.998117 -2.498065 0.696397 0
M  V30 29 H -0.731012 -1.746854 -0.335308 0
M  V30 30 H -3.557567 -1.085600 -0.597022 0
M  V30 31 H -2.749723 -0.164096 -2.705080 0
M  V30 32 H -1.068480 -0.580081 -2.065495 0
M  V30 33 H -3.217305 0.894551 -0.560727 0
M  V30 34 H -2.116790 1.762889 -1.617684 0
M  V30 END ATOM
M  V30 BEGIN BOND
M  V30 1 1 1 2
M  V30 2 2 2 3
M  V30 3 1 2 4
M  V30 4 2 4 5
M  V30 5 1 5 6
M  V30 6 1 6 7
M  V30 7 2 6 8
M  V30 8 1 8 9
M  V30 9 1 9 10
M  V30 10 2 9 11
M  V30 11 1 11 12
M  V30 12 1 11 13
M  V30 13 1 13 14
M  V30 14 1 14 15
M  V30 15 1 15 16
M  V30 16 1 16 17
M  V30 17 1 17 18
M  V30 18 1 18 19
M  V30 19 1 13 20
M  V30 20 2 20 21
M  V30 21 1 21 4
M  V30 22 1 20 8
M  V30 23 1 19 14
M  V30 24 1 1 22
M  V30 25 1 1 23
M  V30 26 1 5 24
M  V30 27 1 14 25
M  V30 28 1 15 26
M  V30 29 1 15 27
M  V30 30 1 16 28
M  V30 31 1 16 29
M  V30 32 1 17 30
M  V30 33 1 18 31
M  V30 34 1 18 32
M  V30 35 1 19 33
M  V30 36 1 19 34
M  V30 END BOND
M  V30 END CTAB
M  END
>  <Dataset>  (242) 
ChEMBL_Kinases

>  <Ligand_Instance>  (242) 
nan

>  <PDB_ID>  (242) 
nan

>  <Standardized_SMILES>  (242) 
NC(=O)c1cc(Cl)c2c(Cl)c(I)n(C3CCNCC3)c2n1

>  <Name>  (242) 
nan

>  <Pocket>  (242) 
nan

>  <ATP_Site>  (242) 
nan

>  <Peripheral>  (242) 
nan

>  <Num_H_Atoms_ProtBoundConf>  (242) 
nan

>  <Num_Resolved_Atoms>  (242) 
nan

>  <Num_Not_Resolved_Atoms>  (242) 
nan

$$$$
CHEMBL3609327
     RDKit          3D

  0  0  0  0  0  0  0  0  0  0999 V3000
M  V30 BEGIN CTAB
M  V30 COUNTS 67 72 0 0 0
M  V30 BEGIN ATOM
M  V30 1 C 4.664179 -1.495798 2.720949 0
M  V30 2 C 3.514488 -1.145388 3.598783 0
M  V30 3 N 2.691865 -0.061357 3.115094 0
M  V30 4 C 3.004126 1.208130 3.479160 0
M  V30 5 O 3.991205 1.475225 4.227275 0
M  V30 6 C 2.266233 2.294256 3.058002 0
M  V30 7 C 2.511164 3.679003 3.385923 0
M  V30 8 C 1.988413 4.385124 4.477182 0
M  V30 9 C 2.282816 5.705536 4.696916 0
M  V30 10 C 3.121065 6.289034 3.780101 0
M  V30 11 C 3.489393 7.698953 3.930382 0
M  V30 12 C 4.254460 8.633375 3.291326 0
M  V30 13 N 4.254477 9.826392 3.858597 0
M  V30 14 C 3.737108 10.217640 4.777165 0
M  V30 15 S 2.786368 8.661471 5.383818 0
M  V30 16 C 3.679552 5.692946 2.691191 0
M  V30 17 C 3.360425 4.343709 2.492767 0
M  V30 18 Cl 4.060289 3.518754 1.089401 0
M  V30 19 C 1.161873 2.063824 2.228480 0
M  V30 20 C 0.876411 0.770517 1.881254 0
M  V30 21 C -0.185013 0.499964 1.079091 0
M  V30 22 N -0.432974 -0.776604 0.761087 0
M  V30 23 C 0.263952 -1.846895 1.153519 0
M  V30 24 N 0.028206 -3.207526 0.830413 0
M  V30 25 C -1.020289 -3.710889 0.018985 0
M  V30 26 C -2.040409 -2.986007 -0.548352 0
M  V30 27 C -3.052251 -3.475327 -1.339961 0
M  V30 28 C -3.061372 -4.822111 -1.601342 0
M  V30 29 N -4.051887 -5.481681 -2.407858 0
M  V30 30 C -4.132729 -6.849813 -2.863486 0
M  V30 31 C -4.222518 -6.947620 -4.368055 0
M  V30 32 N -5.193368 -6.085439 -4.961492 0
M  V30 33 C -5.132496 -6.129421 -6.408135 0
M  V30 34 C -5.187151 -4.749331 -4.452179 0
M  V30 35 C -5.229117 -4.819855 -2.931768 0
M  V30 36 C -2.056694 -5.631672 -1.060503 0
M  V30 37 C -1.072695 -5.058857 -0.272339 0
M  V30 38 N 1.303894 -1.535148 1.944659 0
M  V30 39 C 1.635773 -0.292184 2.320457 0
M  V30 40 H 5.407091 -2.032802 3.381416 0
M  V30 41 H 4.433862 -2.192858 1.900152 0
M  V30 42 H 5.215424 -0.586024 2.382517 0
M  V30 43 H 2.881510 -2.064984 3.687007 0
M  V30 44 H 3.875262 -0.953526 4.630562 0
M  V30 45 H 1.340694 3.801495 5.121476 0
M  V30 46 H 1.857764 6.212776 5.551257 0
M  V30 47 H 4.724504 8.171414 2.406198 0
M  V30 48 H 4.028121 11.388933 4.922170 0
M  V30 49 H 4.334764 6.193610 1.995652 0
M  V30 50 H 0.549664 2.872729 1.869192 0
M  V30 51 H -0.813331 1.293763 0.706700 0
M  V30 52 H 0.695460 -3.904474 1.233562 0
M  V30 53 H -2.083501 -1.934952 -0.377474 0
M  V30 54 H -3.809872 -2.849127 -1.746664 0
M  V30 55 H -3.262327 -7.471903 -2.512142 0
M  V30 56 H -5.049160 -7.295984 -2.437997 0
M  V30 57 H -4.484967 -7.990912 -4.671805 0
M  V30 58 H -3.210337 -6.727965 -4.772767 0
M  V30 59 H -4.119530 -5.788219 -6.732794 0
M  V30 60 H -5.840006 -5.339071 -6.775324 0
M  V30 61 H -5.358401 -7.124126 -6.800580 0
M  V30 62 H -4.266095 -4.241662 -4.800847 0
M  V30 63 H -6.099767 -4.234473 -4.797591 0
M  V30 64 H -5.373956 -3.790772 -2.577423 0
M  V30 65 H -6.175264 -5.360956 -2.691364 0
M  V30 66 H -1.959017 -6.700887 -1.194834 0
M  V30 67 H -0.284598 -5.704193 0.150012 0
M  V30 END ATOM
M  V30 BEGIN BOND
M  V30 1 1 1 2
M  V30 2 1 2 3
M  V30 3 1 3 4
M  V30 4 2 4 5
M  V30 5 1 4 6
M  V30 6 1 6 7
M  V30 7 2 7 8
M  V30 8 1 8 9
M  V30 9 2 9 10
M  V30 10 1 10 11
M  V30 11 2 11 12
M  V30 12 1 12 13
M  V30 13 2 13 14
M  V30 14 1 14 15
M  V30 15 1 10 16
M  V30 16 2 16 17
M  V30 17 1 17 18
M  V30 18 2 6 19
M  V30 19 1 19 20
M  V30 20 2 20 21
M  V30 21 1 21 22
M  V30 22 2 22 23
M  V30 23 1 23 24
M  V30 24 1 24 25
M  V30 25 2 25 26
M  V30 26 1 26 27
M  V30 27 2 27 28
M  V30 28 1 28 29
M  V30 29 1 29 30
M  V30 30 1 30 31
M  V30 31 1 31 32
M  V30 32 1 32 33
M  V30 33 1 32 34
M  V30 34 1 34 35
M  V30 35 1 28 36
M  V30 36 2 36 37
M  V30 37 1 23 38
M  V30 38 2 38 39
M  V30 39 1 39 3
M  V30 40 1 17 7
M  V30 41 1 39 20
M  V30 42 1 15 11
M  V30 43 1 37 25
M  V30 44 1 35 29
M  V30 45 1 1 40
M  V30 46 1 1 41
M  V30 47 1 1 42
M  V30 48 1 2 43
M  V30 49 1 2 44
M  V30 50 1 8 45
M  V30 51 1 9 46
M  V30 52 1 12 47
M  V30 53 1 14 48
M  V30 54 1 16 49
M  V30 55 1 19 50
M  V30 56 1 21 51
M  V30 57 1 24 52
M  V30 58 1 26 53
M  V30 59 1 27 54
M  V30 60 1 30 55
M  V30 61 1 30 56
M  V30 62 1 31 57
M  V30 63 1 31 58
M  V30 64 1 33 59
M  V30 65 1 33 60
M  V30 66 1 33 61
M  V30 67 1 34 62
M  V30 68 1 34 63
M  V30 69 1 35 64
M  V30 70 1 35 65
M  V30 71 1 36 66
M  V30 72 1 37 67
M  V30 END BOND
M  V30 END CTAB
M  END
>  <Dataset>  (243) 
ChEMBL_Kinases

>  <Ligand_Instance>  (243) 
nan

>  <PDB_ID>  (243) 
nan

>  <Standardized_SMILES>  (243) 
CCn1c(=O)c(-c2ccc(-c3cncs3)cc2Cl)cc2cnc(Nc3ccc(N4CCN(C)CC4)cc3)nc21

>  <Name>  (243) 
nan

>  <Pocket>  (243) 
nan

>  <ATP_Site>  (243) 
nan

>  <Peripheral>  (243) 
nan

>  <Num_H_Atoms_ProtBoundConf>  (243) 
nan

>  <Num_Resolved_Atoms>  (243) 
nan

>  <Num_Not_Resolved_Atoms>  (243) 
nan

$$$$
CHEMBL4078550
     RDKit          3D

  0  0  0  0  0  0  0  0  0  0999 V3000
M  V30 BEGIN CTAB
M  V30 COUNTS 43 46 0 0 0
M  V30 BEGIN ATOM
M  V30 1 C -1.249322 -7.197941 1.858689 0
M  V30 2 C -0.879497 -5.941615 1.152919 0
M  V30 3 O -1.535833 -4.887607 1.368312 0
M  V30 4 N 0.193089 -5.773765 0.203843 0
M  V30 5 C 0.170927 -4.397106 -0.212365 0
M  V30 6 C 0.942035 -3.544059 0.553199 0
M  V30 7 C 1.007113 -2.181291 0.254785 0
M  V30 8 C 0.267344 -1.752991 -0.830269 0
M  V30 9 C 0.326311 -0.312507 -1.158171 0
M  V30 10 C 0.200239 0.118702 -2.483505 0
M  V30 11 N 0.263476 1.453774 -2.715131 0
M  V30 12 C 0.439854 2.350149 -1.727886 0
M  V30 13 N 0.530192 3.707288 -1.735588 0
M  V30 14 C 0.707557 4.148183 -0.474295 0
M  V30 15 C 0.740535 3.081706 0.419274 0
M  V30 16 C 0.912552 3.088199 1.867684 0
M  V30 17 C 1.804164 2.172404 2.383855 0
M  V30 18 C 2.049711 2.085067 3.758149 0
M  V30 19 C 1.368499 2.951626 4.610592 0
M  V30 20 O 1.593448 2.888444 5.995874 0
M  V30 21 C 0.471430 3.874270 4.099827 0
M  V30 22 C 0.246104 3.939383 2.726639 0
M  V30 23 C 0.571285 1.979124 -0.392316 0
M  V30 24 C 0.506081 0.635843 -0.172179 0
M  V30 25 C -0.511736 -2.598962 -1.608195 0
M  V30 26 C -0.558960 -3.941864 -1.292095 0
M  V30 27 H -0.726780 -7.352450 2.805806 0
M  V30 28 H -1.045516 -8.095053 1.221284 0
M  V30 29 H -2.330711 -7.148667 2.070696 0
M  V30 30 H 0.751864 -6.657043 0.015673 0
M  V30 31 H 1.525312 -3.889628 1.410847 0
M  V30 32 H 1.611536 -1.522711 0.857685 0
M  V30 33 H 0.059787 -0.598750 -3.268089 0
M  V30 34 H 0.469662 4.308383 -2.597630 0
M  V30 35 H 0.810955 5.189193 -0.188575 0
M  V30 36 H 2.398680 1.446047 1.849273 0
M  V30 37 H 2.725130 1.402146 4.231711 0
M  V30 38 H 1.265956 2.024006 6.449974 0
M  V30 39 H -0.047598 4.537815 4.773292 0
M  V30 40 H -0.445737 4.644843 2.287762 0
M  V30 41 H 0.595959 0.247369 0.827180 0
M  V30 42 H -1.069801 -2.205265 -2.446737 0
M  V30 43 H -1.150327 -4.654068 -1.863006 0
M  V30 END ATOM
M  V30 BEGIN BOND
M  V30 1 1 1 2
M  V30 2 2 2 3
M  V30 3 1 2 4
M  V30 4 1 4 5
M  V30 5 2 5 6
M  V30 6 1 6 7
M  V30 7 2 7 8
M  V30 8 1 8 9
M  V30 9 2 9 10
M  V30 10 1 10 11
M  V30 11 2 11 12
M  V30 12 1 12 13
M  V30 13 1 13 14
M  V30 14 2 14 15
M  V30 15 1 15 16
M  V30 16 2 16 17
M  V30 17 1 17 18
M  V30 18 2 18 19
M  V30 19 1 19 20
M  V30 20 1 19 21
M  V30 21 2 21 22
M  V30 22 1 15 23
M  V30 23 2 23 24
M  V30 24 1 8 25
M  V30 25 2 25 26
M  V30 26 1 26 5
M  V30 27 1 24 9
M  V30 28 1 23 12
M  V30 29 1 22 16
M  V30 30 1 1 27
M  V30 31 1 1 28
M  V30 32 1 1 29
M  V30 33 1 4 30
M  V30 34 1 6 31
M  V30 35 1 7 32
M  V30 36 1 10 33
M  V30 37 1 13 34
M  V30 38 1 14 35
M  V30 39 1 17 36
M  V30 40 1 18 37
M  V30 41 1 20 38
M  V30 42 1 21 39
M  V30 43 1 22 40
M  V30 44 1 24 41
M  V30 45 1 25 42
M  V30 46 1 26 43
M  V30 END BOND
M  V30 END CTAB
M  END
>  <Dataset>  (244) 
ChEMBL_Kinases

>  <Ligand_Instance>  (244) 
nan

>  <PDB_ID>  (244) 
nan

>  <Standardized_SMILES>  (244) 
CC(=O)Nc1ccc(-c2cnc3[nH]cc(-c4ccc(O)cc4)c3c2)cc1

>  <Name>  (244) 
nan

>  <Pocket>  (244) 
nan

>  <ATP_Site>  (244) 
nan

>  <Peripheral>  (244) 
nan

>  <Num_H_Atoms_ProtBoundConf>  (244) 
nan

>  <Num_Resolved_Atoms>  (244) 
nan

>  <Num_Not_Resolved_Atoms>  (244) 
nan

$$$$
CHEMBL4078687
     RDKit          3D

  0  0  0  0  0  0  0  0  0  0999 V3000
M  V30 BEGIN CTAB
M  V30 COUNTS 28 30 0 0 0
M  V30 BEGIN ATOM
M  V30 1 N -0.629108 -2.683711 3.589178 0
M  V30 2 C 0.646755 -3.007069 3.084591 0
M  V30 3 O 1.148130 -3.972173 3.676443 0
M  V30 4 C 1.235265 -2.243262 1.991058 0
M  V30 5 C 2.483742 -2.565196 1.502445 0
M  V30 6 C 2.979987 -1.791021 0.457652 0
M  V30 7 Cl 4.539054 -2.093129 -0.246713 0
M  V30 8 C 2.249562 -0.733935 -0.075574 0
M  V30 9 C 2.401943 0.213975 -1.066006 0
M  V30 10 Cl 3.821552 0.332942 -2.078896 0
M  V30 11 C 1.273134 1.011280 -1.101527 0
M  V30 12 I 1.037769 2.610906 -2.460409 0
M  V30 13 N 0.419643 0.580257 -0.153599 0
M  V30 14 C -0.841731 1.211400 0.051677 0
M  V30 15 C -2.011668 0.666547 -0.723680 0
M  V30 16 N -2.373185 -0.172933 0.410287 0
M  V30 17 C -1.645574 0.762252 1.236050 0
M  V30 18 C 1.004678 -0.463748 0.459547 0
M  V30 19 N 0.546531 -1.214903 1.458464 0
M  V30 20 H -0.661951 -1.984450 4.379131 0
M  V30 21 H -1.575343 -3.000740 3.337237 0
M  V30 22 H 3.066817 -3.383658 1.904165 0
M  V30 23 H -0.836296 2.320399 -0.014825 0
M  V30 24 H -1.781439 0.133776 -1.655207 0
M  V30 25 H -2.829568 1.410064 -0.861179 0
M  V30 26 H -1.998065 -1.117500 0.294259 0
M  V30 27 H -2.355924 1.552916 1.601814 0
M  V30 28 H -1.109106 0.367729 2.106226 0
M  V30 END ATOM
M  V30 BEGIN BOND
M  V30 1 1 1 2
M  V30 2 2 2 3
M  V30 3 1 2 4
M  V30 4 2 4 5
M  V30 5 1 5 6
M  V30 6 1 6 7
M  V30 7 2 6 8
M  V30 8 1 8 9
M  V30 9 1 9 10
M  V30 10 2 9 11
M  V30 11 1 11 12
M  V30 12 1 11 13
M  V30 13 1 13 14
M  V30 14 1 14 15
M  V30 15 1 15 16
M  V30 16 1 16 17
M  V30 17 1 13 18
M  V30 18 2 18 19
M  V30 19 1 19 4
M  V30 20 1 18 8
M  V30 21 1 17 14
M  V30 22 1 1 20
M  V30 23 1 1 21
M  V30 24 1 5 22
M  V30 25 1 14 23
M  V30 26 1 15 24
M  V30 27 1 15 25
M  V30 28 1 16 26
M  V30 29 1 17 27
M  V30 30 1 17 28
M  V30 END BOND
M  V30 END CTAB
M  END
>  <Dataset>  (245) 
ChEMBL_Kinases

>  <Ligand_Instance>  (245) 
nan

>  <PDB_ID>  (245) 
nan

>  <Standardized_SMILES>  (245) 
NC(=O)c1cc(Cl)c2c(Cl)c(I)n(C3CNC3)c2n1

>  <Name>  (245) 
nan

>  <Pocket>  (245) 
nan

>  <ATP_Site>  (245) 
nan

>  <Peripheral>  (245) 
nan

>  <Num_H_Atoms_ProtBoundConf>  (245) 
nan

>  <Num_Resolved_Atoms>  (245) 
nan

>  <Num_Not_Resolved_Atoms>  (245) 
nan

$$$$
CHEMBL4078893
     RDKit          3D

  0  0  0  0  0  0  0  0  0  0999 V3000
M  V30 BEGIN CTAB
M  V30 COUNTS 46 49 0 0 0
M  V30 BEGIN ATOM
M  V30 1 F 4.960089 -6.248967 -1.167357 0
M  V30 2 C 3.976290 -5.410103 -1.590636 0
M  V30 3 F 3.402311 -5.913081 -2.735615 0
M  V30 4 F 4.531956 -4.163678 -1.793012 0
M  V30 5 C 2.932769 -5.315114 -0.469984 0
M  V30 6 N 1.839413 -4.490380 -0.725870 0
M  V30 7 C 0.746729 -3.586426 -0.997921 0
M  V30 8 N 0.673070 -2.295730 -1.267797 0
M  V30 9 C -0.465776 -1.637135 -1.490541 0
M  V30 10 N -0.324314 -0.252596 -1.764910 0
M  V30 11 C -0.319574 0.668947 -0.680112 0
M  V30 12 C -0.456738 0.163836 0.604028 0
M  V30 13 C -0.445759 1.084861 1.632436 0
M  V30 14 C -0.308642 2.447876 1.451217 0
M  V30 15 N -0.307501 3.320785 2.570500 0
M  V30 16 C 0.764894 4.232608 2.995749 0
M  V30 17 C 0.746645 4.457175 4.473086 0
M  V30 18 O 0.269811 3.414565 5.228901 0
M  V30 19 C -0.920942 2.874222 4.833597 0
M  V30 20 C -1.434263 3.433343 3.499855 0
M  V30 21 C -0.171871 2.933265 0.146624 0
M  V30 22 Cl 0.004548 4.642516 -0.151568 0
M  V30 23 C -0.180353 2.028095 -0.897177 0
M  V30 24 N -1.557855 -2.394993 -1.419680 0
M  V30 25 C -1.624522 -3.695289 -1.158657 0
M  V30 26 C -2.713738 -4.543048 -1.069360 0
M  V30 27 C -2.089553 -5.753178 -0.773693 0
M  V30 28 O -0.802236 -5.617036 -0.702164 0
M  V30 29 C -0.423842 -4.362084 -0.929611 0
M  V30 30 H 3.408967 -5.091816 0.519764 0
M  V30 31 H 2.571091 -6.400091 -0.281335 0
M  V30 32 H 2.563734 -3.719209 -0.832251 0
M  V30 33 H -0.225801 0.074193 -2.752217 0
M  V30 34 H -0.567121 -0.894105 0.802070 0
M  V30 35 H -0.556482 0.653151 2.637722 0
M  V30 36 H 0.726888 5.201726 2.487485 0
M  V30 37 H 1.713241 3.667692 2.756635 0
M  V30 38 H 0.230599 5.429440 4.724349 0
M  V30 39 H 1.809269 4.628871 4.791912 0
M  V30 40 H -0.898301 1.765331 4.737407 0
M  V30 41 H -1.720725 3.099477 5.572226 0
M  V30 42 H -1.780129 4.460923 3.620364 0
M  V30 43 H -2.261529 2.743163 3.207572 0
M  V30 44 H -0.078435 2.339316 -1.941608 0
M  V30 45 H -3.758145 -4.326099 -1.194233 0
M  V30 46 H -2.589868 -6.701688 -0.618287 0
M  V30 END ATOM
M  V30 BEGIN BOND
M  V30 1 1 1 2
M  V30 2 1 2 3
M  V30 3 1 2 4
M  V30 4 1 2 5
M  V30 5 1 5 6
M  V30 6 1 6 7
M  V30 7 2 7 8
M  V30 8 1 8 9
M  V30 9 1 9 10
M  V30 10 1 10 11
M  V30 11 2 11 12
M  V30 12 1 12 13
M  V30 13 2 13 14
M  V30 14 1 14 15
M  V30 15 1 15 16
M  V30 16 1 16 17
M  V30 17 1 17 18
M  V30 18 1 18 19
M  V30 19 1 19 20
M  V30 20 1 14 21
M  V30 21 1 21 22
M  V30 22 2 21 23
M  V30 23 2 9 24
M  V30 24 1 24 25
M  V30 25 1 25 26
M  V30 26 2 26 27
M  V30 27 1 27 28
M  V30 28 1 28 29
M  V30 29 1 29 7
M  V30 30 1 23 11
M  V30 31 2 29 25
M  V30 32 1 20 15
M  V30 33 1 5 30
M  V30 34 1 5 31
M  V30 35 1 6 32
M  V30 36 1 10 33
M  V30 37 1 12 34
M  V30 38 1 13 35
M  V30 39 1 16 36
M  V30 40 1 16 37
M  V30 41 1 17 38
M  V30 42 1 17 39
M  V30 43 1 19 40
M  V30 44 1 19 41
M  V30 45 1 20 42
M  V30 46 1 20 43
M  V30 47 1 23 44
M  V30 48 1 26 45
M  V30 49 1 27 46
M  V30 END BOND
M  V30 END CTAB
M  END
>  <Dataset>  (246) 
ChEMBL_Kinases

>  <Ligand_Instance>  (246) 
nan

>  <PDB_ID>  (246) 
nan

>  <Standardized_SMILES>  (246) 
FC(F)(F)CNc1nc(Nc2ccc(N3CCOCC3)c(Cl)c2)nc2ccoc12

>  <Name>  (246) 
nan

>  <Pocket>  (246) 
nan

>  <ATP_Site>  (246) 
nan

>  <Peripheral>  (246) 
nan

>  <Num_H_Atoms_ProtBoundConf>  (246) 
nan

>  <Num_Resolved_Atoms>  (246) 
nan

>  <Num_Not_Resolved_Atoms>  (246) 
nan

$$$$
CHEMBL4078898
     RDKit          3D

  0  0  0  0  0  0  0  0  0  0999 V3000
M  V30 BEGIN CTAB
M  V30 COUNTS 56 59 0 0 0
M  V30 BEGIN ATOM
M  V30 1 C -1.307038 -4.036589 4.232828 0
M  V30 2 C 0.186700 -3.761877 4.355231 0
M  V30 3 C 0.514382 -3.808408 5.844165 0
M  V30 4 N 0.524928 -2.460306 3.808015 0
M  V30 5 C 1.289487 -1.516636 4.387129 0
M  V30 6 N 1.355327 -0.448457 3.540109 0
M  V30 7 C 0.631024 -0.739239 2.443314 0
M  V30 8 C 0.322266 -0.086305 1.269730 0
M  V30 9 N 0.831015 1.221530 1.037224 0
M  V30 10 C 2.028261 1.687298 0.425902 0
M  V30 11 C 2.267937 3.037185 0.334142 0
M  V30 12 C 3.450883 3.400536 -0.272217 0
M  V30 13 N 3.702696 4.810574 -0.368822 0
M  V30 14 C 4.392673 2.531540 -0.783184 0
M  V30 15 C 4.127028 1.161541 -0.678412 0
M  V30 16 Cl 5.266633 -0.013833 -1.299721 0
M  V30 17 C 2.937908 0.774221 -0.069425 0
M  V30 18 N -0.456777 -0.719381 0.381122 0
M  V30 19 C -0.977366 -1.933052 0.505823 0
M  V30 20 N -1.801610 -2.581637 -0.453825 0
M  V30 21 C -2.224971 -2.054523 -1.705619 0 CFG=2
M  V30 22 C -1.104810 -1.617396 -2.623888 0
M  V30 23 C -1.762628 -1.322417 -3.967241 0
M  V30 24 C -2.933141 -0.403684 -3.867040 0
M  V30 25 C -3.924627 -0.731096 -2.800619 0
M  V30 26 C -3.177087 -0.904140 -1.483378 0 CFG=2
M  V30 27 N -2.429427 0.263815 -1.142311 0
M  V30 28 N -0.647329 -2.525989 1.664879 0
M  V30 29 C 0.109718 -2.003308 2.612480 0
M  V30 30 H -1.757321 -4.344555 5.204831 0
M  V30 31 H -1.855102 -3.125705 3.901740 0
M  V30 32 H -1.514676 -4.911377 3.551994 0
M  V30 33 H 0.701149 -4.572682 3.800276 0
M  V30 34 H -0.165372 -4.478814 6.370839 0
M  V30 35 H 0.368859 -2.762408 6.222395 0
M  V30 36 H 1.590164 -4.062191 6.001091 0
M  V30 37 H 1.786430 -1.546457 5.348050 0
M  V30 38 H 0.133840 1.899409 1.416539 0
M  V30 39 H 1.567091 3.765856 0.716375 0
M  V30 40 H 3.886250 5.597654 -0.995073 0
M  V30 41 H 3.805070 5.662267 0.235066 0
M  V30 42 H 5.300067 2.830510 -1.247802 0
M  V30 43 H 2.793354 -0.314890 -0.020796 0
M  V30 44 H -2.119464 -3.559678 -0.180329 0
M  V30 45 H -2.752541 -2.867472 -2.273405 0
M  V30 46 H -0.433887 -2.471347 -2.799208 0
M  V30 47 H -0.547024 -0.749349 -2.276879 0
M  V30 48 H -2.060253 -2.279871 -4.470890 0
M  V30 49 H -1.021676 -0.841668 -4.635971 0
M  V30 50 H -3.485652 -0.486910 -4.847072 0
M  V30 51 H -2.620441 0.665326 -3.794967 0
M  V30 52 H -4.598541 0.129048 -2.673357 0
M  V30 53 H -4.411815 -1.685016 -3.045332 0
M  V30 54 H -3.854822 -1.209851 -0.678226 0
M  V30 55 H -2.821748 0.644149 -0.232247 0
M  V30 56 H -2.480488 1.050191 -1.801189 0
M  V30 END ATOM
M  V30 BEGIN BOND
M  V30 1 1 1 2
M  V30 2 1 2 3
M  V30 3 1 2 4
M  V30 4 1 4 5
M  V30 5 2 5 6
M  V30 6 1 6 7
M  V30 7 2 7 8
M  V30 8 1 8 9
M  V30 9 1 9 10
M  V30 10 2 10 11
M  V30 11 1 11 12
M  V30 12 1 12 13
M  V30 13 2 12 14
M  V30 14 1 14 15
M  V30 15 1 15 16
M  V30 16 2 15 17
M  V30 17 1 8 18
M  V30 18 2 18 19
M  V30 19 1 19 20
M  V30 20 1 20 21
M  V30 21 1 21 22
M  V30 22 1 22 23
M  V30 23 1 23 24
M  V30 24 1 24 25
M  V30 25 1 25 26
M  V30 26 1 26 27
M  V30 27 1 19 28
M  V30 28 2 28 29
M  V30 29 1 29 4
M  V30 30 1 29 7
M  V30 31 1 17 10
M  V30 32 1 26 21
M  V30 33 1 1 30
M  V30 34 1 1 31
M  V30 35 1 1 32
M  V30 36 1 2 33
M  V30 37 1 3 34
M  V30 38 1 3 35
M  V30 39 1 3 36
M  V30 40 1 5 37
M  V30 41 1 9 38
M  V30 42 1 11 39
M  V30 43 1 13 40
M  V30 44 1 13 41
M  V30 45 1 14 42
M  V30 46 1 17 43
M  V30 47 1 20 44
M  V30 48 1 21 45 CFG=3
M  V30 49 1 22 46
M  V30 50 1 22 47
M  V30 51 1 23 48
M  V30 52 1 23 49
M  V30 53 1 24 50
M  V30 54 1 24 51
M  V30 55 1 25 52
M  V30 56 1 25 53
M  V30 57 1 26 54 CFG=1
M  V30 58 1 27 55
M  V30 59 1 27 56
M  V30 END BOND
M  V30 END CTAB
M  END
>  <Dataset>  (247) 
ChEMBL_Kinases

>  <Ligand_Instance>  (247) 
nan

>  <PDB_ID>  (247) 
nan

>  <Standardized_SMILES>  (247) 
CC(C)n1cnc2c(Nc3cc(N)cc(Cl)c3)nc(N[C@@H]3CCCC[C@@H]3N)nc21

>  <Name>  (247) 
nan

>  <Pocket>  (247) 
nan

>  <ATP_Site>  (247) 
nan

>  <Peripheral>  (247) 
nan

>  <Num_H_Atoms_ProtBoundConf>  (247) 
nan

>  <Num_Resolved_Atoms>  (247) 
nan

>  <Num_Not_Resolved_Atoms>  (247) 
nan

$$$$
CHEMBL4855726
     RDKit          3D

  0  0  0  0  0  0  0  0  0  0999 V3000
M  V30 BEGIN CTAB
M  V30 COUNTS 60 63 0 0 0
M  V30 BEGIN ATOM
M  V30 1 C 3.547022 -3.810109 3.464596 0
M  V30 2 C 2.311957 -3.010160 3.681225 0
M  V30 3 N 2.385351 -1.846301 4.395323 0
M  V30 4 C 1.293263 -1.120209 4.568294 0
M  V30 5 N 1.275436 0.158740 5.267538 0
M  V30 6 C 1.832245 1.227117 4.375395 0
M  V30 7 N 2.620405 2.116589 4.154951 0
M  V30 8 C 2.687612 2.795011 3.039615 0
M  V30 9 C 1.874235 2.554593 2.034216 0
M  V30 10 C 1.699811 3.099888 0.665719 0
M  V30 11 O 2.456816 4.030920 0.287134 0
M  V30 12 N 0.707254 2.563943 -0.149601 0
M  V30 13 C 0.078103 2.589045 -1.411821 0
M  V30 14 C 0.519400 1.651104 -2.354506 0
M  V30 15 Cl 1.791924 0.500869 -1.911204 0
M  V30 16 C -0.017313 1.593936 -3.644404 0
M  V30 17 C -1.003378 2.528997 -3.893084 0
M  V30 18 N -1.446723 3.442510 -3.003058 0
M  V30 19 C -0.918438 3.495866 -1.740961 0
M  V30 20 C -1.350998 4.482401 -0.723434 0
M  V30 21 S 0.889571 1.231055 2.700672 0
M  V30 22 C 0.049955 -1.457984 4.069827 0
M  V30 23 C -0.011002 -2.635171 3.354280 0
M  V30 24 N -1.105803 -3.290936 2.702238 0
M  V30 25 N -1.777496 -3.473550 1.527733 0
M  V30 26 C -1.384010 -4.546381 0.688285 0
M  V30 27 C -0.965837 -4.189420 -0.678931 0
M  V30 28 N -1.435209 -2.984517 -1.223190 0
M  V30 29 C -2.029943 -3.065258 -2.518246 0
M  V30 30 C -0.878850 -3.402298 -3.483613 0
M  V30 31 O -1.328562 -3.515067 -4.784435 0
M  V30 32 C -1.922164 -1.985317 -0.367107 0
M  V30 33 C -2.466956 -2.397179 0.952396 0
M  V30 34 N 1.102746 -3.396260 3.164035 0
M  V30 35 H 4.445235 -3.129567 3.414317 0
M  V30 36 H 3.489966 -4.308549 2.475725 0
M  V30 37 H 3.749776 -4.540908 4.269283 0
M  V30 38 H 0.957379 0.439783 6.225022 0
M  V30 39 H 3.394633 3.594137 2.849873 0
M  V30 40 H 0.080029 1.802200 0.257363 0
M  V30 41 H 0.349951 0.859952 -4.322012 0
M  V30 42 H -1.416114 2.475615 -4.900902 0
M  V30 43 H -1.805172 4.049232 0.179431 0
M  V30 44 H -2.071401 5.199957 -1.185025 0
M  V30 45 H -0.441131 5.075920 -0.458732 0
M  V30 46 H -0.920973 -0.995093 4.116179 0
M  V30 47 H -1.657631 -3.911607 3.335321 0
M  V30 48 H -2.219274 -5.292357 0.672073 0
M  V30 49 H -0.529595 -5.077667 1.194591 0
M  V30 50 H -1.298134 -5.020660 -1.370495 0
M  V30 51 H 0.159959 -4.203803 -0.781936 0
M  V30 52 H -2.826147 -3.817828 -2.645003 0
M  V30 53 H -2.380185 -2.064995 -2.859069 0
M  V30 54 H -0.336346 -4.299661 -3.163672 0
M  V30 55 H -0.175930 -2.541010 -3.428067 0
M  V30 56 H -1.778444 -2.699122 -5.118421 0
M  V30 57 H -1.149440 -1.198419 -0.222985 0
M  V30 58 H -2.766921 -1.465053 -0.924532 0
M  V30 59 H -3.547257 -2.678363 0.796504 0
M  V30 60 H -2.430583 -1.533564 1.654160 0
M  V30 END ATOM
M  V30 BEGIN BOND
M  V30 1 1 1 2
M  V30 2 2 2 3
M  V30 3 1 3 4
M  V30 4 1 4 5
M  V30 5 1 5 6
M  V30 6 2 6 7
M  V30 7 1 7 8
M  V30 8 2 8 9
M  V30 9 1 9 10
M  V30 10 2 10 11
M  V30 11 1 10 12
M  V30 12 1 12 13
M  V30 13 2 13 14
M  V30 14 1 14 15
M  V30 15 1 14 16
M  V30 16 2 16 17
M  V30 17 1 17 18
M  V30 18 2 18 19
M  V30 19 1 19 20
M  V30 20 1 9 21
M  V30 21 2 4 22
M  V30 22 1 22 23
M  V30 23 1 23 24
M  V30 24 1 24 25
M  V30 25 1 25 26
M  V30 26 1 26 27
M  V30 27 1 27 28
M  V30 28 1 28 29
M  V30 29 1 29 30
M  V30 30 1 30 31
M  V30 31 1 28 32
M  V30 32 1 32 33
M  V30 33 2 23 34
M  V30 34 1 34 2
M  V30 35 1 21 6
M  V30 36 1 33 25
M  V30 37 1 19 13
M  V30 38 1 1 35
M  V30 39 1 1 36
M  V30 40 1 1 37
M  V30 41 1 5 38
M  V30 42 1 8 39
M  V30 43 1 12 40
M  V30 44 1 16 41
M  V30 45 1 17 42
M  V30 46 1 20 43
M  V30 47 1 20 44
M  V30 48 1 20 45
M  V30 49 1 22 46
M  V30 50 1 24 47
M  V30 51 1 26 48
M  V30 52 1 26 49
M  V30 53 1 27 50
M  V30 54 1 27 51
M  V30 55 1 29 52
M  V30 56 1 29 53
M  V30 57 1 30 54
M  V30 58 1 30 55
M  V30 59 1 31 56
M  V30 60 1 32 57
M  V30 61 1 32 58
M  V30 62 1 33 59
M  V30 63 1 33 60
M  V30 END BOND
M  V30 END CTAB
M  END
>  <Dataset>  (248) 
ChEMBL_Kinases

>  <Ligand_Instance>  (248) 
nan

>  <PDB_ID>  (248) 
nan

>  <Standardized_SMILES>  (248) 
Cc1nc(Nc2ncc(C(=O)Nc3c(Cl)ccnc3C)s2)cc(NN2CCN(CCO)CC2)n1

>  <Name>  (248) 
nan

>  <Pocket>  (248) 
nan

>  <ATP_Site>  (248) 
nan

>  <Peripheral>  (248) 
nan

>  <Num_H_Atoms_ProtBoundConf>  (248) 
nan

>  <Num_Resolved_Atoms>  (248) 
nan

>  <Num_Not_Resolved_Atoms>  (248) 
nan

$$$$
CHEMBL360408
     RDKit          3D

  0  0  0  0  0  0  0  0  0  0999 V3000
M  V30 BEGIN CTAB
M  V30 COUNTS 44 48 0 0 0
M  V30 BEGIN ATOM
M  V30 1 C 1.585835 -2.801935 5.090621 0
M  V30 2 C 0.790935 -2.133462 4.202922 0
M  V30 3 C 1.197142 -2.000578 2.908982 0
M  V30 4 C 2.372640 -2.491819 2.389845 0
M  V30 5 N 2.831034 -2.376925 1.054465 0
M  V30 6 C 2.174607 -1.739952 -0.029559 0
M  V30 7 N 2.764036 -1.731573 -1.234807 0
M  V30 8 C 2.262409 -1.171429 -2.340641 0
M  V30 9 C 1.046100 -0.544534 -2.273252 0
M  V30 10 C 0.430936 -0.546153 -1.041957 0
M  V30 11 C -0.857799 0.063757 -0.768986 0
M  V30 12 C -1.165850 1.096775 0.092459 0
M  V30 13 C -0.220001 1.817170 0.938812 0
M  V30 14 C 0.747779 2.497301 0.191566 0
M  V30 15 C 1.724214 3.233810 0.848228 0
M  V30 16 C 1.757342 3.307567 2.236133 0
M  V30 17 C 0.782628 2.621304 2.954251 0
M  V30 18 C -0.193627 1.885587 2.316925 0
M  V30 19 N -2.477953 1.313232 0.008883 0
M  V30 20 N -3.031404 0.468462 -0.866051 0
M  V30 21 N -4.278185 0.296087 -1.284507 0
M  V30 22 C -4.614851 -0.639143 -2.194677 0
M  V30 23 C -3.615645 -1.455651 -2.715727 0
M  V30 24 C -2.305891 -1.313125 -2.310659 0
M  V30 25 C -2.048730 -0.329348 -1.373729 0
M  V30 26 N 0.986755 -1.124694 0.024641 0
M  V30 27 C 3.145289 -3.159145 3.317025 0
M  V30 28 C 2.779042 -3.319505 4.633275 0
M  V30 29 H 1.318063 -2.940015 6.129013 0
M  V30 30 H -0.137351 -1.732689 4.565540 0
M  V30 31 H 0.534052 -1.470014 2.269625 0
M  V30 32 H 3.764838 -2.815151 0.848665 0
M  V30 33 H 2.792495 -1.200861 -3.285487 0
M  V30 34 H 0.551232 -0.062219 -3.099373 0
M  V30 35 H 0.806246 2.500714 -0.904674 0
M  V30 36 H 2.479322 3.764739 0.279497 0
M  V30 37 H 2.526422 3.886814 2.726435 0
M  V30 38 H 0.781310 2.658433 4.018863 0
M  V30 39 H -0.982451 1.327256 2.806651 0
M  V30 40 H -5.654561 -0.726373 -2.492907 0
M  V30 41 H -3.908842 -2.187156 -3.434315 0
M  V30 42 H -1.539447 -1.950691 -2.720179 0
M  V30 43 H 4.091996 -3.596995 3.054516 0
M  V30 44 H 3.405775 -3.848690 5.341235 0
M  V30 END ATOM
M  V30 BEGIN BOND
M  V30 1 2 1 2
M  V30 2 1 2 3
M  V30 3 2 3 4
M  V30 4 1 4 5
M  V30 5 1 5 6
M  V30 6 2 6 7
M  V30 7 1 7 8
M  V30 8 2 8 9
M  V30 9 1 9 10
M  V30 10 1 10 11
M  V30 11 1 11 12
M  V30 12 1 12 13
M  V30 13 2 13 14
M  V30 14 1 14 15
M  V30 15 2 15 16
M  V30 16 1 16 17
M  V30 17 2 17 18
M  V30 18 2 12 19
M  V30 19 1 19 20
M  V30 20 1 20 21
M  V30 21 2 21 22
M  V30 22 1 22 23
M  V30 23 2 23 24
M  V30 24 1 24 25
M  V30 25 2 10 26
M  V30 26 1 4 27
M  V30 27 2 27 28
M  V30 28 1 28 1
M  V30 29 1 26 6
M  V30 30 2 25 11
M  V30 31 1 18 13
M  V30 32 1 25 20
M  V30 33 1 1 29
M  V30 34 1 2 30
M  V30 35 1 3 31
M  V30 36 1 5 32
M  V30 37 1 8 33
M  V30 38 1 9 34
M  V30 39 1 14 35
M  V30 40 1 15 36
M  V30 41 1 16 37
M  V30 42 1 17 38
M  V30 43 1 18 39
M  V30 44 1 22 40
M  V30 45 1 23 41
M  V30 46 1 24 42
M  V30 47 1 27 43
M  V30 48 1 28 44
M  V30 END BOND
M  V30 END CTAB
M  END
>  <Dataset>  (249) 
ChEMBL_Kinases

>  <Ligand_Instance>  (249) 
nan

>  <PDB_ID>  (249) 
nan

>  <Standardized_SMILES>  (249) 
c1ccc(Nc2nccc(-c3c(-c4ccccc4)nn4ncccc34)n2)cc1

>  <Name>  (249) 
nan

>  <Pocket>  (249) 
nan

>  <ATP_Site>  (249) 
nan

>  <Peripheral>  (249) 
nan

>  <Num_H_Atoms_ProtBoundConf>  (249) 
nan

>  <Num_Resolved_Atoms>  (249) 
nan

>  <Num_Not_Resolved_Atoms>  (249) 
nan

$$$$
CHEMBL48546
     RDKit          3D

  0  0  0  0  0  0  0  0  0  0999 V3000
M  V30 BEGIN CTAB
M  V30 COUNTS 62 65 0 0 0
M  V30 BEGIN ATOM
M  V30 1 C 1.409933 -0.384320 5.721359 0
M  V30 2 O 1.772325 0.257468 4.542653 0
M  V30 3 C 2.934020 0.925387 4.304802 0
M  V30 4 O 3.094118 0.542601 5.481332 0
M  V30 5 C 3.806425 1.691727 3.458387 0
M  V30 6 C 4.898908 2.127581 4.176301 0
M  V30 7 C 5.772593 2.975161 3.539766 0
M  V30 8 C 5.542251 3.354526 2.246280 0
M  V30 9 C 4.427620 2.885722 1.566829 0
M  V30 10 O 4.275967 3.326284 0.253431 0
M  V30 11 C 3.528639 2.031777 2.169862 0
M  V30 12 C 2.380767 1.628999 1.425836 0
M  V30 13 O 2.089950 2.532325 0.583671 0
M  V30 14 C 1.422050 0.573444 1.268046 0
M  V30 15 C 0.191243 0.848920 0.721306 0
M  V30 16 O -0.228262 2.140512 0.358884 0
M  V30 17 C -0.743653 -0.158696 0.485089 0
M  V30 18 C -0.435898 -1.444768 0.800371 0
M  V30 19 C -1.437446 -2.471590 0.541603 0
M  V30 20 O -1.257757 -3.706428 0.796900 0
M  V30 21 O -2.675567 -2.177333 -0.008443 0
M  V30 22 C -3.671944 -3.136442 -0.275105 0
M  V30 23 C -4.866875 -2.884784 0.683835 0
M  V30 24 N -5.974043 -3.544108 0.061301 0
M  V30 25 C -5.638076 -3.801927 -1.301502 0
M  V30 26 C -4.387115 -2.950403 -1.564760 0
M  V30 27 C -3.713821 -3.359566 -2.815795 0
M  V30 28 C -2.461343 -2.621330 -3.025818 0
M  V30 29 C -1.169711 -2.971240 -2.697315 0
M  V30 30 C -0.080260 -2.175152 -2.953626 0
M  V30 31 C -0.212349 -0.959105 -3.564133 0
M  V30 32 O 0.839870 -0.119014 -3.846484 0
M  V30 33 C -1.471947 -0.533147 -3.925901 0
M  V30 34 C -2.532464 -1.369143 -3.646560 0
M  V30 35 C 0.776320 -1.797991 1.349106 0
M  V30 36 C 1.642343 -0.769595 1.553112 0
M  V30 37 O 2.859106 -1.214108 2.105162 0
M  V30 38 H 2.046464 -1.221924 6.038755 0
M  V30 39 H 1.300662 0.302443 6.596347 0
M  V30 40 H 0.373857 -0.818481 5.591698 0
M  V30 41 H 5.168481 1.888635 5.193661 0
M  V30 42 H 6.650257 3.370817 4.002604 0
M  V30 43 H 6.215127 4.011839 1.751223 0
M  V30 44 H 4.325385 4.339867 0.091403 0
M  V30 45 H -0.183601 2.932711 0.985663 0
M  V30 46 H -1.700474 0.073003 0.057980 0
M  V30 47 H -3.406480 -4.170810 -0.079252 0
M  V30 48 H -4.615660 -3.208147 1.693376 0
M  V30 49 H -5.049372 -1.776186 0.600084 0
M  V30 50 H -6.856880 -3.009814 0.095279 0
M  V30 51 H -5.278544 -4.862837 -1.365082 0
M  V30 52 H -6.439222 -3.603096 -2.031413 0
M  V30 53 H -4.781282 -1.908761 -1.683060 0
M  V30 54 H -3.571641 -4.465111 -2.891906 0
M  V30 55 H -4.397728 -3.078193 -3.658468 0
M  V30 56 H -1.091211 -3.948736 -2.209946 0
M  V30 57 H 0.905722 -2.528700 -2.660616 0
M  V30 58 H 0.709695 0.881140 -3.788649 0
M  V30 59 H -1.642635 0.415521 -4.410425 0
M  V30 60 H -3.520198 -1.001360 -3.946767 0
M  V30 61 H 0.962552 -2.835619 1.577744 0
M  V30 62 H 3.369627 -1.892682 1.563693 0
M  V30 END ATOM
M  V30 BEGIN BOND
M  V30 1 1 1 2
M  V30 2 1 2 3
M  V30 3 2 3 4
M  V30 4 1 3 5
M  V30 5 2 5 6
M  V30 6 1 6 7
M  V30 7 2 7 8
M  V30 8 1 8 9
M  V30 9 1 9 10
M  V30 10 2 9 11
M  V30 11 1 11 12
M  V30 12 2 12 13
M  V30 13 1 12 14
M  V30 14 2 14 15
M  V30 15 1 15 16
M  V30 16 1 15 17
M  V30 17 2 17 18
M  V30 18 1 18 19
M  V30 19 2 19 20
M  V30 20 1 19 21
M  V30 21 1 21 22
M  V30 22 1 22 23
M  V30 23 1 23 24
M  V30 24 1 24 25
M  V30 25 1 25 26
M  V30 26 1 26 27
M  V30 27 1 27 28
M  V30 28 2 28 29
M  V30 29 1 29 30
M  V30 30 2 30 31
M  V30 31 1 31 32
M  V30 32 1 31 33
M  V30 33 2 33 34
M  V30 34 1 18 35
M  V30 35 2 35 36
M  V30 36 1 36 37
M  V30 37 1 11 5
M  V30 38 1 36 14
M  V30 39 1 26 22
M  V30 40 1 34 28
M  V30 41 1 1 38
M  V30 42 1 1 39
M  V30 43 1 1 40
M  V30 44 1 6 41
M  V30 45 1 7 42
M  V30 46 1 8 43
M  V30 47 1 10 44
M  V30 48 1 16 45
M  V30 49 1 17 46
M  V30 50 1 22 47
M  V30 51 1 23 48
M  V30 52 1 23 49
M  V30 53 1 24 50
M  V30 54 1 25 51
M  V30 55 1 25 52
M  V30 56 1 26 53
M  V30 57 1 27 54
M  V30 58 1 27 55
M  V30 59 1 29 56
M  V30 60 1 30 57
M  V30 61 1 32 58
M  V30 62 1 33 59
M  V30 63 1 34 60
M  V30 64 1 35 61
M  V30 65 1 37 62
M  V30 END BOND
M  V30 END CTAB
M  END
>  <Dataset>  (250) 
ChEMBL_Kinases

>  <Ligand_Instance>  (250) 
nan

>  <PDB_ID>  (250) 
nan

>  <Standardized_SMILES>  (250) 
COC(=O)c1cccc(O)c1C(=O)c1c(O)cc(C(=O)OC2CNCC2Cc2ccc(O)cc2)cc1O

>  <Name>  (250) 
nan

>  <Pocket>  (250) 
nan

>  <ATP_Site>  (250) 
nan

>  <Peripheral>  (250) 
nan

>  <Num_H_Atoms_ProtBoundConf>  (250) 
nan

>  <Num_Resolved_Atoms>  (250) 
nan

>  <Num_Not_Resolved_Atoms>  (250) 
nan

$$$$
CHEMBL360206
     RDKit          3D

  0  0  0  0  0  0  0  0  0  0999 V3000
M  V30 BEGIN CTAB
M  V30 COUNTS 41 44 0 0 0
M  V30 BEGIN ATOM
M  V30 1 C -1.546081 -3.072357 3.624034 0
M  V30 2 O -0.714069 -2.299167 2.818886 0
M  V30 3 C 0.012441 -2.842012 1.770684 0
M  V30 4 C 0.810493 -1.999641 1.026809 0
M  V30 5 C 1.609469 -2.321889 -0.048884 0
M  V30 6 N 2.395028 -1.425927 -0.793338 0
M  V30 7 C 2.390594 -0.014509 -0.813491 0
M  V30 8 N 3.321791 0.624277 -1.520873 0
M  V30 9 C 3.443588 1.946297 -1.651141 0
M  V30 10 C 2.499394 2.679479 -0.976050 0
M  V30 11 C 1.490626 2.092832 -0.213543 0
M  V30 12 C 0.550312 2.992465 0.428482 0
M  V30 13 C 0.633096 4.390205 0.428635 0
M  V30 14 N -0.406556 4.867553 1.108005 0
M  V30 15 N -1.179608 3.919978 1.563468 0
M  V30 16 N -2.297082 3.925670 2.269983 0
M  V30 17 C -2.942903 2.789529 2.631875 0
M  V30 18 C -2.393928 1.565381 2.234899 0
M  V30 19 C -1.232252 1.611477 1.502812 0
M  V30 20 C -0.601248 2.778961 1.152050 0
M  V30 21 N 1.501240 0.751907 -0.180080 0
M  V30 22 C 1.566815 -3.678276 -0.379569 0
M  V30 23 C 0.797435 -4.583308 0.311941 0
M  V30 24 C 0.799362 -6.008943 -0.093441 0
M  V30 25 F -0.032723 -6.732145 0.760832 0
M  V30 26 F 0.336977 -6.104039 -1.402218 0
M  V30 27 F 2.067889 -6.572231 -0.044632 0
M  V30 28 C 0.028582 -4.167292 1.375721 0
M  V30 29 H -1.743730 -2.600776 4.622762 0
M  V30 30 H -2.539106 -3.107428 3.127700 0
M  V30 31 H -1.203213 -4.118828 3.738944 0
M  V30 32 H 0.843736 -0.963019 1.298452 0
M  V30 33 H 3.095929 -1.904222 -1.434889 0
M  V30 34 H 4.215207 2.422364 -2.236051 0
M  V30 35 H 2.585359 3.767477 -1.071835 0
M  V30 36 H 1.386007 5.038843 -0.025627 0
M  V30 37 H -3.866267 2.828016 3.217102 0
M  V30 38 H -2.889510 0.647272 2.510886 0
M  V30 39 H -0.813501 0.682242 1.192903 0
M  V30 40 H 2.163483 -4.054639 -1.219788 0
M  V30 41 H -0.590244 -4.847630 1.942666 0
M  V30 END ATOM
M  V30 BEGIN BOND
M  V30 1 1 1 2
M  V30 2 1 2 3
M  V30 3 2 3 4
M  V30 4 1 4 5
M  V30 5 1 5 6
M  V30 6 1 6 7
M  V30 7 2 7 8
M  V30 8 1 8 9
M  V30 9 2 9 10
M  V30 10 1 10 11
M  V30 11 1 11 12
M  V30 12 1 12 13
M  V30 13 2 13 14
M  V30 14 1 14 15
M  V30 15 1 15 16
M  V30 16 2 16 17
M  V30 17 1 17 18
M  V30 18 2 18 19
M  V30 19 1 19 20
M  V30 20 2 11 21
M  V30 21 2 5 22
M  V30 22 1 22 23
M  V30 23 1 23 24
M  V30 24 1 24 25
M  V30 25 1 24 26
M  V30 26 1 24 27
M  V30 27 2 23 28
M  V30 28 1 28 3
M  V30 29 1 21 7
M  V30 30 2 20 12
M  V30 31 1 20 15
M  V30 32 1 1 29
M  V30 33 1 1 30
M  V30 34 1 1 31
M  V30 35 1 4 32
M  V30 36 1 6 33
M  V30 37 1 9 34
M  V30 38 1 10 35
M  V30 39 1 13 36
M  V30 40 1 17 37
M  V30 41 1 18 38
M  V30 42 1 19 39
M  V30 43 1 22 40
M  V30 44 1 28 41
M  V30 END BOND
M  V30 END CTAB
M  END
>  <Dataset>  (251) 
ChEMBL_Kinases

>  <Ligand_Instance>  (251) 
nan

>  <PDB_ID>  (251) 
nan

>  <Standardized_SMILES>  (251) 
COc1cc(Nc2nccc(-c3cnn4ncccc34)n2)cc(C(F)(F)F)c1

>  <Name>  (251) 
nan

>  <Pocket>  (251) 
nan

>  <ATP_Site>  (251) 
nan

>  <Peripheral>  (251) 
nan

>  <Num_H_Atoms_ProtBoundConf>  (251) 
nan

>  <Num_Resolved_Atoms>  (251) 
nan

>  <Num_Not_Resolved_Atoms>  (251) 
nan

$$$$
CHEMBL408019
     RDKit          3D

  0  0  0  0  0  0  0  0  0  0999 V3000
M  V30 BEGIN CTAB
M  V30 COUNTS 36 39 0 0 0
M  V30 BEGIN ATOM
M  V30 1 O -1.203023 -1.239088 3.674722 0
M  V30 2 C -1.791933 -2.306157 3.328937 0
M  V30 3 N -1.159180 -3.173861 2.403565 0
M  V30 4 C 0.101349 -2.616253 2.032120 0
M  V30 5 N 1.325699 -2.765675 2.570139 0
M  V30 6 N 2.219853 -2.058018 1.900674 0
M  V30 7 C 1.618673 -1.403044 0.880007 0
M  V30 8 N 2.140371 -0.577128 -0.047835 0
M  V30 9 C 1.336572 -0.018486 -1.000095 0
M  V30 10 C 1.856940 0.878699 -2.021043 0
M  V30 11 C 1.140400 1.481137 -3.005796 0
M  V30 12 C 1.685525 2.324961 -3.950423 0
M  V30 13 C 3.044093 2.544576 -3.854782 0
M  V30 14 C 3.868451 1.993018 -2.905950 0
M  V30 15 O 5.223549 2.226007 -2.828676 0
M  V30 16 C 3.226399 1.153018 -1.993499 0
M  V30 17 C -0.004963 -0.342415 -0.955319 0
M  V30 18 C -0.546883 -1.195636 0.002364 0
M  V30 19 C 0.284645 -1.757607 0.966735 0
M  V30 20 C -3.138793 -2.561639 3.944941 0
M  V30 21 C -3.421848 -1.966754 5.254824 0
M  V30 22 C -3.973566 -1.283350 4.026711 0
M  V30 23 H -1.657650 -4.045332 2.131302 0
M  V30 24 H 3.249897 -2.023110 2.144397 0
M  V30 25 H 0.089842 1.286287 -3.047208 0
M  V30 26 H 1.085411 2.786467 -4.719194 0
M  V30 27 H 3.513573 3.206711 -4.584316 0
M  V30 28 H 5.612574 3.127515 -2.661766 0
M  V30 29 H 3.845851 0.686265 -1.212498 0
M  V30 30 H -0.712193 0.037356 -1.647797 0
M  V30 31 H -1.604758 -1.447054 0.032445 0
M  V30 32 H -3.666330 -3.484195 3.656658 0
M  V30 33 H -4.202849 -2.423839 5.898134 0
M  V30 34 H -2.608637 -1.453579 5.821127 0
M  V30 35 H -5.035146 -1.401622 3.754581 0
M  V30 36 H -3.528250 -0.315042 3.806796 0
M  V30 END ATOM
M  V30 BEGIN BOND
M  V30 1 2 1 2
M  V30 2 1 2 3
M  V30 3 1 3 4
M  V30 4 2 4 5
M  V30 5 1 5 6
M  V30 6 1 6 7
M  V30 7 2 7 8
M  V30 8 1 8 9
M  V30 9 1 9 10
M  V30 10 2 10 11
M  V30 11 1 11 12
M  V30 12 2 12 13
M  V30 13 1 13 14
M  V30 14 1 14 15
M  V30 15 2 14 16
M  V30 16 2 9 17
M  V30 17 1 17 18
M  V30 18 2 18 19
M  V30 19 1 2 20
M  V30 20 1 20 21
M  V30 21 1 21 22
M  V30 22 1 19 4
M  V30 23 1 22 20
M  V30 24 1 19 7
M  V30 25 1 16 10
M  V30 26 1 3 23
M  V30 27 1 6 24
M  V30 28 1 11 25
M  V30 29 1 12 26
M  V30 30 1 13 27
M  V30 31 1 15 28
M  V30 32 1 16 29
M  V30 33 1 17 30
M  V30 34 1 18 31
M  V30 35 1 20 32
M  V30 36 1 21 33
M  V30 37 1 21 34
M  V30 38 1 22 35
M  V30 39 1 22 36
M  V30 END BOND
M  V30 END CTAB
M  END
>  <Dataset>  (252) 
ChEMBL_Kinases

>  <Ligand_Instance>  (252) 
nan

>  <PDB_ID>  (252) 
nan

>  <Standardized_SMILES>  (252) 
O=C(Nc1n[nH]c2nc(-c3cccc(O)c3)ccc12)C1CC1

>  <Name>  (252) 
nan

>  <Pocket>  (252) 
nan

>  <ATP_Site>  (252) 
nan

>  <Peripheral>  (252) 
nan

>  <Num_H_Atoms_ProtBoundConf>  (252) 
nan

>  <Num_Resolved_Atoms>  (252) 
nan

>  <Num_Not_Resolved_Atoms>  (252) 
nan

$$$$
CHEMBL4170176
     RDKit          3D

  0  0  0  0  0  0  0  0  0  0999 V3000
M  V30 BEGIN CTAB
M  V30 COUNTS 68 71 0 0 0
M  V30 BEGIN ATOM
M  V30 1 C 6.142102 -2.961378 0.515074 0
M  V30 2 C 5.370547 -1.824849 -0.100916 0
M  V30 3 C 5.864131 -1.579493 -1.514381 0
M  V30 4 C 5.102996 -0.444003 -2.168108 0
M  V30 5 N 5.223152 0.790423 -1.457024 0
M  V30 6 S 4.316352 2.041383 -2.280945 0
M  V30 7 O 4.806230 2.055878 -3.706412 0
M  V30 8 O 4.465110 3.355469 -1.595308 0
M  V30 9 C 2.618336 1.623601 -2.339169 0
M  V30 10 C 1.941767 1.009331 -3.373847 0
M  V30 11 C 0.588921 0.743234 -3.262498 0
M  V30 12 C -0.161065 1.059256 -2.150465 0
M  V30 13 N -1.560179 0.810216 -2.028562 0
M  V30 14 C -2.099414 1.030807 -0.703020 0
M  V30 15 N -2.435166 2.233287 -0.187736 0
M  V30 16 C -2.932322 2.319755 1.084576 0
M  V30 17 C -3.041530 1.131754 1.726382 0
M  V30 18 C -2.708632 -0.108427 1.223874 0
M  V30 19 N -2.224331 -0.125780 -0.032807 0
M  V30 20 N -2.853446 -1.358877 1.902160 0
M  V30 21 C -2.883360 -2.645469 1.260268 0
M  V30 22 C -2.870430 -2.736552 -0.197662 0
M  V30 23 C -1.467010 -3.021188 -0.642253 0
M  V30 24 C -0.648190 -3.230502 0.618367 0
M  V30 25 C -1.693389 -3.504652 1.653906 0
M  V30 26 C -2.972939 -1.313470 3.358458 0 CFG=2
M  V30 27 C -3.922144 -2.401254 3.879572 0
M  V30 28 C -5.269656 -2.145706 3.268061 0
M  V30 29 C -3.600767 -0.042268 3.808513 0
M  V30 30 O -4.261821 0.003899 4.894461 0
M  V30 31 N -3.513034 1.168261 3.088630 0
M  V30 32 C -3.888187 2.442148 3.688515 0
M  V30 33 C 0.573534 1.672815 -1.146437 0
M  V30 34 C 1.918551 1.970201 -1.182945 0
M  V30 35 H 5.635197 -3.364585 1.425916 0
M  V30 36 H 6.196603 -3.808308 -0.211487 0
M  V30 37 H 7.174267 -2.673834 0.742621 0
M  V30 38 H 4.284037 -1.914180 -0.042943 0
M  V30 39 H 5.629643 -0.903993 0.496404 0
M  V30 40 H 5.738486 -2.513346 -2.095777 0
M  V30 41 H 6.951217 -1.370020 -1.463728 0
M  V30 42 H 5.579398 -0.308751 -3.182047 0
M  V30 43 H 4.060724 -0.706783 -2.337756 0
M  V30 44 H 4.839652 0.698142 -0.480870 0
M  V30 45 H 2.540758 0.774716 -4.220331 0
M  V30 46 H 0.097226 0.258912 -4.097079 0
M  V30 47 H -2.031259 0.497509 -2.909698 0
M  V30 48 H -3.192284 3.270511 1.479592 0
M  V30 49 H -3.763954 -3.181078 1.674767 0
M  V30 50 H -3.412734 -1.976007 -0.784985 0
M  V30 51 H -3.447113 -3.681913 -0.477415 0
M  V30 52 H -1.364625 -3.988962 -1.223217 0
M  V30 53 H -1.032048 -2.276242 -1.334974 0
M  V30 54 H -0.005376 -4.152749 0.561265 0
M  V30 55 H 0.009473 -2.384935 0.871552 0
M  V30 56 H -2.012396 -4.572568 1.517585 0
M  V30 57 H -1.357004 -3.376014 2.680995 0
M  V30 58 H -2.021806 -1.422094 3.884838 0
M  V30 59 H -3.920230 -2.277161 4.981075 0
M  V30 60 H -3.529836 -3.421639 3.697227 0
M  V30 61 H -5.800230 -3.054553 2.959651 0
M  V30 62 H -5.895035 -1.632649 4.056717 0
M  V30 63 H -5.259223 -1.431542 2.422831 0
M  V30 64 H -3.065782 3.184225 3.510804 0
M  V30 65 H -4.839930 2.815663 3.275521 0
M  V30 66 H -3.923498 2.286673 4.796992 0
M  V30 67 H 0.026444 1.948826 -0.232135 0
M  V30 68 H 2.369295 2.460013 -0.307464 0
M  V30 END ATOM
M  V30 BEGIN BOND
M  V30 1 1 1 2
M  V30 2 1 2 3
M  V30 3 1 3 4
M  V30 4 1 4 5
M  V30 5 1 5 6
M  V30 6 2 6 7
M  V30 7 2 6 8
M  V30 8 1 6 9
M  V30 9 2 9 10
M  V30 10 1 10 11
M  V30 11 2 11 12
M  V30 12 1 12 13
M  V30 13 1 13 14
M  V30 14 2 14 15
M  V30 15 1 15 16
M  V30 16 2 16 17
M  V30 17 1 17 18
M  V30 18 2 18 19
M  V30 19 1 18 20
M  V30 20 1 20 21
M  V30 21 1 21 22
M  V30 22 1 22 23
M  V30 23 1 23 24
M  V30 24 1 24 25
M  V30 25 1 20 26
M  V30 26 1 26 27
M  V30 27 1 27 28
M  V30 28 1 26 29
M  V30 29 2 29 30
M  V30 30 1 29 31
M  V30 31 1 31 32
M  V30 32 1 12 33
M  V30 33 2 33 34
M  V30 34 1 34 9
M  V30 35 1 19 14
M  V30 36 1 25 21
M  V30 37 1 31 17
M  V30 38 1 1 35
M  V30 39 1 1 36
M  V30 40 1 1 37
M  V30 41 1 2 38
M  V30 42 1 2 39
M  V30 43 1 3 40
M  V30 44 1 3 41
M  V30 45 1 4 42
M  V30 46 1 4 43
M  V30 47 1 5 44
M  V30 48 1 10 45
M  V30 49 1 11 46
M  V30 50 1 13 47
M  V30 51 1 16 48
M  V30 52 1 21 49
M  V30 53 1 22 50
M  V30 54 1 22 51
M  V30 55 1 23 52
M  V30 56 1 23 53
M  V30 57 1 24 54
M  V30 58 1 24 55
M  V30 59 1 25 56
M  V30 60 1 25 57
M  V30 61 1 26 58 CFG=1
M  V30 62 1 27 59
M  V30 63 1 27 60
M  V30 64 1 28 61
M  V30 65 1 28 62
M  V30 66 1 28 63
M  V30 67 1 32 64
M  V30 68 1 32 65
M  V30 69 1 32 66
M  V30 70 1 33 67
M  V30 71 1 34 68
M  V30 END BOND
M  V30 END CTAB
M  END
>  <Dataset>  (253) 
ChEMBL_Kinases

>  <Ligand_Instance>  (253) 
nan

>  <PDB_ID>  (253) 
nan

>  <Standardized_SMILES>  (253) 
CCCCNS(=O)(=O)c1ccc(Nc2ncc3c(n2)N(C2CCCC2)[C@H](CC)C(=O)N3C)cc1

>  <Name>  (253) 
nan

>  <Pocket>  (253) 
nan

>  <ATP_Site>  (253) 
nan

>  <Peripheral>  (253) 
nan

>  <Num_H_Atoms_ProtBoundConf>  (253) 
nan

>  <Num_Resolved_Atoms>  (253) 
nan

>  <Num_Not_Resolved_Atoms>  (253) 
nan

$$$$
CHEMBL4854405
     RDKit          3D

  0  0  0  0  0  0  0  0  0  0999 V3000
M  V30 BEGIN CTAB
M  V30 COUNTS 48 52 0 0 0
M  V30 BEGIN ATOM
M  V30 1 C -2.320658 -0.439982 1.306367 0
M  V30 2 C -1.297118 -0.890653 0.322320 0
M  V30 3 N -0.244566 -0.117858 -0.061707 0
M  V30 4 C 0.675628 -0.531649 -0.950888 0
M  V30 5 C 0.619177 -1.789830 -1.548315 0
M  V30 6 C 1.716769 -1.841602 -2.384510 0
M  V30 7 N 2.382878 -0.676065 -2.284003 0
M  V30 8 N 1.763212 0.124777 -1.419978 0
M  V30 9 C 2.160861 1.465116 -1.032606 0
M  V30 10 C 2.502815 2.321579 -2.032832 0
M  V30 11 S 2.932424 3.893870 -1.055209 0
M  V30 12 C 2.592070 3.161496 0.481042 0
M  V30 13 C 2.735209 3.901152 1.778201 0
M  V30 14 O 3.119409 5.096701 1.704428 0
M  V30 15 N 2.431660 3.206837 2.963163 0
M  V30 16 C 2.548098 3.860837 4.253743 0
M  V30 17 C 1.459851 3.455328 5.208644 0
M  V30 18 O 2.414582 3.177677 6.200653 0
M  V30 19 C 3.333844 2.948333 5.204090 0
M  V30 20 C 2.214440 1.921905 0.263033 0
M  V30 21 C -0.433799 -2.596784 -1.181210 0
M  V30 22 C -1.349492 -2.132686 -0.270016 0
M  V30 23 N -2.447696 -2.943804 0.120900 0
M  V30 24 C -2.909303 -4.239381 -0.226026 0
M  V30 25 C -3.053858 -5.321520 0.617088 0
M  V30 26 C -3.519680 -6.542788 0.179342 0
M  V30 27 C -3.863511 -6.725701 -1.143984 0
M  V30 28 F -4.308656 -7.966037 -1.461052 0
M  V30 29 C -3.728328 -5.659153 -2.007576 0
M  V30 30 C -3.258536 -4.442235 -1.544993 0
M  V30 31 Cl -3.181321 -3.228189 -2.828836 0
M  V30 32 H -3.308899 -0.640222 0.839883 0
M  V30 33 H -2.222041 -0.928292 2.286844 0
M  V30 34 H -2.238309 0.657038 1.448672 0
M  V30 35 H 1.932752 -2.715198 -2.987611 0
M  V30 36 H 2.542573 2.211442 -3.093219 0
M  V30 37 H 2.114821 2.210861 2.978837 0
M  V30 38 H 2.876635 4.897090 4.251684 0
M  V30 39 H 0.734279 4.236665 5.492784 0
M  V30 40 H 1.006208 2.488271 4.886314 0
M  V30 41 H 4.353503 3.323269 5.428465 0
M  V30 42 H 3.305567 1.882560 4.892337 0
M  V30 43 H 1.952166 1.281855 1.105922 0
M  V30 44 H -0.472799 -3.572537 -1.642905 0
M  V30 45 H -3.172107 -2.675078 0.808653 0
M  V30 46 H -2.763380 -5.111877 1.658474 0
M  V30 47 H -3.564684 -7.276597 0.994267 0
M  V30 48 H -4.018663 -5.886156 -3.023946 0
M  V30 END ATOM
M  V30 BEGIN BOND
M  V30 1 1 1 2
M  V30 2 2 2 3
M  V30 3 1 3 4
M  V30 4 2 4 5
M  V30 5 1 5 6
M  V30 6 2 6 7
M  V30 7 1 7 8
M  V30 8 1 8 9
M  V30 9 2 9 10
M  V30 10 1 10 11
M  V30 11 1 11 12
M  V30 12 1 12 13
M  V30 13 2 13 14
M  V30 14 1 13 15
M  V30 15 1 15 16
M  V30 16 1 16 17
M  V30 17 1 17 18
M  V30 18 1 18 19
M  V30 19 2 12 20
M  V30 20 1 5 21
M  V30 21 2 21 22
M  V30 22 1 22 23
M  V30 23 1 23 24
M  V30 24 2 24 25
M  V30 25 1 25 26
M  V30 26 2 26 27
M  V30 27 1 27 28
M  V30 28 1 27 29
M  V30 29 2 29 30
M  V30 30 1 30 31
M  V30 31 1 22 2
M  V30 32 1 30 24
M  V30 33 1 8 4
M  V30 34 1 20 9
M  V30 35 1 19 16
M  V30 36 1 1 32
M  V30 37 1 1 33
M  V30 38 1 1 34
M  V30 39 1 6 35
M  V30 40 1 10 36
M  V30 41 1 15 37
M  V30 42 1 16 38
M  V30 43 1 17 39
M  V30 44 1 17 40
M  V30 45 1 19 41
M  V30 46 1 19 42
M  V30 47 1 20 43
M  V30 48 1 21 44
M  V30 49 1 23 45
M  V30 50 1 25 46
M  V30 51 1 26 47
M  V30 52 1 29 48
M  V30 END BOND
M  V30 END CTAB
M  END
>  <Dataset>  (254) 
ChEMBL_Kinases

>  <Ligand_Instance>  (254) 
nan

>  <PDB_ID>  (254) 
nan

>  <Standardized_SMILES>  (254) 
Cc1nc2c(cnn2-c2csc(C(=O)NC3COC3)c2)cc1Nc1ccc(F)cc1Cl

>  <Name>  (254) 
nan

>  <Pocket>  (254) 
nan

>  <ATP_Site>  (254) 
nan

>  <Peripheral>  (254) 
nan

>  <Num_H_Atoms_ProtBoundConf>  (254) 
nan

>  <Num_Resolved_Atoms>  (254) 
nan

>  <Num_Not_Resolved_Atoms>  (254) 
nan

$$$$
CHEMBL3600873
     RDKit          3D

  0  0  0  0  0  0  0  0  0  0999 V3000
M  V30 BEGIN CTAB
M  V30 COUNTS 52 55 0 0 0
M  V30 BEGIN ATOM
M  V30 1 O 2.530922 -1.980059 -1.922577 0
M  V30 2 C 2.397202 -2.137158 -0.676861 0
M  V30 3 O 3.418009 -2.748023 0.038936 0
M  V30 4 C 1.206068 -1.703770 0.065397 0 CFG=2
M  V30 5 C 1.596271 -0.690400 1.119774 0
M  V30 6 C 2.222792 0.507160 0.559894 0
M  V30 7 C 3.587088 0.605056 0.375658 0
M  V30 8 C 4.238162 1.703366 -0.145247 0
M  V30 9 C 3.493982 2.802155 -0.519120 0
M  V30 10 C 2.133329 2.680611 -0.325510 0
M  V30 11 N 1.349450 3.824847 -0.713970 0
M  V30 12 C 1.232317 4.722561 0.440877 0
M  V30 13 N 0.604661 4.976534 1.362154 0
M  V30 14 C 0.807626 5.926105 2.256727 0
M  V30 15 C 1.954909 6.725968 2.033891 0
M  V30 16 S 2.647049 5.988640 0.489453 0
M  V30 17 N 1.537012 1.600737 0.182015 0
M  V30 18 C 0.667140 -2.959292 0.765589 0
M  V30 19 C -0.286800 -3.639722 -0.193571 0
M  V30 20 C -1.605033 -2.855268 -0.112329 0 CFG=1
M  V30 21 O -2.156209 -3.181389 1.139620 0
M  V30 22 C -3.399489 -3.747386 1.235656 0
M  V30 23 C -4.360279 -4.123211 0.323515 0
M  V30 24 C -5.550746 -4.684459 0.724263 0
M  V30 25 C -5.851402 -4.902828 2.052781 0
M  V30 26 C -4.904939 -4.534814 2.986583 0
M  V30 27 Cl -5.351669 -4.840008 4.651228 0
M  V30 28 C -3.689548 -3.962478 2.588009 0
M  V30 29 F -2.905732 -3.676680 3.664728 0
M  V30 30 C -1.197318 -1.393364 -0.162191 0
M  V30 31 C 0.121751 -1.160808 -0.828675 0
M  V30 32 H 4.328820 -2.906609 -0.407838 0
M  V30 33 H 0.654161 -0.420924 1.667246 0
M  V30 34 H 2.285112 -1.183713 1.835354 0
M  V30 35 H 4.256794 -0.202296 0.637908 0
M  V30 36 H 5.308173 1.751070 -0.277764 0
M  V30 37 H 3.944817 3.685942 -0.930539 0
M  V30 38 H 0.898224 4.065957 -1.634486 0
M  V30 39 H 0.050507 5.958800 3.051712 0
M  V30 40 H 2.043004 7.569195 2.920466 0
M  V30 41 H 0.064676 -2.594999 1.619013 0
M  V30 42 H 1.477127 -3.634962 1.092629 0
M  V30 43 H -0.529266 -4.664846 0.156492 0
M  V30 44 H 0.090253 -3.730069 -1.217459 0
M  V30 45 H -2.252377 -3.094404 -0.961792 0
M  V30 46 H -4.053541 -3.922287 -0.681759 0
M  V30 47 H -6.196081 -4.922022 -0.126579 0
M  V30 48 H -6.810033 -5.348833 2.280446 0
M  V30 49 H -1.990415 -0.762410 -0.619482 0
M  V30 50 H -1.122121 -1.053740 0.889503 0
M  V30 51 H 0.251343 -0.069851 -0.913848 0
M  V30 52 H 0.178588 -1.558166 -1.852231 0
M  V30 END ATOM
M  V30 BEGIN BOND
M  V30 1 2 1 2
M  V30 2 1 2 3
M  V30 3 1 2 4
M  V30 4 1 4 5 CFG=1
M  V30 5 1 5 6
M  V30 6 2 6 7
M  V30 7 1 7 8
M  V30 8 2 8 9
M  V30 9 1 9 10
M  V30 10 1 10 11
M  V30 11 1 11 12
M  V30 12 2 12 13
M  V30 13 1 13 14
M  V30 14 2 14 15
M  V30 15 1 15 16
M  V30 16 2 10 17
M  V30 17 1 4 18
M  V30 18 1 18 19
M  V30 19 1 19 20
M  V30 20 1 20 21
M  V30 21 1 21 22
M  V30 22 2 22 23
M  V30 23 1 23 24
M  V30 24 2 24 25
M  V30 25 1 25 26
M  V30 26 1 26 27
M  V30 27 2 26 28
M  V30 28 1 28 29
M  V30 29 1 20 30
M  V30 30 1 30 31
M  V30 31 1 31 4
M  V30 32 1 17 6
M  V30 33 1 28 22
M  V30 34 1 16 12
M  V30 35 1 3 32
M  V30 36 1 5 33
M  V30 37 1 5 34
M  V30 38 1 7 35
M  V30 39 1 8 36
M  V30 40 1 9 37
M  V30 41 1 11 38
M  V30 42 1 14 39
M  V30 43 1 15 40
M  V30 44 1 18 41
M  V30 45 1 18 42
M  V30 46 1 19 43
M  V30 47 1 19 44
M  V30 48 1 20 45 CFG=3
M  V30 49 1 23 46
M  V30 50 1 24 47
M  V30 51 1 25 48
M  V30 52 1 30 49
M  V30 53 1 30 50
M  V30 54 1 31 51
M  V30 55 1 31 52
M  V30 END BOND
M  V30 END CTAB
M  END
>  <Dataset>  (255) 
ChEMBL_Kinases

>  <Ligand_Instance>  (255) 
nan

>  <PDB_ID>  (255) 
nan

>  <Standardized_SMILES>  (255) 
O=C(O)[C@]1(Cc2cccc(Nc3nccs3)n2)CC[C@@H](Oc2cccc(Cl)c2F)CC1

>  <Name>  (255) 
nan

>  <Pocket>  (255) 
nan

>  <ATP_Site>  (255) 
nan

>  <Peripheral>  (255) 
nan

>  <Num_H_Atoms_ProtBoundConf>  (255) 
nan

>  <Num_Resolved_Atoms>  (255) 
nan

>  <Num_Not_Resolved_Atoms>  (255) 
nan

$$$$
CHEMBL360077
     RDKit          3D

  0  0  0  0  0  0  0  0  0  0999 V3000
M  V30 BEGIN CTAB
M  V30 COUNTS 40 42 0 0 0
M  V30 BEGIN ATOM
M  V30 1 N -0.257971 -4.328927 3.128192 0
M  V30 2 C -0.193856 -3.218740 2.783807 0
M  V30 3 C -0.097654 -1.847732 2.364632 0
M  V30 4 C 0.294981 -1.475529 1.091018 0
M  V30 5 C 0.628676 -2.532297 0.123520 0
M  V30 6 C -0.499003 -3.024759 -0.698602 0
M  V30 7 C -0.043567 -3.337830 -2.113053 0
M  V30 8 C 1.305951 -4.000601 -2.054690 0
M  V30 9 N 2.330917 -3.167988 -1.509875 0
M  V30 10 C 1.692277 -2.035862 -0.862993 0
M  V30 11 C 0.351392 -0.122842 0.799307 0
M  V30 12 C 0.042527 0.886411 1.692226 0
M  V30 13 C 0.129574 2.290862 1.299276 0
M  V30 14 C 0.504194 2.796589 0.071554 0
M  V30 15 C 0.534427 4.161070 -0.138246 0
M  V30 16 C 0.202586 5.083858 0.834616 0
M  V30 17 C -0.174839 4.600013 2.069392 0
M  V30 18 C -0.201964 3.240945 2.268899 0
M  V30 19 O -0.601561 2.868563 3.564495 0
M  V30 20 N -0.338046 0.504785 2.928454 0
M  V30 21 C -0.396051 -0.807189 3.221802 0
M  V30 22 N -0.811004 -1.129750 4.561858 0
M  V30 23 H 1.136413 -3.351038 0.678065 0
M  V30 24 H -0.801563 -4.039364 -0.304027 0
M  V30 25 H -1.355935 -2.346995 -0.783021 0
M  V30 26 H -0.742214 -4.091440 -2.557419 0
M  V30 27 H -0.089168 -2.467291 -2.779257 0
M  V30 28 H 1.610948 -4.332886 -3.076178 0
M  V30 29 H 1.181703 -4.870906 -1.366535 0
M  V30 30 H 2.893364 -3.634635 -0.755990 0
M  V30 31 H 2.502903 -1.496365 -0.339240 0
M  V30 32 H 1.275458 -1.319172 -1.600620 0
M  V30 33 H 0.666910 0.080931 -0.216181 0
M  V30 34 H 0.757569 2.063789 -0.668925 0
M  V30 35 H 0.846206 4.438541 -1.148030 0
M  V30 36 H 0.273475 6.115682 0.524007 0
M  V30 37 H -0.427499 5.319110 2.808739 0
M  V30 38 H -1.523295 3.206844 3.838791 0
M  V30 39 H -0.571468 -1.316617 5.563697 0
M  V30 40 H -1.832314 -1.209685 4.462360 0
M  V30 END ATOM
M  V30 BEGIN BOND
M  V30 1 3 1 2
M  V30 2 1 2 3
M  V30 3 2 3 4
M  V30 4 1 4 5
M  V30 5 1 5 6
M  V30 6 1 6 7
M  V30 7 1 7 8
M  V30 8 1 8 9
M  V30 9 1 9 10
M  V30 10 1 4 11
M  V30 11 2 11 12
M  V30 12 1 12 13
M  V30 13 2 13 14
M  V30 14 1 14 15
M  V30 15 2 15 16
M  V30 16 1 16 17
M  V30 17 2 17 18
M  V30 18 1 18 19
M  V30 19 1 12 20
M  V30 20 2 20 21
M  V30 21 1 21 22
M  V30 22 1 21 3
M  V30 23 1 10 5
M  V30 24 1 18 13
M  V30 25 1 5 23
M  V30 26 1 6 24
M  V30 27 1 6 25
M  V30 28 1 7 26
M  V30 29 1 7 27
M  V30 30 1 8 28
M  V30 31 1 8 29
M  V30 32 1 9 30
M  V30 33 1 10 31
M  V30 34 1 10 32
M  V30 35 1 11 33
M  V30 36 1 14 34
M  V30 37 1 15 35
M  V30 38 1 16 36
M  V30 39 1 17 37
M  V30 40 1 19 38
M  V30 41 1 22 39
M  V30 42 1 22 40
M  V30 END BOND
M  V30 END CTAB
M  END
>  <Dataset>  (256) 
ChEMBL_Kinases

>  <Ligand_Instance>  (256) 
nan

>  <PDB_ID>  (256) 
nan

>  <Standardized_SMILES>  (256) 
N#Cc1c(C2CCCNC2)cc(-c2ccccc2O)nc1N

>  <Name>  (256) 
nan

>  <Pocket>  (256) 
nan

>  <ATP_Site>  (256) 
nan

>  <Peripheral>  (256) 
nan

>  <Num_H_Atoms_ProtBoundConf>  (256) 
nan

>  <Num_Resolved_Atoms>  (256) 
nan

>  <Num_Not_Resolved_Atoms>  (256) 
nan

$$$$
CHEMBL359999
     RDKit          3D

  0  0  0  0  0  0  0  0  0  0999 V3000
M  V30 BEGIN CTAB
M  V30 COUNTS 42 45 0 0 0
M  V30 BEGIN ATOM
M  V30 1 C 2.415514 -5.762179 2.587587 0
M  V30 2 O 2.639070 -5.044234 1.375094 0
M  V30 3 C 1.785139 -4.017885 1.053747 0
M  V30 4 C 2.038370 -3.338231 -0.124683 0
M  V30 5 C 1.230205 -2.288083 -0.526948 0
M  V30 6 N 1.419599 -1.527585 -1.698261 0
M  V30 7 C 0.714342 -0.370126 -2.157715 0
M  V30 8 N 0.167676 -0.180308 -3.389701 0
M  V30 9 C -0.448042 0.997886 -3.633507 0
M  V30 10 C -0.486682 1.925919 -2.634000 0
M  V30 11 C 0.052041 1.757522 -1.393719 0
M  V30 12 C -0.145175 2.866284 -0.482188 0
M  V30 13 C -0.673136 4.121806 -0.655321 0
M  V30 14 N -0.676947 4.769162 0.537321 0
M  V30 15 N -0.159573 3.963362 1.475411 0
M  V30 16 N 0.031669 4.141980 2.766677 0
M  V30 17 C 0.568217 3.169104 3.560214 0
M  V30 18 C 0.942651 1.941813 3.056494 0
M  V30 19 C 0.707485 1.843435 1.698503 0
M  V30 20 C 0.169653 2.787767 0.849776 0
M  V30 21 N 0.656499 0.569501 -1.193391 0
M  V30 22 C 0.172145 -1.952030 0.284633 0
M  V30 23 C -0.114758 -2.604267 1.462025 0
M  V30 24 O -1.208432 -2.156765 2.173300 0
M  V30 25 C -1.665681 -2.690668 3.395546 0
M  V30 26 C 0.714249 -3.636558 1.821177 0
M  V30 27 H 2.666068 -5.047175 3.438355 0
M  V30 28 H 3.071388 -6.626571 2.675706 0
M  V30 29 H 1.356035 -6.057203 2.693985 0
M  V30 30 H 2.861937 -3.557220 -0.811661 0
M  V30 31 H 2.189435 -1.810380 -2.375160 0
M  V30 32 H -0.858542 1.068311 -4.632061 0
M  V30 33 H -1.011492 2.825152 -2.969281 0
M  V30 34 H -1.024141 4.484566 -1.629769 0
M  V30 35 H 0.730592 3.304506 4.642438 0
M  V30 36 H 1.376179 1.120311 3.595441 0
M  V30 37 H 0.987630 0.901106 1.216704 0
M  V30 38 H -0.483258 -1.121995 -0.011575 0
M  V30 39 H -0.873558 -2.604661 4.197048 0
M  V30 40 H -2.520232 -2.044608 3.714177 0
M  V30 41 H -1.952584 -3.743818 3.323477 0
M  V30 42 H 0.503337 -4.169490 2.755820 0
M  V30 END ATOM
M  V30 BEGIN BOND
M  V30 1 1 1 2
M  V30 2 1 2 3
M  V30 3 2 3 4
M  V30 4 1 4 5
M  V30 5 1 5 6
M  V30 6 1 6 7
M  V30 7 2 7 8
M  V30 8 1 8 9
M  V30 9 2 9 10
M  V30 10 1 10 11
M  V30 11 1 11 12
M  V30 12 1 12 13
M  V30 13 2 13 14
M  V30 14 1 14 15
M  V30 15 1 15 16
M  V30 16 2 16 17
M  V30 17 1 17 18
M  V30 18 2 18 19
M  V30 19 1 19 20
M  V30 20 2 11 21
M  V30 21 2 5 22
M  V30 22 1 22 23
M  V30 23 1 23 24
M  V30 24 1 24 25
M  V30 25 2 23 26
M  V30 26 1 26 3
M  V30 27 1 21 7
M  V30 28 2 20 12
M  V30 29 1 20 15
M  V30 30 1 1 27
M  V30 31 1 1 28
M  V30 32 1 1 29
M  V30 33 1 4 30
M  V30 34 1 6 31
M  V30 35 1 9 32
M  V30 36 1 10 33
M  V30 37 1 13 34
M  V30 38 1 17 35
M  V30 39 1 18 36
M  V30 40 1 19 37
M  V30 41 1 22 38
M  V30 42 1 25 39
M  V30 43 1 25 40
M  V30 44 1 25 41
M  V30 45 1 26 42
M  V30 END BOND
M  V30 END CTAB
M  END
>  <Dataset>  (257) 
ChEMBL_Kinases

>  <Ligand_Instance>  (257) 
nan

>  <PDB_ID>  (257) 
nan

>  <Standardized_SMILES>  (257) 
COc1cc(Nc2nccc(-c3cnn4ncccc34)n2)cc(OC)c1

>  <Name>  (257) 
GW801372X

>  <Pocket>  (257) 
nan

>  <ATP_Site>  (257) 
nan

>  <Peripheral>  (257) 
nan

>  <Num_H_Atoms_ProtBoundConf>  (257) 
nan

>  <Num_Resolved_Atoms>  (257) 
nan

>  <Num_Not_Resolved_Atoms>  (257) 
nan

$$$$
CHEMBL359963
     RDKit          3D

  0  0  0  0  0  0  0  0  0  0999 V3000
M  V30 BEGIN CTAB
M  V30 COUNTS 43 46 0 0 0
M  V30 BEGIN ATOM
M  V30 1 C 0.968600 -5.852158 1.433564 0
M  V30 2 C 0.372843 -4.509014 1.671499 0
M  V30 3 C -0.934444 -4.430369 0.850911 0
M  V30 4 C 1.218782 -3.359828 1.326534 0
M  V30 5 C 1.078095 -2.213420 2.099541 0
M  V30 6 C 1.849264 -1.089062 1.838167 0
M  V30 7 C 2.779665 -1.099162 0.791096 0
M  V30 8 N 3.457964 0.150480 0.677543 0
M  V30 9 C 2.603656 1.079722 0.037763 0
M  V30 10 N 3.201235 1.587438 -1.077722 0
M  V30 11 C 2.592667 2.484201 -1.878108 0
M  V30 12 C 1.319250 2.858347 -1.495629 0
M  V30 13 C 0.678715 2.355037 -0.355590 0
M  V30 14 C -0.660721 2.791549 -0.021850 0
M  V30 15 C -1.410765 3.689081 -0.774262 0
M  V30 16 N -2.604755 3.831669 -0.142391 0
M  V30 17 N -2.656063 3.090186 0.948509 0
M  V30 18 N -3.642904 2.964995 1.818453 0
M  V30 19 C -3.487253 2.137044 2.887659 0
M  V30 20 C -2.290950 1.438579 3.045792 0
M  V30 21 C -1.280597 1.605528 2.100651 0
M  V30 22 C -1.462566 2.440168 1.039200 0
M  V30 23 N 1.369192 1.468751 0.374314 0
M  V30 24 C 2.922339 -2.239270 0.020347 0
M  V30 25 C 2.140459 -3.336719 0.307216 0
M  V30 26 H 0.100098 -6.572918 1.354197 0
M  V30 27 H 1.453198 -5.934705 0.426992 0
M  V30 28 H 1.608784 -6.248122 2.244831 0
M  V30 29 H 0.111439 -4.413212 2.763949 0
M  V30 30 H -0.874047 -3.553951 0.168808 0
M  V30 31 H -1.138299 -5.369286 0.313341 0
M  V30 32 H -1.742087 -4.202407 1.560987 0
M  V30 33 H 0.347827 -2.202039 2.923835 0
M  V30 34 H 1.661925 -0.239724 2.504620 0
M  V30 35 H 4.425337 0.374395 1.006251 0
M  V30 36 H 3.030363 2.902199 -2.755947 0
M  V30 37 H 0.807514 3.584146 -2.135179 0
M  V30 38 H -1.148238 4.203078 -1.688952 0
M  V30 39 H -4.227816 1.962467 3.656406 0
M  V30 40 H -2.143897 0.774465 3.891214 0
M  V30 41 H -0.336035 1.078547 2.191388 0
M  V30 42 H 3.651033 -2.151073 -0.755648 0
M  V30 43 H 2.266158 -4.215014 -0.305508 0
M  V30 END ATOM
M  V30 BEGIN BOND
M  V30 1 1 1 2
M  V30 2 1 2 3
M  V30 3 1 2 4
M  V30 4 2 4 5
M  V30 5 1 5 6
M  V30 6 2 6 7
M  V30 7 1 7 8
M  V30 8 1 8 9
M  V30 9 2 9 10
M  V30 10 1 10 11
M  V30 11 2 11 12
M  V30 12 1 12 13
M  V30 13 1 13 14
M  V30 14 1 14 15
M  V30 15 2 15 16
M  V30 16 1 16 17
M  V30 17 1 17 18
M  V30 18 2 18 19
M  V30 19 1 19 20
M  V30 20 2 20 21
M  V30 21 1 21 22
M  V30 22 2 13 23
M  V30 23 1 7 24
M  V30 24 2 24 25
M  V30 25 1 25 4
M  V30 26 1 23 9
M  V30 27 2 22 14
M  V30 28 1 22 17
M  V30 29 1 1 26
M  V30 30 1 1 27
M  V30 31 1 1 28
M  V30 32 1 2 29
M  V30 33 1 3 30
M  V30 34 1 3 31
M  V30 35 1 3 32
M  V30 36 1 5 33
M  V30 37 1 6 34
M  V30 38 1 8 35
M  V30 39 1 11 36
M  V30 40 1 12 37
M  V30 41 1 15 38
M  V30 42 1 19 39
M  V30 43 1 20 40
M  V30 44 1 21 41
M  V30 45 1 24 42
M  V30 46 1 25 43
M  V30 END BOND
M  V30 END CTAB
M  END
>  <Dataset>  (258) 
ChEMBL_Kinases

>  <Ligand_Instance>  (258) 
nan

>  <PDB_ID>  (258) 
nan

>  <Standardized_SMILES>  (258) 
CC(C)c1ccc(Nc2nccc(-c3cnn4ncccc34)n2)cc1

>  <Name>  (258) 
GW805758X

>  <Pocket>  (258) 
nan

>  <ATP_Site>  (258) 
nan

>  <Peripheral>  (258) 
nan

>  <Num_H_Atoms_ProtBoundConf>  (258) 
nan

>  <Num_Resolved_Atoms>  (258) 
nan

>  <Num_Not_Resolved_Atoms>  (258) 
nan

$$$$
CHEMBL4080844
     RDKit          3D

  0  0  0  0  0  0  0  0  0  0999 V3000
M  V30 BEGIN CTAB
M  V30 COUNTS 46 48 0 0 0
M  V30 BEGIN ATOM
M  V30 1 C 1.468002 -4.810240 2.310107 0
M  V30 2 C 2.936343 -4.399916 2.246973 0
M  V30 3 C 3.057891 -3.032380 1.618268 0 CFG=1
M  V30 4 C 4.526122 -2.653685 1.569870 0
M  V30 5 O 4.995243 -2.711363 2.893322 0
M  V30 6 N 2.488551 -2.999813 0.292626 0
M  V30 7 C 2.511940 -1.782419 -0.461387 0
M  V30 8 C 3.550052 -1.443903 -1.303674 0
M  V30 9 C 3.494393 -0.239233 -2.001436 0
M  V30 10 C 2.411143 0.606423 -1.850911 0
M  V30 11 N 2.049370 1.806353 -2.358049 0
M  V30 12 C 0.860301 2.196971 -1.866155 0
M  V30 13 C 0.475935 1.192285 -1.020058 0
M  V30 14 C -0.763228 1.170908 -0.247111 0
M  V30 15 C -1.631757 2.150818 -0.309755 0
M  V30 16 C -2.900754 2.255218 0.405087 0
M  V30 17 C -3.741188 3.359681 0.249574 0
M  V30 18 C -4.932291 3.415615 0.946127 0
M  V30 19 C -5.350153 2.419731 1.807426 0
M  V30 20 C -4.531350 1.319347 1.973727 0
M  V30 21 C -4.948863 0.224914 2.894707 0
M  V30 22 F -4.248750 0.377701 4.078060 0
M  V30 23 F -4.491258 -0.982692 2.357691 0
M  V30 24 F -6.295417 0.173397 3.074785 0
M  V30 25 C -3.343379 1.276859 1.270923 0
M  V30 26 N 1.413178 0.226338 -1.007987 0
M  V30 27 N 1.482330 -0.926675 -0.349883 0
M  V30 28 H 1.317963 -5.521479 3.144400 0
M  V30 29 H 0.899830 -3.887013 2.509555 0
M  V30 30 H 1.106124 -5.239178 1.349338 0
M  V30 31 H 3.284951 -4.310841 3.299269 0
M  V30 32 H 3.562732 -5.135953 1.736409 0
M  V30 33 H 2.501428 -2.297294 2.240722 0
M  V30 34 H 4.677299 -1.628534 1.201795 0
M  V30 35 H 5.036833 -3.408139 0.954404 0
M  V30 36 H 5.289424 -1.845705 3.219719 0
M  V30 37 H 2.009766 -3.676204 -0.355348 0
M  V30 38 H 4.388545 -2.121566 -1.406182 0
M  V30 39 H 4.293166 0.052648 -2.668608 0
M  V30 40 H 0.329549 3.121771 -2.102516 0
M  V30 41 H -1.016520 0.349122 0.407461 0
M  V30 42 H -1.367846 2.972826 -0.970996 0
M  V30 43 H -3.391681 4.126020 -0.430338 0
M  V30 44 H -5.520992 4.311757 0.762775 0
M  V30 45 H -6.293566 2.510306 2.331045 0
M  V30 46 H -2.761116 0.390748 1.452130 0
M  V30 END ATOM
M  V30 BEGIN BOND
M  V30 1 1 1 2
M  V30 2 1 2 3
M  V30 3 1 3 4
M  V30 4 1 4 5
M  V30 5 1 3 6
M  V30 6 1 6 7
M  V30 7 1 7 8
M  V30 8 2 8 9
M  V30 9 1 9 10
M  V30 10 2 10 11
M  V30 11 1 11 12
M  V30 12 2 12 13
M  V30 13 1 13 14
M  V30 14 2 14 15
M  V30 15 1 15 16
M  V30 16 2 16 17
M  V30 17 1 17 18
M  V30 18 2 18 19
M  V30 19 1 19 20
M  V30 20 1 20 21
M  V30 21 1 21 22
M  V30 22 1 21 23
M  V30 23 1 21 24
M  V30 24 2 20 25
M  V30 25 1 13 26
M  V30 26 1 26 27
M  V30 27 2 27 7
M  V30 28 1 26 10
M  V30 29 1 25 16
M  V30 30 1 1 28
M  V30 31 1 1 29
M  V30 32 1 1 30
M  V30 33 1 2 31
M  V30 34 1 2 32
M  V30 35 1 3 33 CFG=1
M  V30 36 1 4 34
M  V30 37 1 4 35
M  V30 38 1 5 36
M  V30 39 1 6 37
M  V30 40 1 8 38
M  V30 41 1 9 39
M  V30 42 1 12 40
M  V30 43 1 14 41
M  V30 44 1 15 42
M  V30 45 1 17 43
M  V30 46 1 18 44
M  V30 47 1 19 45
M  V30 48 1 25 46
M  V30 END BOND
M  V30 END CTAB
M  END
>  <Dataset>  (259) 
ChEMBL_Kinases

>  <Ligand_Instance>  (259) 
nan

>  <PDB_ID>  (259) 
nan

>  <Standardized_SMILES>  (259) 
CC[C@@H](CO)Nc1ccc2ncc(/C=C/c3cccc(C(F)(F)F)c3)n2n1

>  <Name>  (259) 
nan

>  <Pocket>  (259) 
nan

>  <ATP_Site>  (259) 
nan

>  <Peripheral>  (259) 
nan

>  <Num_H_Atoms_ProtBoundConf>  (259) 
nan

>  <Num_Resolved_Atoms>  (259) 
nan

>  <Num_Not_Resolved_Atoms>  (259) 
nan

$$$$
CHEMBL359808
     RDKit          3D

  0  0  0  0  0  0  0  0  0  0999 V3000
M  V30 BEGIN CTAB
M  V30 COUNTS 69 75 0 0 0
M  V30 BEGIN ATOM
M  V30 1 C 0.979036 -5.982522 1.538150 0
M  V30 2 N 1.543135 -6.088594 0.215213 0
M  V30 3 C 0.580806 -6.256638 -0.821897 0
M  V30 4 C 2.578122 -5.133992 -0.046763 0
M  V30 5 C 2.099156 -3.708361 -0.123126 0
M  V30 6 C 3.301387 -2.806459 -0.399702 0
M  V30 7 N 2.870193 -1.413632 -0.479788 0
M  V30 8 N 2.478992 -0.686534 -1.508190 0
M  V30 9 C 2.162164 0.559407 -1.122535 0
M  V30 10 C 1.710820 1.697407 -1.948906 0
M  V30 11 C 0.583859 2.393775 -1.706536 0
M  V30 12 C -0.346932 2.132216 -0.618096 0
M  V30 13 C -0.639040 0.786391 -0.358160 0
M  V30 14 N -1.513126 0.731047 0.671425 0
M  V30 15 C -2.109939 -0.406752 1.292078 0
M  V30 16 C -1.600580 -1.302720 2.211890 0
M  V30 17 N -2.332182 -2.309467 2.673915 0
M  V30 18 C -3.598088 -2.479742 2.251329 0
M  V30 19 C -4.171978 -1.636545 1.344593 0
M  V30 20 C -5.483202 -1.866624 0.951577 0
M  V30 21 C -6.082005 -1.029829 0.041791 0
M  V30 22 C -5.369475 0.050668 -0.485562 0
M  V30 23 C -4.071893 0.235480 -0.064023 0
M  V30 24 C -3.404925 -0.572185 0.853186 0
M  V30 25 C -1.803459 1.982424 1.095308 0
M  V30 26 C -2.613015 2.495708 2.087737 0
M  V30 27 C -2.661722 3.881991 2.237481 0
M  V30 28 C -1.916428 4.715720 1.410067 0
M  V30 29 C -1.101176 4.209995 0.410886 0
M  V30 30 C -1.076686 2.854579 0.292010 0
M  V30 31 C 0.446298 3.445247 -2.717050 0
M  V30 32 O -0.437103 4.317787 -2.881101 0
M  V30 33 N 1.554553 3.373914 -3.613097 0
M  V30 34 C 2.345103 2.290124 -3.142587 0
M  V30 35 O 3.421298 1.877632 -3.644198 0
M  V30 36 C 2.378466 0.589892 0.238069 0
M  V30 37 C 2.269160 1.527667 1.238336 0
M  V30 38 C 2.568694 1.298422 2.566189 0
M  V30 39 C 3.008471 0.064228 2.959551 0
M  V30 40 C 3.131940 -0.899710 1.993882 0
M  V30 41 C 2.826183 -0.654221 0.650927 0
M  V30 42 H 1.772342 -6.173095 2.304821 0
M  V30 43 H 0.231660 -6.792751 1.655292 0
M  V30 44 H 0.522942 -5.009135 1.773377 0
M  V30 45 H 1.112426 -6.268149 -1.796279 0
M  V30 46 H -0.186627 -5.446683 -0.885846 0
M  V30 47 H 0.094906 -7.251723 -0.674419 0
M  V30 48 H 3.007763 -5.416499 -1.047051 0
M  V30 49 H 3.417506 -5.272879 0.660455 0
M  V30 50 H 1.426415 -3.579581 -0.995510 0
M  V30 51 H 1.523741 -3.407872 0.758425 0
M  V30 52 H 4.028772 -2.980698 0.406134 0
M  V30 53 H 3.713966 -3.134054 -1.374810 0
M  V30 54 H -0.316336 -0.146796 -0.798288 0
M  V30 55 H -0.559875 -1.055239 2.474227 0
M  V30 56 H -4.124905 -3.321833 2.674725 0
M  V30 57 H -6.049847 -2.700634 1.351853 0
M  V30 58 H -7.094414 -1.126148 -0.326269 0
M  V30 59 H -5.808166 0.734426 -1.207094 0
M  V30 60 H -3.520530 1.053408 -0.460185 0
M  V30 61 H -3.165776 1.794658 2.696706 0
M  V30 62 H -3.311764 4.210743 3.031887 0
M  V30 63 H -1.988083 5.787595 1.565874 0
M  V30 64 H -0.523029 4.861641 -0.224967 0
M  V30 65 H 1.764539 3.967724 -4.434481 0
M  V30 66 H 1.939254 2.526821 1.004686 0
M  V30 67 H 2.473826 2.059808 3.337047 0
M  V30 68 H 3.243396 -0.115414 3.995375 0
M  V30 69 H 3.479852 -1.880613 2.294369 0
M  V30 END ATOM
M  V30 BEGIN BOND
M  V30 1 1 1 2
M  V30 2 1 2 3
M  V30 3 1 2 4
M  V30 4 1 4 5
M  V30 5 1 5 6
M  V30 6 1 6 7
M  V30 7 1 7 8
M  V30 8 2 8 9
M  V30 9 1 9 10
M  V30 10 2 10 11
M  V30 11 1 11 12
M  V30 12 2 12 13
M  V30 13 1 13 14
M  V30 14 1 14 15
M  V30 15 2 15 16
M  V30 16 1 16 17
M  V30 17 2 17 18
M  V30 18 1 18 19
M  V30 19 2 19 20
M  V30 20 1 20 21
M  V30 21 2 21 22
M  V30 22 1 22 23
M  V30 23 2 23 24
M  V30 24 1 14 25
M  V30 25 2 25 26
M  V30 26 1 26 27
M  V30 27 2 27 28
M  V30 28 1 28 29
M  V30 29 2 29 30
M  V30 30 1 11 31
M  V30 31 2 31 32
M  V30 32 1 31 33
M  V30 33 1 33 34
M  V30 34 2 34 35
M  V30 35 1 9 36
M  V30 36 2 36 37
M  V30 37 1 37 38
M  V30 38 2 38 39
M  V30 39 1 39 40
M  V30 40 2 40 41
M  V30 41 1 41 7
M  V30 42 1 34 10
M  V30 43 1 41 36
M  V30 44 1 30 12
M  V30 45 1 24 15
M  V30 46 1 30 25
M  V30 47 1 24 19
M  V30 48 1 1 42
M  V30 49 1 1 43
M  V30 50 1 1 44
M  V30 51 1 3 45
M  V30 52 1 3 46
M  V30 53 1 3 47
M  V30 54 1 4 48
M  V30 55 1 4 49
M  V30 56 1 5 50
M  V30 57 1 5 51
M  V30 58 1 6 52
M  V30 59 1 6 53
M  V30 60 1 13 54
M  V30 61 1 16 55
M  V30 62 1 18 56
M  V30 63 1 20 57
M  V30 64 1 21 58
M  V30 65 1 22 59
M  V30 66 1 23 60
M  V30 67 1 26 61
M  V30 68 1 27 62
M  V30 69 1 28 63
M  V30 70 1 29 64
M  V30 71 1 33 65
M  V30 72 1 37 66
M  V30 73 1 38 67
M  V30 74 1 39 68
M  V30 75 1 40 69
M  V30 END BOND
M  V30 END CTAB
M  END
>  <Dataset>  (260) 
ChEMBL_Kinases

>  <Ligand_Instance>  (260) 
nan

>  <PDB_ID>  (260) 
nan

>  <Standardized_SMILES>  (260) 
CN(C)CCCn1nc(C2=C(c3cn(-c4cncc5ccccc45)c4ccccc34)C(=O)NC2=O)c2ccccc21

>  <Name>  (260) 
nan

>  <Pocket>  (260) 
nan

>  <ATP_Site>  (260) 
nan

>  <Peripheral>  (260) 
nan

>  <Num_H_Atoms_ProtBoundConf>  (260) 
nan

>  <Num_Resolved_Atoms>  (260) 
nan

>  <Num_Not_Resolved_Atoms>  (260) 
nan

$$$$
CHEMBL3597991
     RDKit          3D

  0  0  0  0  0  0  0  0  0  0999 V3000
M  V30 BEGIN CTAB
M  V30 COUNTS 24 26 0 0 0
M  V30 BEGIN ATOM
M  V30 1 C 1.918068 -3.165682 2.876458 0
M  V30 2 C 1.309580 -4.365847 2.509466 0
M  V30 3 N 0.475580 -4.460124 1.452523 0
M  V30 4 C 0.177678 -3.386833 0.679450 0
M  V30 5 C 0.747540 -2.170062 0.989942 0
M  V30 6 C 0.451434 -0.972175 0.171686 0
M  V30 7 C 0.207091 -1.172295 -1.194808 0
M  V30 8 S -0.114351 0.603376 -1.788270 0
M  V30 9 C 0.130786 1.282262 -0.135025 0
M  V30 10 C 0.011878 2.666382 0.072333 0
M  V30 11 C -0.259615 3.750351 -0.662094 0
M  V30 12 N -0.318533 4.990019 -0.233372 0
M  V30 13 C -0.076113 5.151678 1.084624 0
M  V30 14 S 0.255019 3.414338 1.737952 0
M  V30 15 C 0.412291 0.262420 0.701752 0
M  V30 16 C 1.600959 -2.069334 2.070238 0
M  V30 17 H 2.588114 -3.079710 3.722345 0
M  V30 18 H 1.502617 -5.267936 3.084102 0
M  V30 19 H -0.480291 -3.396521 -0.178851 0
M  V30 20 H 0.215896 -2.170669 -1.738824 0
M  V30 21 H -0.459588 3.631762 -1.740035 0
M  V30 22 H -0.091575 6.161931 1.596555 0
M  V30 23 H 0.589176 0.487968 1.740743 0
M  V30 24 H 2.058498 -1.133552 2.335122 0
M  V30 END ATOM
M  V30 BEGIN BOND
M  V30 1 2 1 2
M  V30 2 1 2 3
M  V30 3 2 3 4
M  V30 4 1 4 5
M  V30 5 1 5 6
M  V30 6 2 6 7
M  V30 7 1 7 8
M  V30 8 1 8 9
M  V30 9 1 9 10
M  V30 10 2 10 11
M  V30 11 1 11 12
M  V30 12 2 12 13
M  V30 13 1 13 14
M  V30 14 2 9 15
M  V30 15 2 5 16
M  V30 16 1 16 1
M  V30 17 1 15 6
M  V30 18 1 14 10
M  V30 19 1 1 17
M  V30 20 1 2 18
M  V30 21 1 4 19
M  V30 22 1 7 20
M  V30 23 1 11 21
M  V30 24 1 13 22
M  V30 25 1 15 23
M  V30 26 1 16 24
M  V30 END BOND
M  V30 END CTAB
M  END
>  <Dataset>  (261) 
ChEMBL_Kinases

>  <Ligand_Instance>  (261) 
nan

>  <PDB_ID>  (261) 
nan

>  <Standardized_SMILES>  (261) 
c1cncc(-c2csc(-c3cncs3)c2)c1

>  <Name>  (261) 
nan

>  <Pocket>  (261) 
nan

>  <ATP_Site>  (261) 
nan

>  <Peripheral>  (261) 
nan

>  <Num_H_Atoms_ProtBoundConf>  (261) 
nan

>  <Num_Resolved_Atoms>  (261) 
nan

>  <Num_Not_Resolved_Atoms>  (261) 
nan

$$$$
CHEMBL359794
     RDKit          3D

  0  0  0  0  0  0  0  0  0  0999 V3000
M  V30 BEGIN CTAB
M  V30 COUNTS 35 38 0 0 0
M  V30 BEGIN ATOM
M  V30 1 N 0.175267 -4.793507 4.945078 0
M  V30 2 C 0.454997 -4.289223 3.941820 0
M  V30 3 C 0.781440 -3.660285 2.693094 0
M  V30 4 C 0.778282 -4.440873 1.542148 0
M  V30 5 C 1.086052 -3.848866 0.327241 0
M  V30 6 C 1.395589 -2.525595 0.193605 0
M  V30 7 N 1.703426 -1.862797 -1.042021 0
M  V30 8 C 2.011756 -0.474645 -1.032211 0
M  V30 9 N 3.120272 0.222324 -1.302317 0
M  V30 10 C 3.174721 1.562783 -1.200660 0
M  V30 11 C 2.008058 2.184785 -0.798141 0
M  V30 12 C 0.834204 1.530804 -0.504900 0
M  V30 13 C -0.380909 2.226529 -0.059864 0
M  V30 14 C -0.658619 3.558094 0.109760 0
M  V30 15 N -1.923902 3.609484 0.554028 0
M  V30 16 N -2.446867 2.393141 0.669795 0
M  V30 17 N -3.662974 2.076585 1.079117 0
M  V30 18 C -4.029657 0.761807 1.138457 0
M  V30 19 C -3.152751 -0.272343 0.776513 0
M  V30 20 C -1.917864 0.173850 0.366931 0
M  V30 21 C -1.503750 1.478139 0.291011 0
M  V30 22 N 0.917648 0.181794 -0.648533 0
M  V30 23 C 1.388135 -1.776087 1.370499 0
M  V30 24 C 1.090626 -2.309560 2.606612 0
M  V30 25 H 0.552459 -5.487331 1.508363 0
M  V30 26 H 1.103295 -4.402960 -0.619809 0
M  V30 27 H 1.698808 -2.392381 -1.927790 0
M  V30 28 H 4.104138 2.051737 -1.435444 0
M  V30 29 H 2.030052 3.279870 -0.709636 0
M  V30 30 H 0.047128 4.349826 -0.093360 0
M  V30 31 H -5.025011 0.418532 1.469089 0
M  V30 32 H -3.353020 -1.317251 0.792556 0
M  V30 33 H -1.190069 -0.578153 0.072810 0
M  V30 34 H 1.612920 -0.721639 1.424383 0
M  V30 35 H 1.070280 -1.778040 3.531064 0
M  V30 END ATOM
M  V30 BEGIN BOND
M  V30 1 3 1 2
M  V30 2 1 2 3
M  V30 3 2 3 4
M  V30 4 1 4 5
M  V30 5 2 5 6
M  V30 6 1 6 7
M  V30 7 1 7 8
M  V30 8 2 8 9
M  V30 9 1 9 10
M  V30 10 2 10 11
M  V30 11 1 11 12
M  V30 12 1 12 13
M  V30 13 1 13 14
M  V30 14 2 14 15
M  V30 15 1 15 16
M  V30 16 1 16 17
M  V30 17 2 17 18
M  V30 18 1 18 19
M  V30 19 2 19 20
M  V30 20 1 20 21
M  V30 21 2 12 22
M  V30 22 1 6 23
M  V30 23 2 23 24
M  V30 24 1 24 3
M  V30 25 1 22 8
M  V30 26 2 21 13
M  V30 27 1 21 16
M  V30 28 1 4 25
M  V30 29 1 5 26
M  V30 30 1 7 27
M  V30 31 1 10 28
M  V30 32 1 11 29
M  V30 33 1 14 30
M  V30 34 1 18 31
M  V30 35 1 19 32
M  V30 36 1 20 33
M  V30 37 1 23 34
M  V30 38 1 24 35
M  V30 END BOND
M  V30 END CTAB
M  END
>  <Dataset>  (262) 
ChEMBL_Kinases

>  <Ligand_Instance>  (262) 
nan

>  <PDB_ID>  (262) 
nan

>  <Standardized_SMILES>  (262) 
N#Cc1ccc(Nc2nccc(-c3cnn4ncccc34)n2)cc1

>  <Name>  (262) 
nan

>  <Pocket>  (262) 
nan

>  <ATP_Site>  (262) 
nan

>  <Peripheral>  (262) 
nan

>  <Num_H_Atoms_ProtBoundConf>  (262) 
nan

>  <Num_Resolved_Atoms>  (262) 
nan

>  <Num_Not_Resolved_Atoms>  (262) 
nan

$$$$
CHEMBL408151
     RDKit          3D

  0  0  0  0  0  0  0  0  0  0999 V3000
M  V30 BEGIN CTAB
M  V30 COUNTS 73 80 0 0 0
M  V30 BEGIN ATOM
M  V30 1 O 4.660735 -3.025491 -1.288609 0
M  V30 2 C 3.534619 -3.599669 -1.283017 0
M  V30 3 N 3.339763 -4.484806 -0.291152 0
M  V30 4 C 2.107807 -4.987979 -0.445548 0
M  V30 5 C 1.369210 -5.924027 0.256155 0
M  V30 6 C 0.091510 -6.272329 -0.130025 0
M  V30 7 C -0.412807 -5.637245 -1.255397 0
M  V30 8 C 0.328430 -4.721235 -1.929853 0
M  V30 9 C 1.604676 -4.357693 -1.562899 0
M  V30 10 N 2.453321 -3.489130 -2.113995 0
M  V30 11 C 2.388338 -2.613232 -3.257426 0
M  V30 12 C 1.060825 -2.066028 -3.543909 0
M  V30 13 C 0.988724 -0.674527 -4.134249 0
M  V30 14 N 2.014409 0.108374 -3.611692 0
M  V30 15 C 1.839731 1.386700 -3.120908 0
M  V30 16 C 0.898441 1.352599 -1.943364 0
M  V30 17 C 1.465270 1.122696 -0.684131 0
M  V30 18 C 0.789895 1.055682 0.513014 0
M  V30 19 C -0.566897 1.232931 0.450855 0
M  V30 20 C -1.370463 1.176682 1.664364 0
M  V30 21 N -2.252854 0.143083 1.599660 0
M  V30 22 C -3.101499 -0.079919 2.645553 0
M  V30 23 C -4.016459 -1.131484 2.607856 0
M  V30 24 C -4.883705 -1.359581 3.676746 0
M  V30 25 C -5.856169 -2.445956 3.681959 0
M  V30 26 N -7.074564 -2.216151 3.139133 0
M  V30 27 N -7.821497 -3.316984 3.235296 0
M  V30 28 N -7.081015 -4.250581 3.839373 0
M  V30 29 N -5.887135 -3.730529 4.113804 0
M  V30 30 C -4.780021 -0.496800 4.749636 0
M  V30 31 C -3.878197 0.551339 4.803622 0
M  V30 32 C -3.030224 0.758798 3.736259 0
M  V30 33 N -2.156133 1.765794 3.776207 0
M  V30 34 C -1.301508 2.014280 2.757228 0
M  V30 35 C -0.304698 3.074807 2.681084 0
M  V30 36 C -0.168977 4.129945 1.817315 0
M  V30 37 C 0.880047 5.007623 1.963507 0
M  V30 38 C 1.809718 4.856216 2.964379 0
M  V30 39 C 1.699347 3.804205 3.848783 0
M  V30 40 C 0.636460 2.913068 3.702360 0
M  V30 41 C -1.163182 1.462021 -0.770138 0
M  V30 42 C -0.468484 1.524566 -1.950155 0
M  V30 43 C 3.273938 -0.382741 -4.011786 0
M  V30 44 C 3.506498 -1.615387 -3.154658 0
M  V30 45 H 3.947119 -4.800840 0.496257 0
M  V30 46 H 1.798638 -6.385721 1.114736 0
M  V30 47 H -0.436594 -7.010765 0.459115 0
M  V30 48 H -1.418661 -5.939696 -1.524867 0
M  V30 49 H -0.138581 -4.298848 -2.772738 0
M  V30 50 H 2.672409 -3.272836 -4.132569 0
M  V30 51 H 0.444900 -2.015532 -2.627598 0
M  V30 52 H 0.500262 -2.695054 -4.300517 0
M  V30 53 H -0.036226 -0.263885 -3.925552 0
M  V30 54 H 0.991638 -0.747126 -5.268445 0
M  V30 55 H 2.793641 1.810177 -2.731252 0
M  V30 56 H 1.379838 2.128219 -3.812942 0
M  V30 57 H 2.556389 0.979446 -0.629560 0
M  V30 58 H 1.332387 0.872231 1.429904 0
M  V30 59 H -4.078428 -1.783915 1.770379 0
M  V30 60 H -7.124339 -5.252944 4.169255 0
M  V30 61 H -5.442428 -0.657838 5.584551 0
M  V30 62 H -3.801423 1.221361 5.642862 0
M  V30 63 H -0.958239 4.139604 1.078707 0
M  V30 64 H 0.918218 5.809949 1.246861 0
M  V30 65 H 2.632152 5.554028 3.069858 0
M  V30 66 H 2.452862 3.728420 4.616404 0
M  V30 67 H 0.667622 2.131733 4.463489 0
M  V30 68 H -2.255827 1.604741 -0.820093 0
M  V30 69 H -0.897662 1.705550 -2.920420 0
M  V30 70 H 4.128647 0.297387 -3.835546 0
M  V30 71 H 3.360649 -0.711343 -5.070245 0
M  V30 72 H 4.493206 -2.020394 -3.423119 0
M  V30 73 H 3.593340 -1.193637 -2.125021 0
M  V30 END ATOM
M  V30 BEGIN BOND
M  V30 1 2 1 2
M  V30 2 1 2 3
M  V30 3 1 3 4
M  V30 4 2 4 5
M  V30 5 1 5 6
M  V30 6 2 6 7
M  V30 7 1 7 8
M  V30 8 2 8 9
M  V30 9 1 9 10
M  V30 10 1 10 11
M  V30 11 1 11 12
M  V30 12 1 12 13
M  V30 13 1 13 14
M  V30 14 1 14 15
M  V30 15 1 15 16
M  V30 16 2 16 17
M  V30 17 1 17 18
M  V30 18 2 18 19
M  V30 19 1 19 20
M  V30 20 2 20 21
M  V30 21 1 21 22
M  V30 22 2 22 23
M  V30 23 1 23 24
M  V30 24 1 24 25
M  V30 25 1 25 26
M  V30 26 2 26 27
M  V30 27 1 27 28
M  V30 28 1 28 29
M  V30 29 2 24 30
M  V30 30 1 30 31
M  V30 31 2 31 32
M  V30 32 1 32 33
M  V30 33 2 33 34
M  V30 34 1 34 35
M  V30 35 2 35 36
M  V30 36 1 36 37
M  V30 37 2 37 38
M  V30 38 1 38 39
M  V30 39 2 39 40
M  V30 40 1 19 41
M  V30 41 2 41 42
M  V30 42 1 14 43
M  V30 43 1 43 44
M  V30 44 1 10 2
M  V30 45 1 44 11
M  V30 46 1 9 4
M  V30 47 1 42 16
M  V30 48 1 34 20
M  V30 49 1 40 35
M  V30 50 1 32 22
M  V30 51 2 29 25
M  V30 52 1 3 45
M  V30 53 1 5 46
M  V30 54 1 6 47
M  V30 55 1 7 48
M  V30 56 1 8 49
M  V30 57 1 11 50
M  V30 58 1 12 51
M  V30 59 1 12 52
M  V30 60 1 13 53
M  V30 61 1 13 54
M  V30 62 1 15 55
M  V30 63 1 15 56
M  V30 64 1 17 57
M  V30 65 1 18 58
M  V30 66 1 23 59
M  V30 67 1 28 60
M  V30 68 1 30 61
M  V30 69 1 31 62
M  V30 70 1 36 63
M  V30 71 1 37 64
M  V30 72 1 38 65
M  V30 73 1 39 66
M  V30 74 1 40 67
M  V30 75 1 41 68
M  V30 76 1 42 69
M  V30 77 1 43 70
M  V30 78 1 43 71
M  V30 79 1 44 72
M  V30 80 1 44 73
M  V30 END BOND
M  V30 END CTAB
M  END
>  <Dataset>  (263) 
ChEMBL_Kinases

>  <Ligand_Instance>  (263) 
nan

>  <PDB_ID>  (263) 
nan

>  <Standardized_SMILES>  (263) 
O=c1[nH]c2ccccc2n1C1CCN(Cc2ccc(-c3nc4cc(-c5nn[nH]n5)ccc4nc3-c3ccccc3)cc2)CC1

>  <Name>  (263) 
nan

>  <Pocket>  (263) 
nan

>  <ATP_Site>  (263) 
nan

>  <Peripheral>  (263) 
nan

>  <Num_H_Atoms_ProtBoundConf>  (263) 
nan

>  <Num_Resolved_Atoms>  (263) 
nan

>  <Num_Not_Resolved_Atoms>  (263) 
nan

$$$$
CHEMBL4081716
     RDKit          3D

  0  0  0  0  0  0  0  0  0  0999 V3000
M  V30 BEGIN CTAB
M  V30 COUNTS 50 54 0 0 0
M  V30 BEGIN ATOM
M  V30 1 C -0.729511 -2.865016 3.802827 0
M  V30 2 C 0.525455 -3.330739 3.168026 0
M  V30 3 C 1.089291 -4.472337 3.694871 0
M  V30 4 N 2.213588 -4.911952 3.151569 0
M  V30 5 C 2.780123 -4.263094 2.122609 0
M  V30 6 C 2.236851 -3.133670 1.589408 0
M  V30 7 C 2.969386 -2.512589 0.463916 0
M  V30 8 C 2.385416 -1.375597 -0.035269 0
M  V30 9 C 3.039591 -0.777511 -1.061504 0
M  V30 10 C 2.723730 0.342721 -1.751318 0
M  V30 11 C 1.558696 1.191619 -1.543251 0
M  V30 12 C 1.297978 2.314103 -2.253733 0
M  V30 13 C 0.208766 3.137781 -2.082852 0
M  V30 14 C -0.703994 2.805918 -1.109963 0
M  V30 15 C -0.447011 1.664714 -0.381890 0
M  V30 16 N -1.413803 1.301429 0.629375 0
M  V30 17 C -1.217715 0.262242 1.621665 0
M  V30 18 C -2.067993 -0.941520 1.364699 0
M  V30 19 C -3.108631 -0.727914 0.294714 0
M  V30 20 N -4.158082 0.164611 0.649258 0
M  V30 21 C -3.753543 1.387580 1.296525 0
M  V30 22 C -2.640181 2.066521 0.569535 0
M  V30 23 N 0.634023 0.946379 -0.631331 0
M  V30 24 N 3.601641 0.838857 -2.860439 0
M  V30 25 S 4.905359 -0.455126 -2.805808 0
M  V30 26 C 4.194789 -1.411812 -1.442452 0
M  V30 27 C 4.798228 -2.576337 -0.936319 0
M  V30 28 N 4.103726 -3.117470 0.074099 0
M  V30 29 N 1.097280 -2.671373 2.125303 0
M  V30 30 H -0.741530 -1.752359 3.811260 0
M  V30 31 H -1.584145 -3.302024 3.280065 0
M  V30 32 H -0.781261 -3.197420 4.867557 0
M  V30 33 H 0.635589 -4.998282 4.524450 0
M  V30 34 H 3.706193 -4.749734 1.783235 0
M  V30 35 H 1.469978 -0.974011 0.348253 0
M  V30 36 H 1.964658 2.662284 -3.050244 0
M  V30 37 H 0.061811 4.020320 -2.685941 0
M  V30 38 H -1.550445 3.474264 -0.995065 0
M  V30 39 H -0.152154 0.012839 1.730435 0
M  V30 40 H -1.525119 0.676735 2.627255 0
M  V30 41 H -2.596762 -1.273786 2.271043 0
M  V30 42 H -1.409539 -1.761956 1.015488 0
M  V30 43 H -2.647274 -0.550045 -0.701153 0
M  V30 44 H -3.599755 -1.739506 0.190490 0
M  V30 45 H -4.630581 0.448457 -0.247493 0
M  V30 46 H -3.476757 1.143500 2.341659 0
M  V30 47 H -4.630567 2.068470 1.352042 0
M  V30 48 H -2.503818 3.118222 0.848346 0
M  V30 49 H -2.935825 2.099519 -0.521145 0
M  V30 50 H 5.705371 -2.947346 -1.343542 0
M  V30 END ATOM
M  V30 BEGIN BOND
M  V30 1 1 1 2
M  V30 2 2 2 3
M  V30 3 1 3 4
M  V30 4 2 4 5
M  V30 5 1 5 6
M  V30 6 1 6 7
M  V30 7 2 7 8
M  V30 8 1 8 9
M  V30 9 1 9 10
M  V30 10 1 10 11
M  V30 11 2 11 12
M  V30 12 1 12 13
M  V30 13 2 13 14
M  V30 14 1 14 15
M  V30 15 1 15 16
M  V30 16 1 16 17
M  V30 17 1 17 18
M  V30 18 1 18 19
M  V30 19 1 19 20
M  V30 20 1 20 21
M  V30 21 1 21 22
M  V30 22 2 15 23
M  V30 23 2 10 24
M  V30 24 1 24 25
M  V30 25 1 25 26
M  V30 26 1 26 27
M  V30 27 2 27 28
M  V30 28 2 6 29
M  V30 29 1 29 2
M  V30 30 1 28 7
M  V30 31 2 26 9
M  V30 32 1 23 11
M  V30 33 1 22 16
M  V30 34 1 1 30
M  V30 35 1 1 31
M  V30 36 1 1 32
M  V30 37 1 3 33
M  V30 38 1 5 34
M  V30 39 1 8 35
M  V30 40 1 12 36
M  V30 41 1 13 37
M  V30 42 1 14 38
M  V30 43 1 17 39
M  V30 44 1 17 40
M  V30 45 1 18 41
M  V30 46 1 18 42
M  V30 47 1 19 43
M  V30 48 1 19 44
M  V30 49 1 20 45
M  V30 50 1 21 46
M  V30 51 1 21 47
M  V30 52 1 22 48
M  V30 53 1 22 49
M  V30 54 1 27 50
M  V30 END BOND
M  V30 END CTAB
M  END
>  <Dataset>  (264) 
ChEMBL_Kinases

>  <Ligand_Instance>  (264) 
nan

>  <PDB_ID>  (264) 
nan

>  <Standardized_SMILES>  (264) 
Cc1cncc(-c2cc3c(-c4cccc(N5CCCNCC5)n4)nsc3cn2)n1

>  <Name>  (264) 
nan

>  <Pocket>  (264) 
nan

>  <ATP_Site>  (264) 
nan

>  <Peripheral>  (264) 
nan

>  <Num_H_Atoms_ProtBoundConf>  (264) 
nan

>  <Num_Resolved_Atoms>  (264) 
nan

>  <Num_Not_Resolved_Atoms>  (264) 
nan

$$$$
CHEMBL4082309
     RDKit          3D

  0  0  0  0  0  0  0  0  0  0999 V3000
M  V30 BEGIN CTAB
M  V30 COUNTS 56 59 0 0 0
M  V30 BEGIN ATOM
M  V30 1 C 2.900055 -2.800673 -0.687907 0
M  V30 2 C 2.092474 -3.685081 0.242534 0
M  V30 3 C 2.888950 -4.870046 0.710489 0
M  V30 4 N 1.536414 -2.949550 1.345487 0
M  V30 5 C 1.859336 -3.049193 2.660613 0
M  V30 6 N 1.085364 -2.169295 3.334396 0
M  V30 7 C 0.319293 -1.559159 2.444997 0
M  V30 8 C -0.643176 -0.576818 2.637360 0
M  V30 9 N -0.936701 -0.051390 3.923578 0
M  V30 10 C -0.594603 1.251804 4.376593 0
M  V30 11 C -0.111721 2.233961 3.538348 0
M  V30 12 C 0.210685 3.494365 3.985297 0
M  V30 13 N 0.697742 4.444624 3.032537 0
M  V30 14 C 0.034161 3.748594 5.315236 0
M  V30 15 C -0.449274 2.802774 6.216666 0
M  V30 16 Cl -0.633315 3.238499 7.900783 0
M  V30 17 C -0.762920 1.540279 5.721264 0
M  V30 18 N -1.283899 -0.127862 1.548702 0
M  V30 19 C -1.066500 -0.552782 0.292671 0
M  V30 20 N -1.786689 -0.008243 -0.799101 0
M  V30 21 C -1.668782 -0.352041 -2.176647 0 CFG=1
M  V30 22 C -0.235546 -0.158921 -2.700093 0
M  V30 23 C -0.179053 -0.840719 -4.059565 0
M  V30 24 C -1.553810 -0.859400 -4.725630 0
M  V30 25 C -2.525481 -1.718882 -3.979270 0
M  V30 26 C -2.057554 -1.773368 -2.513929 0 CFG=2
M  V30 27 N -3.147555 -2.252121 -1.674753 0
M  V30 28 N -0.127258 -1.504141 0.147185 0
M  V30 29 C 0.558549 -2.011052 1.161882 0
M  V30 30 H 3.916658 -2.611164 -0.298144 0
M  V30 31 H 2.961896 -3.242151 -1.716640 0
M  V30 32 H 2.393577 -1.818231 -0.812234 0
M  V30 33 H 1.245038 -4.078794 -0.354987 0
M  V30 34 H 3.919114 -4.496812 0.985956 0
M  V30 35 H 3.037556 -5.626918 -0.084843 0
M  V30 36 H 2.470259 -5.374236 1.577169 0
M  V30 37 H 2.609535 -3.734684 3.023686 0
M  V30 38 H -1.438744 -0.725365 4.531667 0
M  V30 39 H -0.007741 1.926554 2.488136 0
M  V30 40 H 1.588947 4.520429 2.458958 0
M  V30 41 H -0.116556 5.128004 3.027032 0
M  V30 42 H 0.310114 4.768130 5.602540 0
M  V30 43 H -1.134820 0.841096 6.480943 0
M  V30 44 H -2.490323 0.739594 -0.562404 0
M  V30 45 H -2.276970 0.353205 -2.821853 0
M  V30 46 H 0.039772 0.913497 -2.741729 0
M  V30 47 H 0.454340 -0.661519 -2.004403 0
M  V30 48 H 0.506361 -0.273123 -4.727355 0
M  V30 49 H 0.234544 -1.865982 -3.956251 0
M  V30 50 H -1.876585 0.208792 -4.804923 0
M  V30 51 H -1.413572 -1.304133 -5.729441 0
M  V30 52 H -3.525236 -1.280599 -4.010993 0
M  V30 53 H -2.525205 -2.761487 -4.398898 0
M  V30 54 H -1.213200 -2.481429 -2.409673 0
M  V30 55 H -3.951370 -1.583892 -1.827772 0
M  V30 56 H -3.513068 -3.168810 -2.010424 0
M  V30 END ATOM
M  V30 BEGIN BOND
M  V30 1 1 1 2
M  V30 2 1 2 3
M  V30 3 1 2 4
M  V30 4 1 4 5
M  V30 5 2 5 6
M  V30 6 1 6 7
M  V30 7 2 7 8
M  V30 8 1 8 9
M  V30 9 1 9 10
M  V30 10 2 10 11
M  V30 11 1 11 12
M  V30 12 1 12 13
M  V30 13 2 12 14
M  V30 14 1 14 15
M  V30 15 1 15 16
M  V30 16 2 15 17
M  V30 17 1 8 18
M  V30 18 2 18 19
M  V30 19 1 19 20
M  V30 20 1 20 21
M  V30 21 1 21 22
M  V30 22 1 22 23
M  V30 23 1 23 24
M  V30 24 1 24 25
M  V30 25 1 25 26
M  V30 26 1 26 27
M  V30 27 1 19 28
M  V30 28 2 28 29
M  V30 29 1 29 4
M  V30 30 1 29 7
M  V30 31 1 17 10
M  V30 32 1 26 21
M  V30 33 1 1 30
M  V30 34 1 1 31
M  V30 35 1 1 32
M  V30 36 1 2 33
M  V30 37 1 3 34
M  V30 38 1 3 35
M  V30 39 1 3 36
M  V30 40 1 5 37
M  V30 41 1 9 38
M  V30 42 1 11 39
M  V30 43 1 13 40
M  V30 44 1 13 41
M  V30 45 1 14 42
M  V30 46 1 17 43
M  V30 47 1 20 44
M  V30 48 1 21 45 CFG=3
M  V30 49 1 22 46
M  V30 50 1 22 47
M  V30 51 1 23 48
M  V30 52 1 23 49
M  V30 53 1 24 50
M  V30 54 1 24 51
M  V30 55 1 25 52
M  V30 56 1 25 53
M  V30 57 1 26 54 CFG=3
M  V30 58 1 27 55
M  V30 59 1 27 56
M  V30 END BOND
M  V30 END CTAB
M  END
>  <Dataset>  (265) 
ChEMBL_Kinases

>  <Ligand_Instance>  (265) 
nan

>  <PDB_ID>  (265) 
nan

>  <Standardized_SMILES>  (265) 
CC(C)n1cnc2c(Nc3cc(N)cc(Cl)c3)nc(N[C@H]3CCCC[C@@H]3N)nc21

>  <Name>  (265) 
nan

>  <Pocket>  (265) 
nan

>  <ATP_Site>  (265) 
nan

>  <Peripheral>  (265) 
nan

>  <Num_H_Atoms_ProtBoundConf>  (265) 
nan

>  <Num_Resolved_Atoms>  (265) 
nan

>  <Num_Not_Resolved_Atoms>  (265) 
nan

$$$$
CHEMBL4080283
     RDKit          3D

  0  0  0  0  0  0  0  0  0  0999 V3000
M  V30 BEGIN CTAB
M  V30 COUNTS 51 54 0 0 0
M  V30 BEGIN ATOM
M  V30 1 C 1.931080 -4.867031 4.444700 0
M  V30 2 C 2.492532 -4.918313 3.048856 0
M  V30 3 N 2.812313 -3.538671 2.661139 0
M  V30 4 C 3.973852 -2.886771 2.844376 0
M  V30 5 N 3.818587 -1.651776 2.336359 0
M  V30 6 C 2.561142 -1.510842 1.828306 0
M  V30 7 C 1.944010 -0.439699 1.212457 0
M  V30 8 N 2.657458 0.755501 1.029916 0
M  V30 9 C 2.232651 1.989279 0.470584 0
M  V30 10 C 3.070287 3.043066 0.228889 0
M  V30 11 C 2.671881 4.242694 -0.305380 0
M  V30 12 C 1.369298 4.448195 -0.633573 0
M  V30 13 C 0.474943 3.440493 -0.420349 0
M  V30 14 Cl -1.193783 3.734913 -0.850959 0
M  V30 15 C 0.918797 2.263884 0.113922 0
M  V30 16 N 0.690133 -0.682079 0.845560 0
M  V30 17 C 0.020889 -1.831129 1.022660 0
M  V30 18 N -1.321337 -2.020827 0.597135 0
M  V30 19 C -2.065426 -0.984301 -0.079832 0 CFG=1
M  V30 20 C -1.408832 -0.611476 -1.401185 0
M  V30 21 C -2.315585 0.366316 -2.103045 0
M  V30 22 C -3.428628 0.883354 -1.224887 0
M  V30 23 C -4.331494 -0.280686 -0.802071 0
M  V30 24 C -3.466489 -1.449829 -0.385853 0 CFG=2
M  V30 25 N -3.968744 -2.095449 0.808579 0
M  V30 26 N 0.681171 -2.833031 1.629144 0
M  V30 27 C 1.952958 -2.709061 2.045749 0
M  V30 28 H 2.541761 -4.188231 5.090911 0
M  V30 29 H 0.903042 -4.454728 4.423224 0
M  V30 30 H 1.968564 -5.883657 4.914975 0
M  V30 31 H 1.698734 -5.287136 2.367743 0
M  V30 32 H 3.389808 -5.576377 3.003251 0
M  V30 33 H 4.866918 -3.305803 3.321821 0
M  V30 34 H 3.673596 0.779657 1.346231 0
M  V30 35 H 4.137949 2.937142 0.474327 0
M  V30 36 H 3.413772 5.024606 -0.461814 0
M  V30 37 H 1.112683 5.407679 -1.048987 0
M  V30 38 H 0.147777 1.519804 0.253583 0
M  V30 39 H -1.786869 -2.934562 0.777237 0
M  V30 40 H -2.081367 -0.075618 0.587707 0
M  V30 41 H -0.377657 -0.256096 -1.257149 0
M  V30 42 H -1.438647 -1.552122 -2.013921 0
M  V30 43 H -2.819374 -0.071884 -3.000851 0
M  V30 44 H -1.718451 1.246766 -2.435419 0
M  V30 45 H -3.101299 1.425065 -0.335070 0
M  V30 46 H -4.057143 1.554122 -1.835628 0
M  V30 47 H -4.938412 -0.517202 -1.718099 0
M  V30 48 H -5.006806 0.061095 -0.013636 0
M  V30 49 H -3.443388 -2.176561 -1.200381 0
M  V30 50 H -3.787164 -1.551965 1.668792 0
M  V30 51 H -3.823987 -3.107428 0.854617 0
M  V30 END ATOM
M  V30 BEGIN BOND
M  V30 1 1 1 2
M  V30 2 1 2 3
M  V30 3 1 3 4
M  V30 4 2 4 5
M  V30 5 1 5 6
M  V30 6 2 6 7
M  V30 7 1 7 8
M  V30 8 1 8 9
M  V30 9 2 9 10
M  V30 10 1 10 11
M  V30 11 2 11 12
M  V30 12 1 12 13
M  V30 13 1 13 14
M  V30 14 2 13 15
M  V30 15 1 7 16
M  V30 16 2 16 17
M  V30 17 1 17 18
M  V30 18 1 18 19
M  V30 19 1 19 20
M  V30 20 1 20 21
M  V30 21 1 21 22
M  V30 22 1 22 23
M  V30 23 1 23 24
M  V30 24 1 24 25
M  V30 25 1 17 26
M  V30 26 2 26 27
M  V30 27 1 27 3
M  V30 28 1 27 6
M  V30 29 1 15 9
M  V30 30 1 24 19
M  V30 31 1 1 28
M  V30 32 1 1 29
M  V30 33 1 1 30
M  V30 34 1 2 31
M  V30 35 1 2 32
M  V30 36 1 4 33
M  V30 37 1 8 34
M  V30 38 1 10 35
M  V30 39 1 11 36
M  V30 40 1 12 37
M  V30 41 1 15 38
M  V30 42 1 18 39
M  V30 43 1 19 40 CFG=1
M  V30 44 1 20 41
M  V30 45 1 20 42
M  V30 46 1 21 43
M  V30 47 1 21 44
M  V30 48 1 22 45
M  V30 49 1 22 46
M  V30 50 1 23 47
M  V30 51 1 23 48
M  V30 52 1 24 49 CFG=3
M  V30 53 1 25 50
M  V30 54 1 25 51
M  V30 END BOND
M  V30 END CTAB
M  END
>  <Dataset>  (266) 
ChEMBL_Kinases

>  <Ligand_Instance>  (266) 
nan

>  <PDB_ID>  (266) 
nan

>  <Standardized_SMILES>  (266) 
CCn1cnc2c(Nc3cccc(Cl)c3)nc(N[C@H]3CCCC[C@@H]3N)nc21

>  <Name>  (266) 
nan

>  <Pocket>  (266) 
nan

>  <ATP_Site>  (266) 
nan

>  <Peripheral>  (266) 
nan

>  <Num_H_Atoms_ProtBoundConf>  (266) 
nan

>  <Num_Resolved_Atoms>  (266) 
nan

>  <Num_Not_Resolved_Atoms>  (266) 
nan

$$$$
CHEMBL3634770
     RDKit          3D

  0  0  0  0  0  0  0  0  0  0999 V3000
M  V30 BEGIN CTAB
M  V30 COUNTS 47 51 0 0 0
M  V30 BEGIN ATOM
M  V30 1 C 1.229720 -6.344769 3.398193 0
M  V30 2 N 0.790839 -5.099977 2.793844 0
M  V30 3 C -0.458782 -4.873509 2.316443 0
M  V30 4 C -0.429215 -3.575773 1.839561 0
M  V30 5 C -1.581082 -2.914758 1.230184 0
M  V30 6 C -1.501100 -1.616318 0.768758 0
M  V30 7 C -2.624329 -1.059239 0.207270 0
M  V30 8 C -2.839971 0.192858 -0.329694 0
M  V30 9 C -1.874498 1.283109 -0.435259 0
M  V30 10 C -2.264956 2.476841 -1.005713 0
M  V30 11 C -1.392630 3.556395 -1.136708 0
M  V30 12 C -0.084589 3.391876 -0.664132 0
M  V30 13 C 0.282267 2.188080 -0.097301 0
M  V30 14 N 1.618883 2.064403 0.369005 0
M  V30 15 C 2.547504 3.143348 0.259754 0
M  V30 16 C 3.606103 2.896856 1.342751 0
M  V30 17 N 4.406488 1.783867 0.885738 0
M  V30 18 C 3.550144 0.706804 0.469067 0
M  V30 19 C 2.133788 0.854647 0.980554 0
M  V30 20 N -0.596651 1.172384 0.007652 0
M  V30 21 N -4.114056 0.207652 -0.735362 0
M  V30 22 N -4.708868 -0.939768 -0.492155 0
M  V30 23 C -3.820636 -1.768895 0.097506 0
M  V30 24 C -3.846490 -3.070832 0.577264 0
M  V30 25 N -2.723241 -3.603158 1.129451 0
M  V30 26 C 0.835595 -3.045063 2.038055 0
M  V30 27 N 1.538844 -4.033454 2.629259 0
M  V30 28 H 1.387410 -7.122820 2.650593 0
M  V30 29 H 2.168645 -6.178823 3.980075 0
M  V30 30 H 0.480435 -6.688644 4.145122 0
M  V30 31 H -1.272312 -5.609422 2.336604 0
M  V30 32 H -0.572212 -1.069098 0.855366 0
M  V30 33 H -3.301137 2.558589 -1.361851 0
M  V30 34 H -1.735452 4.479540 -1.590628 0
M  V30 35 H 0.533100 4.256429 -0.794597 0
M  V30 36 H 3.056823 3.167373 -0.731534 0
M  V30 37 H 2.105777 4.134175 0.496732 0
M  V30 38 H 3.087620 2.560961 2.272408 0
M  V30 39 H 4.180103 3.785864 1.596486 0
M  V30 40 H 5.090559 1.432873 1.577822 0
M  V30 41 H 3.938649 -0.295679 0.710037 0
M  V30 42 H 3.470388 0.748000 -0.646519 0
M  V30 43 H 2.030658 0.805507 2.063468 0
M  V30 44 H 1.572302 -0.030872 0.570589 0
M  V30 45 H -5.698898 -1.188534 -0.709896 0
M  V30 46 H -4.791908 -3.596887 0.477541 0
M  V30 47 H 1.180457 -2.066408 1.779795 0
M  V30 END ATOM
M  V30 BEGIN BOND
M  V30 1 1 1 2
M  V30 2 1 2 3
M  V30 3 2 3 4
M  V30 4 1 4 5
M  V30 5 2 5 6
M  V30 6 1 6 7
M  V30 7 1 7 8
M  V30 8 1 8 9
M  V30 9 2 9 10
M  V30 10 1 10 11
M  V30 11 2 11 12
M  V30 12 1 12 13
M  V30 13 1 13 14
M  V30 14 1 14 15
M  V30 15 1 15 16
M  V30 16 1 16 17
M  V30 17 1 17 18
M  V30 18 1 18 19
M  V30 19 2 13 20
M  V30 20 2 8 21
M  V30 21 1 21 22
M  V30 22 1 22 23
M  V30 23 1 23 24
M  V30 24 2 24 25
M  V30 25 1 4 26
M  V30 26 2 26 27
M  V30 27 1 27 2
M  V30 28 1 25 5
M  V30 29 2 23 7
M  V30 30 1 20 9
M  V30 31 1 19 14
M  V30 32 1 1 28
M  V30 33 1 1 29
M  V30 34 1 1 30
M  V30 35 1 3 31
M  V30 36 1 6 32
M  V30 37 1 10 33
M  V30 38 1 11 34
M  V30 39 1 12 35
M  V30 40 1 15 36
M  V30 41 1 15 37
M  V30 42 1 16 38
M  V30 43 1 16 39
M  V30 44 1 17 40
M  V30 45 1 18 41
M  V30 46 1 18 42
M  V30 47 1 19 43
M  V30 48 1 19 44
M  V30 49 1 22 45
M  V30 50 1 24 46
M  V30 51 1 26 47
M  V30 END BOND
M  V30 END CTAB
M  END
>  <Dataset>  (267) 
ChEMBL_Kinases

>  <Ligand_Instance>  (267) 
nan

>  <PDB_ID>  (267) 
nan

>  <Standardized_SMILES>  (267) 
Cn1cc(-c2cc3c(-c4cccc(N5CCNCC5)n4)n[nH]c3cn2)cn1

>  <Name>  (267) 
nan

>  <Pocket>  (267) 
nan

>  <ATP_Site>  (267) 
nan

>  <Peripheral>  (267) 
nan

>  <Num_H_Atoms_ProtBoundConf>  (267) 
nan

>  <Num_Resolved_Atoms>  (267) 
nan

>  <Num_Not_Resolved_Atoms>  (267) 
nan

$$$$
CHEMBL3634769
     RDKit          3D

  0  0  0  0  0  0  0  0  0  0999 V3000
M  V30 BEGIN CTAB
M  V30 COUNTS 52 56 0 0 0
M  V30 BEGIN ATOM
M  V30 1 C 0.259633 -1.329552 5.504167 0
M  V30 2 C -0.229533 -2.516733 4.704711 0
M  V30 3 N 0.847555 -3.065441 3.912182 0
M  V30 4 C 1.633048 -4.024303 4.414088 0
M  V30 5 N 2.618239 -4.506595 3.651967 0
M  V30 6 C 2.842830 -4.054117 2.391818 0
M  V30 7 C 2.063022 -3.067973 1.827474 0
M  V30 8 C 2.375341 -2.648791 0.477148 0
M  V30 9 C 1.755498 -1.687178 -0.282942 0
M  V30 10 C 2.146789 -1.376553 -1.562297 0
M  V30 11 C 1.704614 -0.480711 -2.509062 0
M  V30 12 C 0.607880 0.464381 -2.407880 0
M  V30 13 C 0.316612 1.279057 -3.490482 0
M  V30 14 C -0.678597 2.221772 -3.572589 0
M  V30 15 C -1.468670 2.368230 -2.454942 0
M  V30 16 C -1.196955 1.569053 -1.367771 0
M  V30 17 N -1.975181 1.671253 -0.186304 0
M  V30 18 C -1.711464 0.901696 1.016355 0
M  V30 19 C -2.825423 -0.121451 1.087048 0
M  V30 20 N -4.042585 0.635526 1.321170 0
M  V30 21 C -4.299601 1.610913 0.295780 0
M  V30 22 C -3.121798 2.523146 0.017224 0
M  V30 23 N -0.203221 0.664624 -1.358447 0
M  V30 24 N 2.498143 -0.631482 -3.608657 0
M  V30 25 N 3.390915 -1.564641 -3.378975 0
M  V30 26 C 3.205664 -2.041754 -2.138115 0
M  V30 27 C 3.825003 -3.005191 -1.373411 0
M  V30 28 N 3.393132 -3.261730 -0.126602 0
M  V30 29 C 1.076243 -2.625330 2.668785 0
M  V30 30 O 0.322087 -1.735331 2.245584 0
M  V30 31 H 1.073287 -0.778392 4.990144 0
M  V30 32 H -0.625437 -0.671057 5.674325 0
M  V30 33 H 0.686593 -1.650173 6.495587 0
M  V30 34 H -1.124389 -2.282701 4.108090 0
M  V30 35 H -0.569145 -3.269184 5.472671 0
M  V30 36 H 1.519679 -4.437010 5.406212 0
M  V30 37 H 3.681331 -4.537732 1.884591 0
M  V30 38 H 0.925907 -1.154788 0.146547 0
M  V30 39 H 0.931231 1.185853 -4.399861 0
M  V30 40 H -0.826280 2.808801 -4.463258 0
M  V30 41 H -2.259450 3.101712 -2.488971 0
M  V30 42 H -0.759259 0.366054 0.899151 0
M  V30 43 H -1.712163 1.563871 1.910980 0
M  V30 44 H -2.831619 -0.668201 0.134047 0
M  V30 45 H -2.713485 -0.815789 1.942631 0
M  V30 46 H -3.877532 1.124091 2.245607 0
M  V30 47 H -4.531401 1.043465 -0.649580 0
M  V30 48 H -5.186699 2.192590 0.616696 0
M  V30 49 H -2.959128 3.122743 0.960651 0
M  V30 50 H -3.395066 3.154573 -0.825176 0
M  V30 51 H 4.124328 -1.886643 -4.044412 0
M  V30 52 H 4.663819 -3.573421 -1.750010 0
M  V30 END ATOM
M  V30 BEGIN BOND
M  V30 1 1 1 2
M  V30 2 1 2 3
M  V30 3 1 3 4
M  V30 4 2 4 5
M  V30 5 1 5 6
M  V30 6 2 6 7
M  V30 7 1 7 8
M  V30 8 2 8 9
M  V30 9 1 9 10
M  V30 10 1 10 11
M  V30 11 1 11 12
M  V30 12 2 12 13
M  V30 13 1 13 14
M  V30 14 2 14 15
M  V30 15 1 15 16
M  V30 16 1 16 17
M  V30 17 1 17 18
M  V30 18 1 18 19
M  V30 19 1 19 20
M  V30 20 1 20 21
M  V30 21 1 21 22
M  V30 22 2 16 23
M  V30 23 2 11 24
M  V30 24 1 24 25
M  V30 25 1 25 26
M  V30 26 1 26 27
M  V30 27 2 27 28
M  V30 28 1 7 29
M  V30 29 2 29 30
M  V30 30 1 29 3
M  V30 31 1 28 8
M  V30 32 2 26 10
M  V30 33 1 23 12
M  V30 34 1 22 17
M  V30 35 1 1 31
M  V30 36 1 1 32
M  V30 37 1 1 33
M  V30 38 1 2 34
M  V30 39 1 2 35
M  V30 40 1 4 36
M  V30 41 1 6 37
M  V30 42 1 9 38
M  V30 43 1 13 39
M  V30 44 1 14 40
M  V30 45 1 15 41
M  V30 46 1 18 42
M  V30 47 1 18 43
M  V30 48 1 19 44
M  V30 49 1 19 45
M  V30 50 1 20 46
M  V30 51 1 21 47
M  V30 52 1 21 48
M  V30 53 1 22 49
M  V30 54 1 22 50
M  V30 55 1 25 51
M  V30 56 1 27 52
M  V30 END BOND
M  V30 END CTAB
M  END
>  <Dataset>  (268) 
ChEMBL_Kinases

>  <Ligand_Instance>  (268) 
nan

>  <PDB_ID>  (268) 
nan

>  <Standardized_SMILES>  (268) 
CCn1cncc(-c2cc3c(-c4cccc(N5CCNCC5)n4)n[nH]c3cn2)c1=O

>  <Name>  (268) 
nan

>  <Pocket>  (268) 
nan

>  <ATP_Site>  (268) 
nan

>  <Peripheral>  (268) 
nan

>  <Num_H_Atoms_ProtBoundConf>  (268) 
nan

>  <Num_Resolved_Atoms>  (268) 
nan

>  <Num_Not_Resolved_Atoms>  (268) 
nan

$$$$
CHEMBL3634768
     RDKit          3D

  0  0  0  0  0  0  0  0  0  0999 V3000
M  V30 BEGIN CTAB
M  V30 COUNTS 48 52 0 0 0
M  V30 BEGIN ATOM
M  V30 1 C -0.373229 -5.990272 3.886838 0
M  V30 2 N -0.423799 -4.755510 3.127227 0
M  V30 3 C -1.557861 -4.361811 2.526616 0
M  V30 4 C -1.264553 -3.176982 1.907320 0
M  V30 5 C -2.198333 -2.376464 1.126027 0
M  V30 6 C -1.814131 -1.190642 0.535347 0
M  V30 7 C -2.658313 -0.402404 -0.209743 0
M  V30 8 C -2.514701 0.793720 -0.883718 0
M  V30 9 C -1.304583 1.604064 -0.983565 0
M  V30 10 C -1.346746 2.779566 -1.704524 0
M  V30 11 C -0.222159 3.576706 -1.823817 0
M  V30 12 C 0.970315 3.188704 -1.208103 0
M  V30 13 C 0.972545 1.998018 -0.490805 0
M  V30 14 C 2.226211 1.558152 0.175719 0
M  V30 15 C 2.049897 1.403534 1.667080 0
M  V30 16 C 3.109980 0.540052 2.270789 0
M  V30 17 N 4.301663 0.399644 1.495413 0
M  V30 18 C 4.115095 0.016687 0.130650 0
M  V30 19 C 2.695593 0.219166 -0.347969 0
M  V30 20 N -0.135008 1.244698 -0.392426 0
M  V30 21 N -3.718842 1.056239 -1.427711 0
M  V30 22 N -4.579699 0.107205 -1.132374 0
M  V30 23 C -3.968373 -0.833217 -0.370333 0
M  V30 24 C -4.353518 -2.028965 0.226020 0
M  V30 25 N -3.476449 -2.754517 0.943916 0
M  V30 26 C 0.050604 -2.846068 2.129734 0
M  V30 27 N 0.528545 -3.853832 2.889690 0
M  V30 28 H -0.995838 -6.784149 3.413101 0
M  V30 29 H 0.648783 -6.382290 3.994813 0
M  V30 30 H -0.830173 -5.822785 4.896780 0
M  V30 31 H -2.522384 -4.836239 2.503018 0
M  V30 32 H -0.782132 -0.873460 0.675200 0
M  V30 33 H -2.276604 3.060961 -2.171902 0
M  V30 34 H -0.281448 4.499806 -2.398362 0
M  V30 35 H 1.829210 3.820556 -1.313077 0
M  V30 36 H 3.015830 2.311705 -0.024952 0
M  V30 37 H 1.065008 0.921304 1.847331 0
M  V30 38 H 1.966984 2.405686 2.151691 0
M  V30 39 H 2.737331 -0.477977 2.580386 0
M  V30 40 H 3.421268 1.056319 3.224530 0
M  V30 41 H 5.034052 1.100636 1.650296 0
M  V30 42 H 4.449026 -1.033456 -0.011055 0
M  V30 43 H 4.767505 0.635944 -0.541612 0
M  V30 44 H 2.052597 -0.601079 -0.018709 0
M  V30 45 H 2.713756 0.171138 -1.461252 0
M  V30 46 H -5.590887 0.042773 -1.417710 0
M  V30 47 H -5.396434 -2.313838 0.063204 0
M  V30 48 H 0.608424 -1.984238 1.789708 0
M  V30 END ATOM
M  V30 BEGIN BOND
M  V30 1 1 1 2
M  V30 2 1 2 3
M  V30 3 2 3 4
M  V30 4 1 4 5
M  V30 5 2 5 6
M  V30 6 1 6 7
M  V30 7 1 7 8
M  V30 8 1 8 9
M  V30 9 2 9 10
M  V30 10 1 10 11
M  V30 11 2 11 12
M  V30 12 1 12 13
M  V30 13 1 13 14
M  V30 14 1 14 15
M  V30 15 1 15 16
M  V30 16 1 16 17
M  V30 17 1 17 18
M  V30 18 1 18 19
M  V30 19 2 13 20
M  V30 20 2 8 21
M  V30 21 1 21 22
M  V30 22 1 22 23
M  V30 23 1 23 24
M  V30 24 2 24 25
M  V30 25 1 4 26
M  V30 26 2 26 27
M  V30 27 1 27 2
M  V30 28 1 25 5
M  V30 29 2 23 7
M  V30 30 1 20 9
M  V30 31 1 19 14
M  V30 32 1 1 28
M  V30 33 1 1 29
M  V30 34 1 1 30
M  V30 35 1 3 31
M  V30 36 1 6 32
M  V30 37 1 10 33
M  V30 38 1 11 34
M  V30 39 1 12 35
M  V30 40 1 14 36
M  V30 41 1 15 37
M  V30 42 1 15 38
M  V30 43 1 16 39
M  V30 44 1 16 40
M  V30 45 1 17 41
M  V30 46 1 18 42
M  V30 47 1 18 43
M  V30 48 1 19 44
M  V30 49 1 19 45
M  V30 50 1 22 46
M  V30 51 1 24 47
M  V30 52 1 26 48
M  V30 END BOND
M  V30 END CTAB
M  END
>  <Dataset>  (269) 
ChEMBL_Kinases

>  <Ligand_Instance>  (269) 
nan

>  <PDB_ID>  (269) 
nan

>  <Standardized_SMILES>  (269) 
Cn1cc(-c2cc3c(-c4cccc(C5CCNCC5)n4)n[nH]c3cn2)cn1

>  <Name>  (269) 
nan

>  <Pocket>  (269) 
nan

>  <ATP_Site>  (269) 
nan

>  <Peripheral>  (269) 
nan

>  <Num_H_Atoms_ProtBoundConf>  (269) 
nan

>  <Num_Resolved_Atoms>  (269) 
nan

>  <Num_Not_Resolved_Atoms>  (269) 
nan

$$$$
CHEMBL3634767
     RDKit          3D

  0  0  0  0  0  0  0  0  0  0999 V3000
M  V30 BEGIN CTAB
M  V30 COUNTS 50 54 0 0 0
M  V30 BEGIN ATOM
M  V30 1 C -2.025224 -6.583454 3.072655 0
M  V30 2 N -1.642025 -5.366847 2.368607 0
M  V30 3 C -1.488213 -5.201603 1.034823 0
M  V30 4 C -1.117293 -3.903831 0.747239 0
M  V30 5 C -0.871439 -3.400791 -0.601604 0
M  V30 6 C -0.502965 -2.090894 -0.824465 0
M  V30 7 C -0.280339 -1.652512 -2.106738 0
M  V30 8 C 0.089098 -0.438522 -2.646583 0
M  V30 9 C 0.368368 0.812991 -1.954758 0
M  V30 10 C 0.736593 1.912110 -2.732677 0
M  V30 11 C 1.030948 3.158677 -2.192472 0
M  V30 12 C 0.936471 3.250889 -0.810696 0
M  V30 13 C 0.573486 2.170305 -0.034804 0
M  V30 14 N 0.488005 2.284701 1.377798 0
M  V30 15 C 0.889494 3.505069 2.009661 0
M  V30 16 C 1.190196 3.308482 3.487788 0
M  V30 17 C 2.244258 2.241058 3.637343 0
M  V30 18 N 1.580289 0.977717 3.867308 0
M  V30 19 C 1.161430 0.340009 2.631145 0
M  V30 20 C -0.016482 1.123688 2.084316 0
M  V30 21 N 0.303237 0.996561 -0.624400 0
M  V30 22 N 0.138560 -0.665983 -3.981177 0
M  V30 23 N -0.174435 -1.915222 -4.239615 0
M  V30 24 C -0.450048 -2.592066 -3.096201 0
M  V30 25 C -0.817121 -3.908459 -2.911778 0
M  V30 26 N -1.022190 -4.275868 -1.612802 0
M  V30 27 C -1.050772 -3.277983 1.975035 0
M  V30 28 N -1.374339 -4.193192 2.932191 0
M  V30 29 H -1.146571 -7.079215 3.491277 0
M  V30 30 H -2.712085 -6.268674 3.889498 0
M  V30 31 H -2.635449 -7.232361 2.411188 0
M  V30 32 H -1.654359 -6.029270 0.361183 0
M  V30 33 H -0.383463 -1.396980 -0.011709 0
M  V30 34 H 0.803712 1.812479 -3.822652 0
M  V30 35 H 1.308117 3.958211 -2.866719 0
M  V30 36 H 1.165710 4.220029 -0.413330 0
M  V30 37 H 0.087075 4.267358 1.931319 0
M  V30 38 H 1.783802 3.964243 1.493430 0
M  V30 39 H 0.268744 2.948618 3.983879 0
M  V30 40 H 1.486332 4.248340 3.971980 0
M  V30 41 H 2.868747 2.448700 4.533868 0
M  V30 42 H 2.856953 2.124373 2.709726 0
M  V30 43 H 2.170598 0.339482 4.450217 0
M  V30 44 H 2.003195 0.324136 1.913856 0
M  V30 45 H 0.911052 -0.717056 2.848657 0
M  V30 46 H -0.648594 1.453125 2.947480 0
M  V30 47 H -0.611340 0.526036 1.382239 0
M  V30 48 H -0.209121 -2.342892 -5.204840 0
M  V30 49 H -0.930892 -4.590096 -3.743030 0
M  V30 50 H -0.778190 -2.235050 2.056610 0
M  V30 END ATOM
M  V30 BEGIN BOND
M  V30 1 1 1 2
M  V30 2 1 2 3
M  V30 3 2 3 4
M  V30 4 1 4 5
M  V30 5 2 5 6
M  V30 6 1 6 7
M  V30 7 1 7 8
M  V30 8 1 8 9
M  V30 9 2 9 10
M  V30 10 1 10 11
M  V30 11 2 11 12
M  V30 12 1 12 13
M  V30 13 1 13 14
M  V30 14 1 14 15
M  V30 15 1 15 16
M  V30 16 1 16 17
M  V30 17 1 17 18
M  V30 18 1 18 19
M  V30 19 1 19 20
M  V30 20 2 13 21
M  V30 21 2 8 22
M  V30 22 1 22 23
M  V30 23 1 23 24
M  V30 24 1 24 25
M  V30 25 2 25 26
M  V30 26 1 4 27
M  V30 27 2 27 28
M  V30 28 1 28 2
M  V30 29 1 26 5
M  V30 30 2 24 7
M  V30 31 1 21 9
M  V30 32 1 20 14
M  V30 33 1 1 29
M  V30 34 1 1 30
M  V30 35 1 1 31
M  V30 36 1 3 32
M  V30 37 1 6 33
M  V30 38 1 10 34
M  V30 39 1 11 35
M  V30 40 1 12 36
M  V30 41 1 15 37
M  V30 42 1 15 38
M  V30 43 1 16 39
M  V30 44 1 16 40
M  V30 45 1 17 41
M  V30 46 1 17 42
M  V30 47 1 18 43
M  V30 48 1 19 44
M  V30 49 1 19 45
M  V30 50 1 20 46
M  V30 51 1 20 47
M  V30 52 1 23 48
M  V30 53 1 25 49
M  V30 54 1 27 50
M  V30 END BOND
M  V30 END CTAB
M  END
>  <Dataset>  (270) 
ChEMBL_Kinases

>  <Ligand_Instance>  (270) 
nan

>  <PDB_ID>  (270) 
nan

>  <Standardized_SMILES>  (270) 
Cn1cc(-c2cc3c(-c4cccc(N5CCCNCC5)n4)n[nH]c3cn2)cn1

>  <Name>  (270) 
nan

>  <Pocket>  (270) 
nan

>  <ATP_Site>  (270) 
nan

>  <Peripheral>  (270) 
nan

>  <Num_H_Atoms_ProtBoundConf>  (270) 
nan

>  <Num_Resolved_Atoms>  (270) 
nan

>  <Num_Not_Resolved_Atoms>  (270) 
nan

$$$$
CHEMBL3634766
     RDKit          3D

  0  0  0  0  0  0  0  0  0  0999 V3000
M  V30 BEGIN CTAB
M  V30 COUNTS 33 36 0 0 0
M  V30 BEGIN ATOM
M  V30 1 C 0.803587 -5.378701 1.495806 0
M  V30 2 N -0.165816 -4.481798 0.896808 0
M  V30 3 C -0.046653 -3.149396 0.820849 0
M  V30 4 C -1.165008 -2.656248 0.184522 0
M  V30 5 C -1.613957 -1.332701 -0.194122 0
M  V30 6 C -0.817123 -0.251787 0.096906 0
M  V30 7 C -0.930459 1.180035 -0.121732 0
M  V30 8 C -0.271954 2.482553 0.019348 0
M  V30 9 C 0.905076 1.984156 0.721095 0
M  V30 10 C 1.288947 1.116335 1.690639 0
M  V30 11 C 2.574497 1.028916 2.152075 0
M  V30 12 C 3.531759 1.860586 1.615172 0
M  V30 13 C 3.166301 2.752292 0.632414 0
M  V30 14 N 1.885792 2.789918 0.218649 0
M  V30 15 N -1.271858 2.905567 -0.576578 0
M  V30 16 N -2.301876 2.456088 -1.045676 0
M  V30 17 C -2.175974 1.162865 -0.769939 0
M  V30 18 C -3.097970 0.220897 -1.142455 0
M  V30 19 N -2.779259 -1.044495 -0.831999 0
M  V30 20 C -1.973186 -3.718803 -0.127949 0
M  V30 21 N -1.297049 -4.781078 0.335940 0
M  V30 22 H 1.780601 -5.340081 0.977874 0
M  V30 23 H 0.364529 -6.382257 1.554727 0
M  V30 24 H 0.965239 -5.033613 2.559693 0
M  V30 25 H 0.737569 -2.488584 1.163393 0
M  V30 26 H 0.097683 -0.647761 0.529103 0
M  V30 27 H 0.439976 0.584624 2.075387 0
M  V30 28 H 2.669926 0.278909 2.916914 0
M  V30 29 H 4.517247 1.723821 2.039512 0
M  V30 30 H 4.037826 3.329399 0.319170 0
M  V30 31 H -2.970535 3.150448 -1.499308 0
M  V30 32 H -4.018965 0.429458 -1.644762 0
M  V30 33 H -2.927932 -3.731636 -0.626364 0
M  V30 END ATOM
M  V30 BEGIN BOND
M  V30 1 1 1 2
M  V30 2 1 2 3
M  V30 3 2 3 4
M  V30 4 1 4 5
M  V30 5 2 5 6
M  V30 6 1 6 7
M  V30 7 1 7 8
M  V30 8 1 8 9
M  V30 9 2 9 10
M  V30 10 1 10 11
M  V30 11 2 11 12
M  V30 12 1 12 13
M  V30 13 2 13 14
M  V30 14 2 8 15
M  V30 15 1 15 16
M  V30 16 1 16 17
M  V30 17 1 17 18
M  V30 18 2 18 19
M  V30 19 1 4 20
M  V30 20 2 20 21
M  V30 21 1 21 2
M  V30 22 1 19 5
M  V30 23 2 17 7
M  V30 24 1 14 9
M  V30 25 1 1 22
M  V30 26 1 1 23
M  V30 27 1 1 24
M  V30 28 1 3 25
M  V30 29 1 6 26
M  V30 30 1 10 27
M  V30 31 1 11 28
M  V30 32 1 12 29
M  V30 33 1 13 30
M  V30 34 1 16 31
M  V30 35 1 18 32
M  V30 36 1 20 33
M  V30 END BOND
M  V30 END CTAB
M  END
>  <Dataset>  (271) 
ChEMBL_Kinases

>  <Ligand_Instance>  (271) 
nan

>  <PDB_ID>  (271) 
nan

>  <Standardized_SMILES>  (271) 
Cn1cc(-c2cc3c(-c4ccccn4)n[nH]c3cn2)cn1

>  <Name>  (271) 
nan

>  <Pocket>  (271) 
nan

>  <ATP_Site>  (271) 
nan

>  <Peripheral>  (271) 
nan

>  <Num_H_Atoms_ProtBoundConf>  (271) 
nan

>  <Num_Resolved_Atoms>  (271) 
nan

>  <Num_Not_Resolved_Atoms>  (271) 
nan

$$$$
CHEMBL3634765
     RDKit          3D

  0  0  0  0  0  0  0  0  0  0999 V3000
M  V30 BEGIN CTAB
M  V30 COUNTS 50 54 0 0 0
M  V30 BEGIN ATOM
M  V30 1 C 0.804668 -5.335699 -0.111990 0
M  V30 2 C 1.819351 -4.490965 0.316654 0
M  V30 3 C 1.642508 -3.126136 0.479925 0
M  V30 4 C 2.778874 -2.332751 0.935934 0
M  V30 5 N 4.029456 -2.774541 1.230886 0
M  V30 6 N 4.782542 -1.763855 1.609380 0
M  V30 7 C 4.086094 -0.607940 1.588278 0
M  V30 8 C 4.407912 0.705855 1.888765 0
M  V30 9 N 3.444997 1.631603 1.753775 0
M  V30 10 C 2.192669 1.341268 1.343119 0
M  V30 11 N 1.211043 2.364158 1.217907 0
M  V30 12 C -0.152206 2.104617 0.779872 0
M  V30 13 C -0.956865 3.325088 1.244725 0
M  V30 14 O -0.623731 3.556903 2.581820 0
M  V30 15 C 0.596906 4.224143 2.593042 0
M  V30 16 C 1.558943 3.736817 1.535058 0
M  V30 17 C 1.894676 0.035371 1.050824 0
M  V30 18 C 2.819187 -0.974780 1.161340 0
M  V30 19 N 0.433660 -2.615530 0.208006 0
M  V30 20 C -0.603141 -3.363597 -0.211870 0
M  V30 21 N -1.851888 -2.738772 -0.477440 0
M  V30 22 C -1.947831 -1.305078 -0.279632 0
M  V30 23 C -3.085365 -0.816336 -1.142724 0
M  V30 24 N -4.353586 -1.396405 -0.765528 0
M  V30 25 C -4.211479 -2.754961 -0.297651 0
M  V30 26 C -3.003650 -3.458040 -0.926433 0
M  V30 27 C -0.402827 -4.719348 -0.366870 0
M  V30 28 H 0.962868 -6.405516 -0.234262 0
M  V30 29 H 2.784512 -4.915643 0.531086 0
M  V30 30 H 5.795821 -1.868743 1.888178 0
M  V30 31 H 5.400012 0.981729 2.221344 0
M  V30 32 H -0.566376 1.176006 1.176281 0
M  V30 33 H -0.258905 2.101433 -0.325823 0
M  V30 34 H -2.028976 3.190284 1.095334 0
M  V30 35 H -0.588583 4.209973 0.672501 0
M  V30 36 H 1.063340 3.986995 3.576863 0
M  V30 37 H 0.370906 5.304283 2.485215 0
M  V30 38 H 2.611583 3.789346 1.866578 0
M  V30 39 H 1.451211 4.383142 0.615308 0
M  V30 40 H 0.896620 -0.222705 0.719346 0
M  V30 41 H -1.026235 -0.814043 -0.649110 0
M  V30 42 H -2.076854 -1.030020 0.784929 0
M  V30 43 H -2.814509 -1.063140 -2.200287 0
M  V30 44 H -3.116428 0.296683 -1.087698 0
M  V30 45 H -4.726731 -0.827529 0.028563 0
M  V30 46 H -3.992495 -2.723822 0.788614 0
M  V30 47 H -5.139013 -3.325196 -0.490980 0
M  V30 48 H -3.052704 -4.501881 -0.520155 0
M  V30 49 H -3.149620 -3.455866 -2.009403 0
M  V30 50 H -1.208839 -5.358297 -0.702332 0
M  V30 END ATOM
M  V30 BEGIN BOND
M  V30 1 2 1 2
M  V30 2 1 2 3
M  V30 3 1 3 4
M  V30 4 2 4 5
M  V30 5 1 5 6
M  V30 6 1 6 7
M  V30 7 2 7 8
M  V30 8 1 8 9
M  V30 9 2 9 10
M  V30 10 1 10 11
M  V30 11 1 11 12
M  V30 12 1 12 13
M  V30 13 1 13 14
M  V30 14 1 14 15
M  V30 15 1 15 16
M  V30 16 1 10 17
M  V30 17 2 17 18
M  V30 18 2 3 19
M  V30 19 1 19 20
M  V30 20 1 20 21
M  V30 21 1 21 22
M  V30 22 1 22 23
M  V30 23 1 23 24
M  V30 24 1 24 25
M  V30 25 1 25 26
M  V30 26 2 20 27
M  V30 27 1 27 1
M  V30 28 1 18 4
M  V30 29 1 26 21
M  V30 30 1 18 7
M  V30 31 1 16 11
M  V30 32 1 1 28
M  V30 33 1 2 29
M  V30 34 1 6 30
M  V30 35 1 8 31
M  V30 36 1 12 32
M  V30 37 1 12 33
M  V30 38 1 13 34
M  V30 39 1 13 35
M  V30 40 1 15 36
M  V30 41 1 15 37
M  V30 42 1 16 38
M  V30 43 1 16 39
M  V30 44 1 17 40
M  V30 45 1 22 41
M  V30 46 1 22 42
M  V30 47 1 23 43
M  V30 48 1 23 44
M  V30 49 1 24 45
M  V30 50 1 25 46
M  V30 51 1 25 47
M  V30 52 1 26 48
M  V30 53 1 26 49
M  V30 54 1 27 50
M  V30 END BOND
M  V30 END CTAB
M  END
>  <Dataset>  (272) 
ChEMBL_Kinases

>  <Ligand_Instance>  (272) 
nan

>  <PDB_ID>  (272) 
nan

>  <Standardized_SMILES>  (272) 
c1cc(-c2n[nH]c3cnc(N4CCOCC4)cc23)nc(N2CCNCC2)c1

>  <Name>  (272) 
nan

>  <Pocket>  (272) 
nan

>  <ATP_Site>  (272) 
nan

>  <Peripheral>  (272) 
nan

>  <Num_H_Atoms_ProtBoundConf>  (272) 
nan

>  <Num_Resolved_Atoms>  (272) 
nan

>  <Num_Not_Resolved_Atoms>  (272) 
nan

$$$$
CHEMBL3634764
     RDKit          3D

  0  0  0  0  0  0  0  0  0  0999 V3000
M  V30 BEGIN CTAB
M  V30 COUNTS 50 54 0 0 0
M  V30 BEGIN ATOM
M  V30 1 O 2.320421 -4.260114 0.446422 0
M  V30 2 C 1.086315 -4.412275 0.372811 0
M  V30 3 C 0.345990 -3.304743 1.043191 0
M  V30 4 N -1.072224 -3.472968 0.803965 0
M  V30 5 C -1.984562 -2.458387 0.489317 0
M  V30 6 C -1.609292 -1.137556 0.370851 0
M  V30 7 C -2.540101 -0.170385 0.059416 0
M  V30 8 C -2.504522 1.195667 -0.128879 0
M  V30 9 C -1.318662 2.047953 -0.029750 0
M  V30 10 C -1.430163 3.405395 -0.245742 0
M  V30 11 C -0.306380 4.234808 -0.155312 0
M  V30 12 C 0.903118 3.609873 0.160254 0
M  V30 13 C 1.000833 2.252399 0.373711 0
M  V30 14 N 2.217347 1.594477 0.695080 0
M  V30 15 C 3.523069 2.194313 0.844474 0
M  V30 16 C 4.149031 1.910951 2.181080 0
M  V30 17 N 3.707607 0.660314 2.746986 0
M  V30 18 C 3.501170 -0.265352 1.649884 0
M  V30 19 C 2.257006 0.164852 0.917144 0
M  V30 20 N -0.110234 1.532182 0.269925 0
M  V30 21 N -3.750907 1.609649 -0.420295 0
M  V30 22 N -4.590107 0.594657 -0.431876 0
M  V30 23 C -3.864442 -0.499961 -0.140384 0
M  V30 24 C -4.206397 -1.833661 -0.013889 0
M  V30 25 N -3.260919 -2.741386 0.291806 0
M  V30 26 C -1.506156 -4.851281 0.920895 0
M  V30 27 C -0.913732 -5.710255 -0.179539 0
M  V30 28 N 0.513015 -5.527405 -0.283894 0
M  V30 29 H 0.750112 -2.336479 0.754350 0
M  V30 30 H 0.477205 -3.507257 2.144835 0
M  V30 31 H -0.586862 -0.820137 0.516161 0
M  V30 32 H -2.387818 3.852456 -0.488666 0
M  V30 33 H -0.387843 5.294730 -0.322916 0
M  V30 34 H 1.766762 4.235441 0.231556 0
M  V30 35 H 3.506112 3.281978 0.657033 0
M  V30 36 H 4.166080 1.677357 0.074472 0
M  V30 37 H 5.238359 1.944706 2.151936 0
M  V30 38 H 3.795659 2.713497 2.870011 0
M  V30 39 H 2.848134 0.745605 3.299384 0
M  V30 40 H 4.385561 -0.293299 0.985480 0
M  V30 41 H 3.335912 -1.272871 2.035104 0
M  V30 42 H 2.058129 -0.434194 0.009288 0
M  V30 43 H 1.401925 -0.058922 1.620476 0
M  V30 44 H -5.626597 0.625682 -0.629454 0
M  V30 45 H -5.237961 -2.172636 -0.157818 0
M  V30 46 H -2.601250 -4.886749 0.925305 0
M  V30 47 H -1.096091 -5.234495 1.887172 0
M  V30 48 H -1.380233 -5.388272 -1.150809 0
M  V30 49 H -1.151715 -6.768963 -0.027112 0
M  V30 50 H 1.071819 -6.200380 -0.824175 0
M  V30 END ATOM
M  V30 BEGIN BOND
M  V30 1 2 1 2
M  V30 2 1 2 3
M  V30 3 1 3 4
M  V30 4 1 4 5
M  V30 5 2 5 6
M  V30 6 1 6 7
M  V30 7 1 7 8
M  V30 8 1 8 9
M  V30 9 2 9 10
M  V30 10 1 10 11
M  V30 11 2 11 12
M  V30 12 1 12 13
M  V30 13 1 13 14
M  V30 14 1 14 15
M  V30 15 1 15 16
M  V30 16 1 16 17
M  V30 17 1 17 18
M  V30 18 1 18 19
M  V30 19 2 13 20
M  V30 20 2 8 21
M  V30 21 1 21 22
M  V30 22 1 22 23
M  V30 23 1 23 24
M  V30 24 2 24 25
M  V30 25 1 4 26
M  V30 26 1 26 27
M  V30 27 1 27 28
M  V30 28 1 28 2
M  V30 29 1 25 5
M  V30 30 2 23 7
M  V30 31 1 20 9
M  V30 32 1 19 14
M  V30 33 1 3 29
M  V30 34 1 3 30
M  V30 35 1 6 31
M  V30 36 1 10 32
M  V30 37 1 11 33
M  V30 38 1 12 34
M  V30 39 1 15 35
M  V30 40 1 15 36
M  V30 41 1 16 37
M  V30 42 1 16 38
M  V30 43 1 17 39
M  V30 44 1 18 40
M  V30 45 1 18 41
M  V30 46 1 19 42
M  V30 47 1 19 43
M  V30 48 1 22 44
M  V30 49 1 24 45
M  V30 50 1 26 46
M  V30 51 1 26 47
M  V30 52 1 27 48
M  V30 53 1 27 49
M  V30 54 1 28 50
M  V30 END BOND
M  V30 END CTAB
M  END
>  <Dataset>  (273) 
ChEMBL_Kinases

>  <Ligand_Instance>  (273) 
nan

>  <PDB_ID>  (273) 
nan

>  <Standardized_SMILES>  (273) 
O=C1CN(c2cc3c(-c4cccc(N5CCNCC5)n4)n[nH]c3cn2)CCN1

>  <Name>  (273) 
nan

>  <Pocket>  (273) 
nan

>  <ATP_Site>  (273) 
nan

>  <Peripheral>  (273) 
nan

>  <Num_H_Atoms_ProtBoundConf>  (273) 
nan

>  <Num_Resolved_Atoms>  (273) 
nan

>  <Num_Not_Resolved_Atoms>  (273) 
nan

$$$$
CHEMBL3634763
     RDKit          3D

  0  0  0  0  0  0  0  0  0  0999 V3000
M  V30 BEGIN CTAB
M  V30 COUNTS 51 55 0 0 0
M  V30 BEGIN ATOM
M  V30 1 C -0.442959 -3.935745 3.869968 0
M  V30 2 C 0.714988 -3.843409 3.124079 0
M  V30 3 C 0.956962 -2.889819 2.158308 0
M  V30 4 C 2.229750 -2.912865 1.446644 0
M  V30 5 N 3.236998 -3.777797 1.616856 0
M  V30 6 N 4.236560 -3.498152 0.800182 0
M  V30 7 C 3.932440 -2.432221 0.051799 0
M  V30 8 C 4.635495 -1.764794 -0.930222 0
M  V30 9 N 4.052334 -0.696853 -1.519859 0
M  V30 10 C 2.803212 -0.292825 -1.151843 0
M  V30 11 C 2.224859 0.903875 -1.855836 0
M  V30 12 C 0.903677 0.634039 -2.491573 0
M  V30 13 C 0.098667 1.904170 -2.479486 0
M  V30 14 C -0.148873 2.314940 -1.062809 0
M  V30 15 O 0.911817 2.055971 -0.201800 0
M  V30 16 C 2.132667 2.052637 -0.847587 0
M  V30 17 C 2.096149 -0.965137 -0.163289 0
M  V30 18 C 2.666374 -2.058498 0.455782 0
M  V30 19 N -0.009520 -1.970415 1.917077 0
M  V30 20 C -1.181172 -2.000296 2.616710 0
M  V30 21 N -2.192711 -1.035593 2.361934 0
M  V30 22 C -3.429796 -1.062215 3.101637 0
M  V30 23 C -4.342084 0.067398 2.792995 0
M  V30 24 N -4.414790 0.432807 1.410487 0
M  V30 25 C -3.325482 0.031055 0.588465 0
M  V30 26 C -2.022949 0.000265 1.361008 0
M  V30 27 C -1.388256 -2.969114 3.575615 0
M  V30 28 H -0.597297 -4.698474 4.619887 0
M  V30 29 H 1.485598 -4.591600 3.329557 0
M  V30 30 H 5.102478 -4.081184 0.807434 0
M  V30 31 H 5.639167 -2.094417 -1.221572 0
M  V30 32 H 2.995502 1.232392 -2.586174 0
M  V30 33 H 0.306583 -0.136733 -1.989638 0
M  V30 34 H 1.009674 0.275692 -3.553402 0
M  V30 35 H -0.905848 1.773426 -2.964602 0
M  V30 36 H 0.674447 2.725937 -2.964434 0
M  V30 37 H -0.368349 3.401884 -0.962383 0
M  V30 38 H -1.061455 1.790699 -0.711534 0
M  V30 39 H 2.914497 1.881473 -0.078569 0
M  V30 40 H 2.352841 3.034539 -1.329772 0
M  V30 41 H 1.115603 -0.643532 0.121731 0
M  V30 42 H -3.141646 -1.007107 4.174299 0
M  V30 43 H -3.952748 -2.048919 3.009055 0
M  V30 44 H -4.165844 0.985394 3.390471 0
M  V30 45 H -5.381370 -0.247179 3.080948 0
M  V30 46 H -4.591706 1.466648 1.315343 0
M  V30 47 H -3.528903 -0.977575 0.174096 0
M  V30 48 H -3.166435 0.729774 -0.262282 0
M  V30 49 H -1.158077 -0.170218 0.724240 0
M  V30 50 H -1.941861 0.958801 1.936890 0
M  V30 51 H -2.321501 -2.977839 4.119832 0
M  V30 END ATOM
M  V30 BEGIN BOND
M  V30 1 2 1 2
M  V30 2 1 2 3
M  V30 3 1 3 4
M  V30 4 2 4 5
M  V30 5 1 5 6
M  V30 6 1 6 7
M  V30 7 2 7 8
M  V30 8 1 8 9
M  V30 9 2 9 10
M  V30 10 1 10 11
M  V30 11 1 11 12
M  V30 12 1 12 13
M  V30 13 1 13 14
M  V30 14 1 14 15
M  V30 15 1 15 16
M  V30 16 1 10 17
M  V30 17 2 17 18
M  V30 18 2 3 19
M  V30 19 1 19 20
M  V30 20 1 20 21
M  V30 21 1 21 22
M  V30 22 1 22 23
M  V30 23 1 23 24
M  V30 24 1 24 25
M  V30 25 1 25 26
M  V30 26 2 20 27
M  V30 27 1 27 1
M  V30 28 1 18 4
M  V30 29 1 26 21
M  V30 30 1 18 7
M  V30 31 1 16 11
M  V30 32 1 1 28
M  V30 33 1 2 29
M  V30 34 1 6 30
M  V30 35 1 8 31
M  V30 36 1 11 32
M  V30 37 1 12 33
M  V30 38 1 12 34
M  V30 39 1 13 35
M  V30 40 1 13 36
M  V30 41 1 14 37
M  V30 42 1 14 38
M  V30 43 1 16 39
M  V30 44 1 16 40
M  V30 45 1 17 41
M  V30 46 1 22 42
M  V30 47 1 22 43
M  V30 48 1 23 44
M  V30 49 1 23 45
M  V30 50 1 24 46
M  V30 51 1 25 47
M  V30 52 1 25 48
M  V30 53 1 26 49
M  V30 54 1 26 50
M  V30 55 1 27 51
M  V30 END BOND
M  V30 END CTAB
M  END
>  <Dataset>  (274) 
ChEMBL_Kinases

>  <Ligand_Instance>  (274) 
nan

>  <PDB_ID>  (274) 
nan

>  <Standardized_SMILES>  (274) 
c1cc(-c2n[nH]c3cnc(C4CCCOC4)cc23)nc(N2CCNCC2)c1

>  <Name>  (274) 
nan

>  <Pocket>  (274) 
nan

>  <ATP_Site>  (274) 
nan

>  <Peripheral>  (274) 
nan

>  <Num_H_Atoms_ProtBoundConf>  (274) 
nan

>  <Num_Resolved_Atoms>  (274) 
nan

>  <Num_Not_Resolved_Atoms>  (274) 
nan

$$$$
CHEMBL3634761
     RDKit          3D

  0  0  0  0  0  0  0  0  0  0999 V3000
M  V30 BEGIN CTAB
M  V30 COUNTS 50 54 0 0 0
M  V30 BEGIN ATOM
M  V30 1 C -2.395935 -6.821303 1.876888 0
M  V30 2 C -0.916598 -6.512863 2.106953 0
M  V30 3 N -0.666068 -5.159471 1.620862 0
M  V30 4 C -0.291414 -4.918481 0.333045 0
M  V30 5 C -0.143130 -3.549469 0.223514 0
M  V30 6 C 0.252685 -2.855355 -0.998714 0
M  V30 7 C 0.365795 -1.466884 -0.974445 0
M  V30 8 C 0.739497 -0.819193 -2.130916 0
M  V30 9 C 0.938726 0.509622 -2.438935 0
M  V30 10 C 0.805389 1.681011 -1.586528 0
M  V30 11 C 1.065518 2.928697 -2.142405 0
M  V30 12 C 0.960077 4.084676 -1.396298 0
M  V30 13 C 0.586325 3.957146 -0.075700 0
M  V30 14 C 0.331338 2.736177 0.469834 0
M  V30 15 N -0.053601 2.603230 1.829415 0
M  V30 16 C -0.222265 3.695457 2.761919 0
M  V30 17 C 0.873058 3.480029 3.815590 0
M  V30 18 N 0.716259 2.224323 4.499824 0
M  V30 19 C 0.623217 1.089892 3.623077 0
M  V30 20 C -0.329380 1.326477 2.461513 0
M  V30 21 N 0.449059 1.663948 -0.294761 0
M  V30 22 N 1.296995 0.500986 -3.745353 0
M  V30 23 N 1.313276 -0.741207 -4.194340 0
M  V30 24 C 0.974138 -1.608318 -3.232334 0
M  V30 25 C 0.869611 -2.980217 -3.282532 0
M  V30 26 N 0.495855 -3.560260 -2.104740 0
M  V30 27 C -0.430752 -2.982506 1.448479 0
M  V30 28 N -0.745592 -3.994504 2.276351 0
M  V30 29 H -2.558217 -7.910157 1.738038 0
M  V30 30 H -2.962363 -6.457202 2.769308 0
M  V30 31 H -2.770645 -6.269306 0.971815 0
M  V30 32 H -0.653487 -6.538090 3.168218 0
M  V30 33 H -0.255069 -7.229901 1.584256 0
M  V30 34 H -0.141728 -5.655287 -0.443239 0
M  V30 35 H 0.174548 -0.895868 -0.099295 0
M  V30 36 H 1.359513 2.983053 -3.195672 0
M  V30 37 H 1.175041 5.021732 -1.885074 0
M  V30 38 H 0.521237 4.883463 0.452404 0
M  V30 39 H -1.174812 3.557245 3.336078 0
M  V30 40 H -0.110322 4.691777 2.352357 0
M  V30 41 H 1.882301 3.659635 3.419772 0
M  V30 42 H 0.678925 4.279598 4.565000 0
M  V30 43 H -0.119999 2.259215 5.106024 0
M  V30 44 H 1.607378 0.700677 3.290105 0
M  V30 45 H 0.157546 0.265579 4.218748 0
M  V30 46 H -1.340946 1.417430 2.953300 0
M  V30 47 H -0.264701 0.463941 1.802319 0
M  V30 48 H 1.575105 -0.893498 -5.194867 0
M  V30 49 H 1.068801 -3.543533 -4.184081 0
M  V30 50 H -0.408667 -1.943580 1.694487 0
M  V30 END ATOM
M  V30 BEGIN BOND
M  V30 1 1 1 2
M  V30 2 1 2 3
M  V30 3 1 3 4
M  V30 4 2 4 5
M  V30 5 1 5 6
M  V30 6 2 6 7
M  V30 7 1 7 8
M  V30 8 1 8 9
M  V30 9 1 9 10
M  V30 10 2 10 11
M  V30 11 1 11 12
M  V30 12 2 12 13
M  V30 13 1 13 14
M  V30 14 1 14 15
M  V30 15 1 15 16
M  V30 16 1 16 17
M  V30 17 1 17 18
M  V30 18 1 18 19
M  V30 19 1 19 20
M  V30 20 2 14 21
M  V30 21 2 9 22
M  V30 22 1 22 23
M  V30 23 1 23 24
M  V30 24 1 24 25
M  V30 25 2 25 26
M  V30 26 1 5 27
M  V30 27 2 27 28
M  V30 28 1 28 3
M  V30 29 1 26 6
M  V30 30 2 24 8
M  V30 31 1 21 10
M  V30 32 1 20 15
M  V30 33 1 1 29
M  V30 34 1 1 30
M  V30 35 1 1 31
M  V30 36 1 2 32
M  V30 37 1 2 33
M  V30 38 1 4 34
M  V30 39 1 7 35
M  V30 40 1 11 36
M  V30 41 1 12 37
M  V30 42 1 13 38
M  V30 43 1 16 39
M  V30 44 1 16 40
M  V30 45 1 17 41
M  V30 46 1 17 42
M  V30 47 1 18 43
M  V30 48 1 19 44
M  V30 49 1 19 45
M  V30 50 1 20 46
M  V30 51 1 20 47
M  V30 52 1 23 48
M  V30 53 1 25 49
M  V30 54 1 27 50
M  V30 END BOND
M  V30 END CTAB
M  END
>  <Dataset>  (275) 
ChEMBL_Kinases

>  <Ligand_Instance>  (275) 
nan

>  <PDB_ID>  (275) 
nan

>  <Standardized_SMILES>  (275) 
CCn1cc(-c2cc3c(-c4cccc(N5CCNCC5)n4)n[nH]c3cn2)cn1

>  <Name>  (275) 
nan

>  <Pocket>  (275) 
nan

>  <ATP_Site>  (275) 
nan

>  <Peripheral>  (275) 
nan

>  <Num_H_Atoms_ProtBoundConf>  (275) 
nan

>  <Num_Resolved_Atoms>  (275) 
nan

>  <Num_Not_Resolved_Atoms>  (275) 
nan

$$$$
CHEMBL3634759
     RDKit          3D

  0  0  0  0  0  0  0  0  0  0999 V3000
M  V30 BEGIN CTAB
M  V30 COUNTS 51 55 0 0 0
M  V30 BEGIN ATOM
M  V30 1 C -0.431216 -6.971908 2.817958 0
M  V30 2 N -0.261093 -5.793673 1.989934 0
M  V30 3 C -0.353816 -5.575013 0.666587 0
M  V30 4 C -0.093300 -4.249505 0.385568 0
M  V30 5 C -0.089717 -3.601152 -0.917343 0
M  V30 6 C 0.197827 -2.253519 -0.989519 0
M  V30 7 C 0.194312 -1.665581 -2.234583 0
M  V30 8 C 0.450051 -0.354327 -2.531665 0
M  V30 9 C 0.792230 0.823607 -1.741397 0
M  V30 10 C 1.812601 1.616111 -2.222969 0
M  V30 11 C 2.137949 2.730245 -1.478057 0
M  V30 12 C 1.452977 3.004953 -0.313424 0
M  V30 13 C 0.433917 2.224927 0.179400 0
M  V30 14 N -0.241090 2.549190 1.383279 0
M  V30 15 C 0.050612 3.702376 2.209761 0
M  V30 16 C 0.677354 3.168638 3.479592 0
M  V30 17 C -0.236907 2.176142 4.152295 0
M  V30 18 C -0.688326 1.115868 3.190028 0 CFG=1
M  V30 19 N -1.531778 0.153023 3.813620 0
M  V30 20 C -1.318397 1.758390 1.946391 0
M  V30 21 C 0.128250 1.129816 -0.570836 0
M  V30 22 N 0.319306 -0.292662 -3.889792 0
M  V30 23 N 0.006033 -1.489858 -4.369518 0
M  V30 24 C -0.084487 -2.389460 -3.366043 0
M  V30 25 C -0.365845 -3.738844 -3.232046 0
M  V30 26 N -0.367349 -4.339014 -2.008931 0
M  V30 27 C 0.162905 -3.675730 1.613703 0
M  V30 28 N 0.054098 -4.628223 2.553406 0
M  V30 29 H 0.550869 -7.203002 3.277975 0
M  V30 30 H -1.153026 -6.803174 3.651674 0
M  V30 31 H -0.724695 -7.856216 2.188826 0
M  V30 32 H -0.599495 -6.362816 -0.021289 0
M  V30 33 H 0.413502 -1.702646 -0.096580 0
M  V30 34 H 2.323461 1.372996 -3.131463 0
M  V30 35 H 2.937561 3.348403 -1.858439 0
M  V30 36 H 1.798164 3.900998 0.179729 0
M  V30 37 H -0.897187 4.196923 2.514409 0
M  V30 38 H 0.695493 4.451861 1.771879 0
M  V30 39 H 0.753722 4.042892 4.182654 0
M  V30 40 H 1.680377 2.773046 3.330744 0
M  V30 41 H -1.079642 2.659698 4.670971 0
M  V30 42 H 0.363693 1.669117 4.943325 0
M  V30 43 H 0.234724 0.601372 2.811647 0
M  V30 44 H -1.399984 -0.826492 3.461125 0
M  V30 45 H -1.607511 0.229265 4.843398 0
M  V30 46 H -2.151733 2.443437 2.261088 0
M  V30 47 H -1.731572 0.996477 1.295717 0
M  V30 48 H -0.638932 0.443362 -0.302540 0
M  V30 49 H -0.160266 -1.764395 -5.368844 0
M  V30 50 H -0.579594 -4.256041 -4.177362 0
M  V30 51 H 0.412674 -2.616589 1.780616 0
M  V30 END ATOM
M  V30 BEGIN BOND
M  V30 1 1 1 2
M  V30 2 1 2 3
M  V30 3 2 3 4
M  V30 4 1 4 5
M  V30 5 2 5 6
M  V30 6 1 6 7
M  V30 7 1 7 8
M  V30 8 1 8 9
M  V30 9 2 9 10
M  V30 10 1 10 11
M  V30 11 2 11 12
M  V30 12 1 12 13
M  V30 13 1 13 14
M  V30 14 1 14 15
M  V30 15 1 15 16
M  V30 16 1 16 17
M  V30 17 1 17 18
M  V30 18 1 18 19
M  V30 19 1 18 20
M  V30 20 2 13 21
M  V30 21 2 8 22
M  V30 22 1 22 23
M  V30 23 1 23 24
M  V30 24 1 24 25
M  V30 25 2 25 26
M  V30 26 1 4 27
M  V30 27 2 27 28
M  V30 28 1 28 2
M  V30 29 1 26 5
M  V30 30 2 24 7
M  V30 31 1 21 9
M  V30 32 1 20 14
M  V30 33 1 1 29
M  V30 34 1 1 30
M  V30 35 1 1 31
M  V30 36 1 3 32
M  V30 37 1 6 33
M  V30 38 1 10 34
M  V30 39 1 11 35
M  V30 40 1 12 36
M  V30 41 1 15 37
M  V30 42 1 15 38
M  V30 43 1 16 39
M  V30 44 1 16 40
M  V30 45 1 17 41
M  V30 46 1 17 42
M  V30 47 1 18 43 CFG=3
M  V30 48 1 19 44
M  V30 49 1 19 45
M  V30 50 1 20 46
M  V30 51 1 20 47
M  V30 52 1 21 48
M  V30 53 1 23 49
M  V30 54 1 25 50
M  V30 55 1 27 51
M  V30 END BOND
M  V30 END CTAB
M  END
>  <Dataset>  (276) 
ChEMBL_Kinases

>  <Ligand_Instance>  (276) 
nan

>  <PDB_ID>  (276) 
nan

>  <Standardized_SMILES>  (276) 
Cn1cc(-c2cc3c(-c4cccc(N5CCC[C@@H](N)C5)c4)n[nH]c3cn2)cn1

>  <Name>  (276) 
nan

>  <Pocket>  (276) 
nan

>  <ATP_Site>  (276) 
nan

>  <Peripheral>  (276) 
nan

>  <Num_H_Atoms_ProtBoundConf>  (276) 
nan

>  <Num_Resolved_Atoms>  (276) 
nan

>  <Num_Not_Resolved_Atoms>  (276) 
nan

$$$$
CHEMBL3634758
     RDKit          3D

  0  0  0  0  0  0  0  0  0  0999 V3000
M  V30 BEGIN CTAB
M  V30 COUNTS 50 54 0 0 0
M  V30 BEGIN ATOM
M  V30 1 C -2.092703 -6.551406 2.280032 0
M  V30 2 N -1.647605 -5.304031 1.656698 0
M  V30 3 C -1.418426 -5.068459 0.331195 0
M  V30 4 C -1.013576 -3.755315 0.206409 0
M  V30 5 C -0.671607 -3.117403 -1.062151 0
M  V30 6 C -0.273178 -1.797896 -1.115907 0
M  V30 7 C 0.034665 -1.259417 -2.344149 0
M  V30 8 C 0.454256 -0.006133 -2.737672 0
M  V30 9 C 0.704833 1.172155 -1.912719 0
M  V30 10 C 1.121938 2.331771 -2.521432 0
M  V30 11 C 1.370834 3.479813 -1.761483 0
M  V30 12 C 1.166490 3.341697 -0.403907 0
M  V30 13 C 0.748739 2.186300 0.220442 0
M  V30 14 N 0.548113 2.082864 1.624225 0
M  V30 15 C 0.739561 3.165312 2.565642 0
M  V30 16 C 1.927777 2.743634 3.426343 0
M  V30 17 C 1.622115 1.429035 4.119929 0
M  V30 18 C 0.280960 0.875079 3.673273 0 CFG=2
M  V30 19 N 0.225842 -0.493022 4.189018 0
M  V30 20 C 0.121312 0.814783 2.187531 0
M  V30 21 N 0.534068 1.140396 -0.572206 0
M  V30 22 N 0.592221 -0.090158 -4.090849 0
M  V30 23 N 0.280210 -1.304735 -4.495530 0
M  V30 24 C -0.073425 -2.074442 -3.456878 0
M  V30 25 C -0.470996 -3.393319 -3.408548 0
M  V30 26 N -0.758922 -3.865384 -2.182048 0
M  V30 27 C -1.004442 -3.211594 1.474229 0
M  V30 28 N -1.396123 -4.181922 2.336351 0
M  V30 29 H -1.207770 -7.080980 2.682163 0
M  V30 30 H -2.866803 -6.364503 3.052037 0
M  V30 31 H -2.579583 -7.145525 1.476598 0
M  V30 32 H -1.548977 -5.814722 -0.426980 0
M  V30 33 H -0.199274 -1.191071 -0.232765 0
M  V30 34 H 1.269101 2.394123 -3.591348 0
M  V30 35 H 1.701940 4.415745 -2.206390 0
M  V30 36 H 1.362335 4.233587 0.170648 0
M  V30 37 H -0.131545 3.206933 3.260627 0
M  V30 38 H 0.866622 4.151005 2.131842 0
M  V30 39 H 2.215725 3.530655 4.150345 0
M  V30 40 H 2.763586 2.551130 2.711869 0
M  V30 41 H 1.500617 1.665859 5.198017 0
M  V30 42 H 2.372873 0.654018 3.973584 0
M  V30 43 H -0.550214 1.428495 4.164285 0
M  V30 44 H -0.528406 -1.046388 3.708866 0
M  V30 45 H 0.095100 -0.497034 5.225945 0
M  V30 46 H -0.987539 0.766070 1.985048 0
M  V30 47 H 0.626811 -0.055585 1.735824 0
M  V30 48 H 0.328279 -1.556688 -5.516018 0
M  V30 49 H -0.539885 -3.992682 -4.315444 0
M  V30 50 H -0.714403 -2.182084 1.604673 0
M  V30 END ATOM
M  V30 BEGIN BOND
M  V30 1 1 1 2
M  V30 2 1 2 3
M  V30 3 2 3 4
M  V30 4 1 4 5
M  V30 5 2 5 6
M  V30 6 1 6 7
M  V30 7 1 7 8
M  V30 8 1 8 9
M  V30 9 2 9 10
M  V30 10 1 10 11
M  V30 11 2 11 12
M  V30 12 1 12 13
M  V30 13 1 13 14
M  V30 14 1 14 15
M  V30 15 1 15 16
M  V30 16 1 16 17
M  V30 17 1 17 18
M  V30 18 1 18 19
M  V30 19 1 18 20
M  V30 20 2 13 21
M  V30 21 2 8 22
M  V30 22 1 22 23
M  V30 23 1 23 24
M  V30 24 1 24 25
M  V30 25 2 25 26
M  V30 26 1 4 27
M  V30 27 2 27 28
M  V30 28 1 28 2
M  V30 29 1 26 5
M  V30 30 2 24 7
M  V30 31 1 21 9
M  V30 32 1 20 14
M  V30 33 1 1 29
M  V30 34 1 1 30
M  V30 35 1 1 31
M  V30 36 1 3 32
M  V30 37 1 6 33
M  V30 38 1 10 34
M  V30 39 1 11 35
M  V30 40 1 12 36
M  V30 41 1 15 37
M  V30 42 1 15 38
M  V30 43 1 16 39
M  V30 44 1 16 40
M  V30 45 1 17 41
M  V30 46 1 17 42
M  V30 47 1 18 43 CFG=1
M  V30 48 1 19 44
M  V30 49 1 19 45
M  V30 50 1 20 46
M  V30 51 1 20 47
M  V30 52 1 23 48
M  V30 53 1 25 49
M  V30 54 1 27 50
M  V30 END BOND
M  V30 END CTAB
M  END
>  <Dataset>  (277) 
ChEMBL_Kinases

>  <Ligand_Instance>  (277) 
nan

>  <PDB_ID>  (277) 
nan

>  <Standardized_SMILES>  (277) 
Cn1cc(-c2cc3c(-c4cccc(N5CCC[C@H](N)C5)n4)n[nH]c3cn2)cn1

>  <Name>  (277) 
nan

>  <Pocket>  (277) 
nan

>  <ATP_Site>  (277) 
nan

>  <Peripheral>  (277) 
nan

>  <Num_H_Atoms_ProtBoundConf>  (277) 
nan

>  <Num_Resolved_Atoms>  (277) 
nan

>  <Num_Not_Resolved_Atoms>  (277) 
nan

$$$$
CHEMBL3634757
     RDKit          3D

  0  0  0  0  0  0  0  0  0  0999 V3000
M  V30 BEGIN CTAB
M  V30 COUNTS 47 51 0 0 0
M  V30 BEGIN ATOM
M  V30 1 C 1.316658 -5.975010 4.202593 0
M  V30 2 N 0.946441 -4.770128 3.446007 0
M  V30 3 C -0.291615 -4.679593 2.885038 0
M  V30 4 C -0.306328 -3.444973 2.261663 0
M  V30 5 C -1.454218 -2.922971 1.522564 0
M  V30 6 C -1.386647 -1.672114 0.925328 0
M  V30 7 C -2.511692 -1.237868 0.239617 0
M  V30 8 C -2.823666 -0.091430 -0.463504 0
M  V30 9 C -1.953944 1.063269 -0.678541 0
M  V30 10 C -2.444536 2.126802 -1.414580 0
M  V30 11 C -1.613540 3.198520 -1.604256 0
M  V30 12 C -0.338003 3.216033 -1.081737 0
M  V30 13 C 0.123435 2.134650 -0.348919 0
M  V30 14 N 1.438427 2.151834 0.190188 0
M  V30 15 C 2.024381 1.058998 0.980442 0
M  V30 16 C 3.331496 1.615887 1.502667 0
M  V30 17 C 3.713556 2.560398 0.366632 0 CFG=1
M  V30 18 N 4.234013 1.761114 -0.707410 0
M  V30 19 C 2.400491 3.227813 0.053377 0
M  V30 20 N -0.689710 1.086912 -0.163796 0
M  V30 21 N -4.083454 -0.260245 -0.903832 0
M  V30 22 N -4.579991 -1.425818 -0.527908 0
M  V30 23 C -3.630157 -2.043830 0.176704 0
M  V30 24 C -3.667159 -3.283520 0.781089 0
M  V30 25 N -2.563268 -3.681648 1.439933 0
M  V30 26 C 0.912383 -2.826176 2.459944 0
M  V30 27 N 1.654752 -3.679064 3.195573 0
M  V30 28 H 1.154701 -6.887022 3.596641 0
M  V30 29 H 2.339264 -5.868178 4.597468 0
M  V30 30 H 0.628460 -6.016598 5.083319 0
M  V30 31 H -1.090645 -5.405599 2.915168 0
M  V30 32 H -0.528148 -1.050209 0.971979 0
M  V30 33 H -3.447282 2.129917 -1.833795 0
M  V30 34 H -1.904042 4.085987 -2.168931 0
M  V30 35 H 0.348718 4.054163 -1.214731 0
M  V30 36 H 1.357084 0.898183 1.849428 0
M  V30 37 H 2.228940 0.165583 0.389776 0
M  V30 38 H 3.161384 2.240482 2.378842 0
M  V30 39 H 4.098458 0.824539 1.637499 0
M  V30 40 H 4.479598 3.306357 0.719697 0
M  V30 41 H 4.842510 0.998765 -0.302248 0
M  V30 42 H 3.437265 1.291894 -1.175947 0
M  V30 43 H 2.272346 4.027003 0.822953 0
M  V30 44 H 2.378558 3.670468 -0.972269 0
M  V30 45 H -5.551105 -1.781894 -0.754369 0
M  V30 46 H -4.494248 -3.980522 0.785061 0
M  V30 47 H 1.120163 -1.855435 2.061176 0
M  V30 END ATOM
M  V30 BEGIN BOND
M  V30 1 1 1 2
M  V30 2 1 2 3
M  V30 3 2 3 4
M  V30 4 1 4 5
M  V30 5 2 5 6
M  V30 6 1 6 7
M  V30 7 1 7 8
M  V30 8 1 8 9
M  V30 9 2 9 10
M  V30 10 1 10 11
M  V30 11 2 11 12
M  V30 12 1 12 13
M  V30 13 1 13 14
M  V30 14 1 14 15
M  V30 15 1 15 16
M  V30 16 1 16 17
M  V30 17 1 17 18
M  V30 18 1 17 19
M  V30 19 2 13 20
M  V30 20 2 8 21
M  V30 21 1 21 22
M  V30 22 1 22 23
M  V30 23 1 23 24
M  V30 24 2 24 25
M  V30 25 1 4 26
M  V30 26 2 26 27
M  V30 27 1 27 2
M  V30 28 1 25 5
M  V30 29 2 23 7
M  V30 30 1 20 9
M  V30 31 1 19 14
M  V30 32 1 1 28
M  V30 33 1 1 29
M  V30 34 1 1 30
M  V30 35 1 3 31
M  V30 36 1 6 32
M  V30 37 1 10 33
M  V30 38 1 11 34
M  V30 39 1 12 35
M  V30 40 1 15 36
M  V30 41 1 15 37
M  V30 42 1 16 38
M  V30 43 1 16 39
M  V30 44 1 17 40 CFG=1
M  V30 45 1 18 41
M  V30 46 1 18 42
M  V30 47 1 19 43
M  V30 48 1 19 44
M  V30 49 1 22 45
M  V30 50 1 24 46
M  V30 51 1 26 47
M  V30 END BOND
M  V30 END CTAB
M  END
>  <Dataset>  (278) 
ChEMBL_Kinases

>  <Ligand_Instance>  (278) 
nan

>  <PDB_ID>  (278) 
nan

>  <Standardized_SMILES>  (278) 
Cn1cc(-c2cc3c(-c4cccc(N5CC[C@@H](N)C5)n4)n[nH]c3cn2)cn1

>  <Name>  (278) 
nan

>  <Pocket>  (278) 
nan

>  <ATP_Site>  (278) 
nan

>  <Peripheral>  (278) 
nan

>  <Num_H_Atoms_ProtBoundConf>  (278) 
nan

>  <Num_Resolved_Atoms>  (278) 
nan

>  <Num_Not_Resolved_Atoms>  (278) 
nan

$$$$
CHEMBL4856177
     RDKit          3D

  0  0  0  0  0  0  0  0  0  0999 V3000
M  V30 BEGIN CTAB
M  V30 COUNTS 69 74 0 0 0
M  V30 BEGIN ATOM
M  V30 1 C 5.275526 1.924157 5.238761 0
M  V30 2 C 5.013568 0.553427 4.626004 0
M  V30 3 C 3.767458 -0.070073 5.168362 0
M  V30 4 C 5.064764 0.677770 3.170685 0
M  V30 5 C 4.146164 0.969310 2.185446 0
M  V30 6 C 2.794647 1.247649 2.347726 0
M  V30 7 C 2.017999 1.519266 1.239521 0
M  V30 8 C 0.595789 1.811483 1.350773 0
M  V30 9 C -0.120094 1.844458 2.529076 0
M  V30 10 C -1.466439 2.115705 2.629426 0
M  V30 11 N -2.095298 2.362781 1.457961 0
M  V30 12 C -1.446731 2.342027 0.299784 0
M  V30 13 N -2.317491 2.627004 -0.784475 0
M  V30 14 C -2.907995 1.465049 -1.401240 0
M  V30 15 C -2.519034 0.187749 -0.988869 0
M  V30 16 C -3.073248 -0.952750 -1.561369 0
M  V30 17 C -4.027261 -0.780597 -2.556746 0
M  V30 18 C -4.558025 -1.936013 -3.094084 0
M  V30 19 N -4.188958 -3.279789 -2.755043 0
M  V30 20 C -2.861353 -3.687219 -3.163864 0
M  V30 21 C -2.268251 -4.615935 -2.170889 0
M  V30 22 N -2.967271 -4.842952 -0.978740 0
M  V30 23 C -2.262448 -5.177082 0.193094 0
M  V30 24 C -4.355840 -5.006532 -1.016412 0
M  V30 25 C -5.079474 -4.177231 -2.043914 0
M  V30 26 C -5.513875 -1.794643 -4.076810 0
M  V30 27 C -5.909221 -0.523182 -4.494670 0
M  V30 28 N -5.370026 0.598086 -3.950813 0
M  V30 29 C -4.435898 0.462370 -2.988540 0
M  V30 30 C -3.856818 1.582111 -2.390830 0
M  V30 31 N -0.149740 2.074976 0.262203 0
M  V30 32 C 2.578765 1.514377 -0.018745 0
M  V30 33 C 3.938756 1.234695 -0.176286 0
M  V30 34 C 4.705805 0.966299 0.918897 0
M  V30 35 N 5.992817 0.663485 1.171353 0
M  V30 36 N 6.215487 0.494724 2.457696 0
M  V30 37 C 7.526638 0.157807 3.016766 0
M  V30 38 H 4.374575 2.536960 5.335432 0
M  V30 39 H 5.782285 1.841891 6.230917 0
M  V30 40 H 6.008752 2.476702 4.583859 0
M  V30 41 H 5.863491 -0.095773 4.988864 0
M  V30 42 H 3.990143 -0.686506 6.086462 0
M  V30 43 H 3.107866 0.733621 5.533130 0
M  V30 44 H 3.203643 -0.674686 4.428760 0
M  V30 45 H 2.348200 1.254892 3.329229 0
M  V30 46 H 0.382289 1.647363 3.456039 0
M  V30 47 H -1.967172 2.125952 3.591827 0
M  V30 48 H -2.574088 3.555404 -1.177003 0
M  V30 49 H -1.778187 0.051890 -0.215337 0
M  V30 50 H -2.749478 -1.902673 -1.209024 0
M  V30 51 H -3.011959 -4.190540 -4.168493 0
M  V30 52 H -2.195773 -2.800264 -3.313968 0
M  V30 53 H -2.109515 -5.619103 -2.667918 0
M  V30 54 H -1.221222 -4.275339 -1.930471 0
M  V30 55 H -2.439598 -4.500106 1.058003 0
M  V30 56 H -2.514168 -6.212563 0.553505 0
M  V30 57 H -1.169155 -5.177450 -0.001634 0
M  V30 58 H -4.586695 -6.085475 -1.158388 0
M  V30 59 H -4.787008 -4.725746 -0.012595 0
M  V30 60 H -5.514183 -4.866663 -2.808407 0
M  V30 61 H -5.951863 -3.640701 -1.620151 0
M  V30 62 H -6.038558 -2.594456 -4.609667 0
M  V30 63 H -6.648062 -0.282746 -5.256582 0
M  V30 64 H -4.174179 2.547144 -2.726759 0
M  V30 65 H 2.007237 1.720121 -0.903267 0
M  V30 66 H 4.410399 1.224202 -1.158655 0
M  V30 67 H 8.314666 0.539981 2.336882 0
M  V30 68 H 7.674889 0.650917 3.999715 0
M  V30 69 H 7.687874 -0.934795 3.078825 0
M  V30 END ATOM
M  V30 BEGIN BOND
M  V30 1 1 1 2
M  V30 2 1 2 3
M  V30 3 1 2 4
M  V30 4 2 4 5
M  V30 5 1 5 6
M  V30 6 2 6 7
M  V30 7 1 7 8
M  V30 8 2 8 9
M  V30 9 1 9 10
M  V30 10 2 10 11
M  V30 11 1 11 12
M  V30 12 1 12 13
M  V30 13 1 13 14
M  V30 14 2 14 15
M  V30 15 1 15 16
M  V30 16 2 16 17
M  V30 17 1 17 18
M  V30 18 1 18 19
M  V30 19 1 19 20
M  V30 20 1 20 21
M  V30 21 1 21 22
M  V30 22 1 22 23
M  V30 23 1 22 24
M  V30 24 1 24 25
M  V30 25 2 18 26
M  V30 26 1 26 27
M  V30 27 2 27 28
M  V30 28 1 28 29
M  V30 29 2 29 30
M  V30 30 2 12 31
M  V30 31 1 7 32
M  V30 32 2 32 33
M  V30 33 1 33 34
M  V30 34 2 34 35
M  V30 35 1 35 36
M  V30 36 1 36 37
M  V30 37 1 36 4
M  V30 38 1 34 5
M  V30 39 1 31 8
M  V30 40 1 30 14
M  V30 41 1 29 17
M  V30 42 1 25 19
M  V30 43 1 1 38
M  V30 44 1 1 39
M  V30 45 1 1 40
M  V30 46 1 2 41
M  V30 47 1 3 42
M  V30 48 1 3 43
M  V30 49 1 3 44
M  V30 50 1 6 45
M  V30 51 1 9 46
M  V30 52 1 10 47
M  V30 53 1 13 48
M  V30 54 1 15 49
M  V30 55 1 16 50
M  V30 56 1 20 51
M  V30 57 1 20 52
M  V30 58 1 21 53
M  V30 59 1 21 54
M  V30 60 1 23 55
M  V30 61 1 23 56
M  V30 62 1 23 57
M  V30 63 1 24 58
M  V30 64 1 24 59
M  V30 65 1 25 60
M  V30 66 1 25 61
M  V30 67 1 26 62
M  V30 68 1 27 63
M  V30 69 1 30 64
M  V30 70 1 32 65
M  V30 71 1 33 66
M  V30 72 1 37 67
M  V30 73 1 37 68
M  V30 74 1 37 69
M  V30 END BOND
M  V30 END CTAB
M  END
>  <Dataset>  (279) 
ChEMBL_Kinases

>  <Ligand_Instance>  (279) 
nan

>  <PDB_ID>  (279) 
nan

>  <Standardized_SMILES>  (279) 
CC(C)c1c2cc(-c3ccnc(Nc4ccc5c(N6CCN(C)CC6)ccnc5c4)n3)ccc2nn1C

>  <Name>  (279) 
nan

>  <Pocket>  (279) 
nan

>  <ATP_Site>  (279) 
nan

>  <Peripheral>  (279) 
nan

>  <Num_H_Atoms_ProtBoundConf>  (279) 
nan

>  <Num_Resolved_Atoms>  (279) 
nan

>  <Num_Not_Resolved_Atoms>  (279) 
nan

$$$$
CHEMBL3634755
     RDKit          3D

  0  0  0  0  0  0  0  0  0  0999 V3000
M  V30 BEGIN CTAB
M  V30 COUNTS 49 53 0 0 0
M  V30 BEGIN ATOM
M  V30 1 C -1.542816 -4.429621 5.811144 0
M  V30 2 N -1.336356 -3.693077 4.580130 0
M  V30 3 C -2.018621 -3.873485 3.459272 0
M  V30 4 C -1.568639 -3.009031 2.482074 0
M  V30 5 C -2.086987 -2.924291 1.119784 0
M  V30 6 C -1.550304 -2.014048 0.232365 0
M  V30 7 C -2.060956 -1.957253 -1.048296 0
M  V30 8 C -1.737689 -1.169046 -2.135289 0
M  V30 9 C -0.726351 -0.126473 -2.258581 0
M  V30 10 C -0.580428 0.537015 -3.457762 0
M  V30 11 C 0.338622 1.538139 -3.693419 0
M  V30 12 C 1.175816 1.908470 -2.660909 0
M  V30 13 C 1.028261 1.242562 -1.459829 0
M  V30 14 O 1.887264 1.643713 -0.449189 0
M  V30 15 C 1.794085 1.010194 0.799867 0 CFG=2
M  V30 16 C 1.470332 2.133327 1.793066 0
M  V30 17 C 2.540834 3.196606 1.521949 0
M  V30 18 C 3.916980 2.563451 1.426268 0
M  V30 19 N 3.929006 1.247087 2.020556 0
M  V30 20 C 3.095234 0.372655 1.227586 0
M  V30 21 N 0.099705 0.257020 -1.281461 0
M  V30 22 N -2.580765 -1.573553 -3.102304 0
M  V30 23 N -3.363694 -2.537323 -2.646123 0
M  V30 24 C -3.086961 -2.824735 -1.361179 0
M  V30 25 C -3.623923 -3.734919 -0.474522 0
M  V30 26 N -3.090440 -3.759091 0.782426 0
M  V30 27 C -0.558979 -2.279033 3.074686 0
M  V30 28 N -0.448071 -2.723055 4.346788 0
M  V30 29 H -0.561259 -4.475822 6.322017 0
M  V30 30 H -1.843159 -5.479089 5.621577 0
M  V30 31 H -2.257885 -3.926626 6.468246 0
M  V30 32 H -2.821781 -4.606421 3.338378 0
M  V30 33 H -0.747620 -1.354329 0.520767 0
M  V30 34 H -1.235142 0.256583 -4.286359 0
M  V30 35 H 0.378461 2.003909 -4.676230 0
M  V30 36 H 1.901739 2.688809 -2.823066 0
M  V30 37 H 1.010363 0.239388 0.810273 0
M  V30 38 H 1.547048 1.820631 2.833157 0
M  V30 39 H 0.494387 2.559301 1.505332 0
M  V30 40 H 2.481412 3.980344 2.304898 0
M  V30 41 H 2.355584 3.721130 0.554928 0
M  V30 42 H 4.210305 2.403079 0.348197 0
M  V30 43 H 4.658275 3.229971 1.903916 0
M  V30 44 H 3.703925 1.239780 3.023350 0
M  V30 45 H 3.649392 -0.045320 0.354202 0
M  V30 46 H 2.855070 -0.492605 1.881162 0
M  V30 47 H -4.106223 -3.020326 -3.205972 0
M  V30 48 H -4.413278 -4.362998 -0.805780 0
M  V30 49 H 0.019130 -1.509045 2.603507 0
M  V30 END ATOM
M  V30 BEGIN BOND
M  V30 1 1 1 2
M  V30 2 1 2 3
M  V30 3 2 3 4
M  V30 4 1 4 5
M  V30 5 2 5 6
M  V30 6 1 6 7
M  V30 7 1 7 8
M  V30 8 1 8 9
M  V30 9 2 9 10
M  V30 10 1 10 11
M  V30 11 2 11 12
M  V30 12 1 12 13
M  V30 13 1 13 14
M  V30 14 1 14 15
M  V30 15 1 15 16
M  V30 16 1 16 17
M  V30 17 1 17 18
M  V30 18 1 18 19
M  V30 19 1 19 20
M  V30 20 2 13 21
M  V30 21 2 8 22
M  V30 22 1 22 23
M  V30 23 1 23 24
M  V30 24 1 24 25
M  V30 25 2 25 26
M  V30 26 1 4 27
M  V30 27 2 27 28
M  V30 28 1 28 2
M  V30 29 1 26 5
M  V30 30 2 24 7
M  V30 31 1 21 9
M  V30 32 1 20 15
M  V30 33 1 1 29
M  V30 34 1 1 30
M  V30 35 1 1 31
M  V30 36 1 3 32
M  V30 37 1 6 33
M  V30 38 1 10 34
M  V30 39 1 11 35
M  V30 40 1 12 36
M  V30 41 1 15 37 CFG=3
M  V30 42 1 16 38
M  V30 43 1 16 39
M  V30 44 1 17 40
M  V30 45 1 17 41
M  V30 46 1 18 42
M  V30 47 1 18 43
M  V30 48 1 19 44
M  V30 49 1 20 45
M  V30 50 1 20 46
M  V30 51 1 23 47
M  V30 52 1 25 48
M  V30 53 1 27 49
M  V30 END BOND
M  V30 END CTAB
M  END
>  <Dataset>  (280) 
ChEMBL_Kinases

>  <Ligand_Instance>  (280) 
nan

>  <PDB_ID>  (280) 
nan

>  <Standardized_SMILES>  (280) 
Cn1cc(-c2cc3c(-c4cccc(O[C@@H]5CCCNC5)n4)n[nH]c3cn2)cn1

>  <Name>  (280) 
nan

>  <Pocket>  (280) 
nan

>  <ATP_Site>  (280) 
nan

>  <Peripheral>  (280) 
nan

>  <Num_H_Atoms_ProtBoundConf>  (280) 
nan

>  <Num_Resolved_Atoms>  (280) 
nan

>  <Num_Not_Resolved_Atoms>  (280) 
nan

$$$$
CHEMBL4072887
     RDKit          3D

  0  0  0  0  0  0  0  0  0  0999 V3000
M  V30 BEGIN CTAB
M  V30 COUNTS 37 39 0 0 0
M  V30 BEGIN ATOM
M  V30 1 N 0.436283 -2.124284 4.960581 0
M  V30 2 C 1.783858 -1.697179 4.762687 0
M  V30 3 O 2.536263 -2.019431 5.719387 0
M  V30 4 C 2.196593 -0.966236 3.559878 0
M  V30 5 C 3.521925 -0.601880 3.471214 0
M  V30 6 C 3.862290 0.081902 2.325170 0
M  V30 7 Cl 5.520569 0.593502 2.108217 0
M  V30 8 C 2.885979 0.337747 1.392745 0
M  V30 9 C 3.008292 1.002476 0.184250 0
M  V30 10 Cl 4.448632 1.709244 -0.503642 0
M  V30 11 C 1.747914 0.979880 -0.347077 0
M  V30 12 I 1.276476 1.878224 -2.193808 0
M  V30 13 N 0.842357 0.353927 0.428871 0
M  V30 14 C -0.530736 0.057358 0.316127 0
M  V30 15 C -0.992209 -1.218318 -0.218590 0
M  V30 16 C -2.533819 -1.250282 -0.228595 0
M  V30 17 C -3.078337 -0.299142 -1.261088 0
M  V30 18 N -2.191806 0.015394 -2.320298 0
M  V30 19 C -1.253641 -0.978789 -2.702520 0
M  V30 20 C -0.446726 -1.548712 -1.581617 0
M  V30 21 C 1.553330 -0.039091 1.501800 0
M  V30 22 N 1.265693 -0.701064 2.630413 0
M  V30 23 H -0.196141 -2.536109 4.236407 0
M  V30 24 H -0.207051 -2.539433 4.238526 0
M  V30 25 H 4.203330 -0.856550 4.266835 0
M  V30 26 H -0.982951 0.876309 -0.324356 0
M  V30 27 H -1.030097 0.249796 1.313692 0
M  V30 28 H -0.763377 -2.113218 0.404425 0
M  V30 29 H -2.898043 -2.286642 -0.384386 0
M  V30 30 H -2.832587 -0.874143 0.776776 0
M  V30 31 H -3.978472 -0.807971 -1.704511 0
M  V30 32 H -3.475396 0.639191 -0.821164 0
M  V30 33 H -1.970555 0.990888 -2.502059 0
M  V30 34 H -1.769070 -1.807408 -3.271798 0
M  V30 35 H -0.559136 -0.537401 -3.447215 0
M  V30 36 H 0.617063 -1.242725 -1.606074 0
M  V30 37 H -0.419048 -2.676254 -1.736233 0
M  V30 END ATOM
M  V30 BEGIN BOND
M  V30 1 1 1 2
M  V30 2 2 2 3
M  V30 3 1 2 4
M  V30 4 2 4 5
M  V30 5 1 5 6
M  V30 6 1 6 7
M  V30 7 2 6 8
M  V30 8 1 8 9
M  V30 9 1 9 10
M  V30 10 2 9 11
M  V30 11 1 11 12
M  V30 12 1 11 13
M  V30 13 1 13 14
M  V30 14 1 14 15
M  V30 15 1 15 16
M  V30 16 1 16 17
M  V30 17 1 17 18
M  V30 18 1 18 19
M  V30 19 1 19 20
M  V30 20 1 13 21
M  V30 21 2 21 22
M  V30 22 1 22 4
M  V30 23 1 21 8
M  V30 24 1 20 15
M  V30 25 1 1 23
M  V30 26 1 1 24
M  V30 27 1 5 25
M  V30 28 1 14 26
M  V30 29 1 14 27
M  V30 30 1 15 28
M  V30 31 1 16 29
M  V30 32 1 16 30
M  V30 33 1 17 31
M  V30 34 1 17 32
M  V30 35 1 18 33
M  V30 36 1 19 34
M  V30 37 1 19 35
M  V30 38 1 20 36
M  V30 39 1 20 37
M  V30 END BOND
M  V30 END CTAB
M  END
>  <Dataset>  (281) 
ChEMBL_Kinases

>  <Ligand_Instance>  (281) 
nan

>  <PDB_ID>  (281) 
nan

>  <Standardized_SMILES>  (281) 
NC(=O)c1cc(Cl)c2c(Cl)c(I)n(CC3CCNCC3)c2n1

>  <Name>  (281) 
nan

>  <Pocket>  (281) 
nan

>  <ATP_Site>  (281) 
nan

>  <Peripheral>  (281) 
nan

>  <Num_H_Atoms_ProtBoundConf>  (281) 
nan

>  <Num_Resolved_Atoms>  (281) 
nan

>  <Num_Not_Resolved_Atoms>  (281) 
nan

$$$$
CHEMBL4857583
     RDKit          3D

  0  0  0  0  0  0  0  0  0  0999 V3000
M  V30 BEGIN CTAB
M  V30 COUNTS 61 64 0 0 0
M  V30 BEGIN ATOM
M  V30 1 C 4.755429 -2.497015 1.318474 0
M  V30 2 C 3.306251 -2.611390 1.678329 0
M  V30 3 N 2.803074 -1.802359 2.603334 0
M  V30 4 C 1.522318 -1.803090 3.016122 0
M  V30 5 N 1.036276 -0.897687 4.028971 0
M  V30 6 C 0.534222 0.419066 3.774951 0
M  V30 7 N 0.093171 1.360410 4.208246 0
M  V30 8 C -0.287963 2.490417 3.659557 0
M  V30 9 C -0.150785 2.602332 2.342508 0
M  V30 10 C -0.354428 3.498811 1.209173 0
M  V30 11 O -0.033982 3.105501 0.058432 0
M  V30 12 N -0.891748 4.792872 1.307457 0
M  V30 13 C -0.978130 5.452532 0.024726 0
M  V30 14 C 0.094652 6.223254 -0.429503 0
M  V30 15 C 1.284707 6.329902 0.443993 0
M  V30 16 C -0.039316 6.836481 -1.674981 0
M  V30 17 N -1.150963 6.700474 -2.420521 0
M  V30 18 C -2.185460 5.959363 -1.986234 0
M  V30 19 C -2.115478 5.319905 -0.749847 0
M  V30 20 C -3.283154 4.510776 -0.306847 0
M  V30 21 S 0.562170 0.977811 1.940692 0
M  V30 22 C 0.650498 -2.714702 2.438376 0
M  V30 23 C 1.200920 -3.551829 1.471534 0
M  V30 24 N 0.378658 -4.514574 0.835007 0
M  V30 25 C 0.876124 -5.378121 -0.246147 0
M  V30 26 C -0.242623 -5.350934 -1.295853 0
M  V30 27 N -1.399399 -6.082044 -0.822430 0
M  V30 28 C -1.465163 -7.420603 -1.361197 0
M  V30 29 C -1.740956 -7.424107 -2.846505 0
M  V30 30 O -1.783991 -8.761639 -3.260648 0
M  V30 31 C -1.429884 -6.111392 0.618945 0
M  V30 32 C -1.014196 -4.751951 1.174706 0
M  V30 33 N 2.485850 -3.501276 1.104404 0
M  V30 34 H 4.888081 -1.937660 0.369698 0
M  V30 35 H 5.296813 -1.996530 2.140310 0
M  V30 36 H 5.150367 -3.513044 1.176796 0
M  V30 37 H 0.993055 -1.084321 5.032499 0
M  V30 38 H -0.717659 3.391022 4.130558 0
M  V30 39 H -1.154556 5.099270 2.292287 0
M  V30 40 H 1.166438 7.060750 1.250989 0
M  V30 41 H 2.110953 6.736101 -0.199682 0
M  V30 42 H 1.669825 5.332072 0.779802 0
M  V30 43 H 0.822791 7.435899 -2.002258 0
M  V30 44 H -3.031346 5.910331 -2.654448 0
M  V30 45 H -3.796612 4.015454 -1.152360 0
M  V30 46 H -2.991422 3.791523 0.500827 0
M  V30 47 H -3.993405 5.233510 0.176096 0
M  V30 48 H -0.393264 -2.780046 2.714425 0
M  V30 49 H 1.031078 -6.368809 0.188710 0
M  V30 50 H 1.774329 -4.930410 -0.728849 0
M  V30 51 H -0.557535 -4.274287 -1.357544 0
M  V30 52 H 0.097274 -5.618086 -2.295855 0
M  V30 53 H -2.335146 -7.920421 -0.886291 0
M  V30 54 H -0.571014 -8.004911 -1.132087 0
M  V30 55 H -0.957382 -6.928406 -3.448347 0
M  V30 56 H -2.765925 -7.030457 -3.042345 0
M  V30 57 H -1.753391 -8.826788 -4.266635 0
M  V30 58 H -2.483962 -6.239425 0.927501 0
M  V30 59 H -0.759276 -6.864332 1.056950 0
M  V30 60 H -1.631628 -3.957335 0.736276 0
M  V30 61 H -1.171998 -4.796473 2.271185 0
M  V30 END ATOM
M  V30 BEGIN BOND
M  V30 1 1 1 2
M  V30 2 2 2 3
M  V30 3 1 3 4
M  V30 4 1 4 5
M  V30 5 1 5 6
M  V30 6 2 6 7
M  V30 7 1 7 8
M  V30 8 2 8 9
M  V30 9 1 9 10
M  V30 10 2 10 11
M  V30 11 1 10 12
M  V30 12 1 12 13
M  V30 13 2 13 14
M  V30 14 1 14 15
M  V30 15 1 14 16
M  V30 16 2 16 17
M  V30 17 1 17 18
M  V30 18 2 18 19
M  V30 19 1 19 20
M  V30 20 1 9 21
M  V30 21 2 4 22
M  V30 22 1 22 23
M  V30 23 1 23 24
M  V30 24 1 24 25
M  V30 25 1 25 26
M  V30 26 1 26 27
M  V30 27 1 27 28
M  V30 28 1 28 29
M  V30 29 1 29 30
M  V30 30 1 27 31
M  V30 31 1 31 32
M  V30 32 2 23 33
M  V30 33 1 33 2
M  V30 34 1 21 6
M  V30 35 1 32 24
M  V30 36 1 19 13
M  V30 37 1 1 34
M  V30 38 1 1 35
M  V30 39 1 1 36
M  V30 40 1 5 37
M  V30 41 1 8 38
M  V30 42 1 12 39
M  V30 43 1 15 40
M  V30 44 1 15 41
M  V30 45 1 15 42
M  V30 46 1 16 43
M  V30 47 1 18 44
M  V30 48 1 20 45
M  V30 49 1 20 46
M  V30 50 1 20 47
M  V30 51 1 22 48
M  V30 52 1 25 49
M  V30 53 1 25 50
M  V30 54 1 26 51
M  V30 55 1 26 52
M  V30 56 1 28 53
M  V30 57 1 28 54
M  V30 58 1 29 55
M  V30 59 1 29 56
M  V30 60 1 30 57
M  V30 61 1 31 58
M  V30 62 1 31 59
M  V30 63 1 32 60
M  V30 64 1 32 61
M  V30 END BOND
M  V30 END CTAB
M  END
>  <Dataset>  (282) 
ChEMBL_Kinases

>  <Ligand_Instance>  (282) 
nan

>  <PDB_ID>  (282) 
nan

>  <Standardized_SMILES>  (282) 
Cc1nc(Nc2ncc(C(=O)Nc3c(C)cncc3C)s2)cc(N2CCN(CCO)CC2)n1

>  <Name>  (282) 
nan

>  <Pocket>  (282) 
nan

>  <ATP_Site>  (282) 
nan

>  <Peripheral>  (282) 
nan

>  <Num_H_Atoms_ProtBoundConf>  (282) 
nan

>  <Num_Resolved_Atoms>  (282) 
nan

>  <Num_Not_Resolved_Atoms>  (282) 
nan

$$$$
CHEMBL363160
     RDKit          3D

  0  0  0  0  0  0  0  0  0  0999 V3000
M  V30 BEGIN CTAB
M  V30 COUNTS 72 76 0 0 0
M  V30 BEGIN ATOM
M  V30 1 C 7.945942 -0.493948 2.139375 0
M  V30 2 C 7.012593 -0.139849 0.979538 0
M  V30 3 C 6.227637 1.057786 1.345508 0
M  V30 4 C 6.378560 1.705646 2.575287 0
M  V30 5 C 5.616326 2.819721 2.856661 0
M  V30 6 C 4.696101 3.344136 1.981603 0
M  V30 7 C 4.537009 2.711874 0.760423 0
M  V30 8 C 3.562990 3.219528 -0.244781 0
M  V30 9 C 4.264455 3.958582 -1.366871 0
M  V30 10 C 5.294597 1.594596 0.466251 0
M  V30 11 N 5.091703 0.964164 -0.816393 0
M  V30 12 C 4.065516 -0.016451 -0.583919 0
M  V30 13 O 3.680723 -0.013977 0.632486 0
M  V30 14 N 3.536209 -0.894663 -1.599304 0
M  V30 15 C 3.635520 -1.250693 -3.011928 0
M  V30 16 C 2.187440 -1.158002 -3.436293 0
M  V30 17 N 1.255769 -0.881187 -4.368466 0
M  V30 18 N 0.058396 -1.090984 -3.852114 0
M  V30 19 C 0.130643 -1.509647 -2.575556 0
M  V30 20 N -0.927958 -1.840291 -1.683094 0
M  V30 21 C -2.274390 -1.746800 -2.132871 0
M  V30 22 O -2.430592 -1.368660 -3.319578 0
M  V30 23 C -3.388502 -2.076215 -1.249016 0
M  V30 24 C -3.262429 -2.472068 0.066203 0
M  V30 25 C -4.326913 -2.782252 0.885450 0
M  V30 26 C -5.612649 -2.701327 0.386981 0
M  V30 27 N -6.753572 -3.006665 1.179263 0
M  V30 28 C -8.142022 -3.000843 0.760909 0
M  V30 29 C -8.987061 -2.068402 1.610176 0
M  V30 30 N -8.581724 -2.075044 2.987626 0
M  V30 31 C -7.681461 -0.958273 3.252826 0
M  V30 32 C -7.876215 -3.294040 3.338132 0
M  V30 33 C -6.576498 -3.371670 2.572304 0
M  V30 34 C -5.743330 -2.305373 -0.929280 0
M  V30 35 C -4.678807 -1.988726 -1.769321 0
M  V30 36 C 1.485466 -1.550989 -2.315093 0
M  V30 37 C 2.506043 -1.861571 -1.273607 0
M  V30 38 H 7.339640 -0.763587 3.029015 0
M  V30 39 H 8.593037 -1.347808 1.866259 0
M  V30 40 H 8.611219 0.350752 2.370448 0
M  V30 41 H 7.643812 0.033730 0.075386 0
M  V30 42 H 6.370105 -1.022947 0.776709 0
M  V30 43 H 7.083904 1.336341 3.295073 0
M  V30 44 H 5.706019 3.348268 3.799508 0
M  V30 45 H 4.076530 4.207452 2.147848 0
M  V30 46 H 2.896452 2.428011 -0.643724 0
M  V30 47 H 2.912337 3.960401 0.270287 0
M  V30 48 H 3.634473 4.740710 -1.830749 0
M  V30 49 H 4.537240 3.211563 -2.135607 0
M  V30 50 H 5.149451 4.500762 -0.941630 0
M  V30 51 H 5.466558 1.027139 -1.797548 0
M  V30 52 H 4.251840 -0.541093 -3.586553 0
M  V30 53 H 3.913447 -2.304991 -3.147333 0
M  V30 54 H 1.527567 -0.557537 -5.322481 0
M  V30 55 H -0.680670 -2.144689 -0.715695 0
M  V30 56 H -2.272805 -2.544903 0.483559 0
M  V30 57 H -4.139881 -3.082442 1.897679 0
M  V30 58 H -8.298657 -2.841478 -0.306722 0
M  V30 59 H -8.539259 -4.033939 0.984644 0
M  V30 60 H -10.050372 -2.315947 1.571937 0
M  V30 61 H -8.843577 -1.047383 1.202055 0
M  V30 62 H -8.300350 -0.113858 3.597624 0
M  V30 63 H -7.110408 -0.656001 2.349985 0
M  V30 64 H -6.937914 -1.217084 4.015366 0
M  V30 65 H -8.468056 -4.202941 3.240266 0
M  V30 66 H -7.606882 -3.189639 4.416996 0
M  V30 67 H -5.817439 -2.666120 2.968302 0
M  V30 68 H -6.167680 -4.387522 2.617072 0
M  V30 69 H -6.716661 -2.211949 -1.413474 0
M  V30 70 H -4.835477 -1.681901 -2.799699 0
M  V30 71 H 2.103530 -1.758275 -0.259266 0
M  V30 72 H 2.925683 -2.886647 -1.454423 0
M  V30 END ATOM
M  V30 BEGIN BOND
M  V30 1 1 1 2
M  V30 2 1 2 3
M  V30 3 2 3 4
M  V30 4 1 4 5
M  V30 5 2 5 6
M  V30 6 1 6 7
M  V30 7 1 7 8
M  V30 8 1 8 9
M  V30 9 2 7 10
M  V30 10 1 10 11
M  V30 11 1 11 12
M  V30 12 2 12 13
M  V30 13 1 12 14
M  V30 14 1 14 15
M  V30 15 1 15 16
M  V30 16 1 16 17
M  V30 17 1 17 18
M  V30 18 2 18 19
M  V30 19 1 19 20
M  V30 20 1 20 21
M  V30 21 2 21 22
M  V30 22 1 21 23
M  V30 23 2 23 24
M  V30 24 1 24 25
M  V30 25 2 25 26
M  V30 26 1 26 27
M  V30 27 1 27 28
M  V30 28 1 28 29
M  V30 29 1 29 30
M  V30 30 1 30 31
M  V30 31 1 30 32
M  V30 32 1 32 33
M  V30 33 1 26 34
M  V30 34 2 34 35
M  V30 35 1 19 36
M  V30 36 1 36 37
M  V30 37 1 10 3
M  V30 38 1 37 14
M  V30 39 2 36 16
M  V30 40 1 35 23
M  V30 41 1 33 27
M  V30 42 1 1 38
M  V30 43 1 1 39
M  V30 44 1 1 40
M  V30 45 1 2 41
M  V30 46 1 2 42
M  V30 47 1 4 43
M  V30 48 1 5 44
M  V30 49 1 6 45
M  V30 50 1 8 46
M  V30 51 1 8 47
M  V30 52 1 9 48
M  V30 53 1 9 49
M  V30 54 1 9 50
M  V30 55 1 11 51
M  V30 56 1 15 52
M  V30 57 1 15 53
M  V30 58 1 17 54
M  V30 59 1 20 55
M  V30 60 1 24 56
M  V30 61 1 25 57
M  V30 62 1 28 58
M  V30 63 1 28 59
M  V30 64 1 29 60
M  V30 65 1 29 61
M  V30 66 1 31 62
M  V30 67 1 31 63
M  V30 68 1 31 64
M  V30 69 1 32 65
M  V30 70 1 32 66
M  V30 71 1 33 67
M  V30 72 1 33 68
M  V30 73 1 34 69
M  V30 74 1 35 70
M  V30 75 1 37 71
M  V30 76 1 37 72
M  V30 END BOND
M  V30 END CTAB
M  END
>  <Dataset>  (283) 
ChEMBL_Kinases

>  <Ligand_Instance>  (283) 
nan

>  <PDB_ID>  (283) 
nan

>  <Standardized_SMILES>  (283) 
CCc1cccc(CC)c1NC(=O)N1Cc2[nH]nc(NC(=O)c3ccc(N4CCN(C)CC4)cc3)c2C1

>  <Name>  (283) 
PHA-680632

>  <Pocket>  (283) 
nan

>  <ATP_Site>  (283) 
nan

>  <Peripheral>  (283) 
nan

>  <Num_H_Atoms_ProtBoundConf>  (283) 
nan

>  <Num_Resolved_Atoms>  (283) 
nan

>  <Num_Not_Resolved_Atoms>  (283) 
nan

$$$$
CHEMBL4073318
     RDKit          3D

  0  0  0  0  0  0  0  0  0  0999 V3000
M  V30 BEGIN CTAB
M  V30 COUNTS 54 57 0 0 0
M  V30 BEGIN ATOM
M  V30 1 C -0.228469 -3.348861 2.914042 0
M  V30 2 C 0.226831 -2.203045 3.788903 0
M  V30 3 C -1.015958 -1.375760 4.125759 0
M  V30 4 N 1.191783 -1.362833 3.060319 0
M  V30 5 C 2.277440 -0.767699 3.578806 0
M  V30 6 N 2.900360 -0.095561 2.595195 0
M  V30 7 C 2.213821 -0.257793 1.438193 0
M  V30 8 C 2.391520 0.197362 0.132676 0
M  V30 9 N 3.536386 1.019769 -0.056354 0
M  V30 10 C 3.418420 2.436627 -0.015405 0
M  V30 11 C 2.132420 2.933870 0.118347 0
M  V30 12 C 1.947758 4.314920 0.160604 0
M  V30 13 C 3.074327 5.132373 0.065720 0
M  V30 14 C 4.345051 4.608128 -0.066786 0
M  V30 15 Cl 5.763961 5.660380 -0.186405 0
M  V30 16 C 4.526165 3.241404 -0.108296 0
M  V30 17 N 1.463392 -0.187416 -0.792726 0
M  V30 18 C 0.428681 -0.962157 -0.479634 0
M  V30 19 N -0.489628 -1.314876 -1.502419 0
M  V30 20 C -1.617425 -2.145545 -1.188486 0 CFG=1
M  V30 21 C -2.557280 -1.575158 -0.177404 0
M  V30 22 C -3.570661 -2.619689 0.213930 0
M  V30 23 C -3.526203 -3.872173 -0.588894 0
M  V30 24 C -3.289736 -3.691726 -2.059850 0
M  V30 25 C -2.438547 -2.503273 -2.412885 0 CFG=1
M  V30 26 N -3.348073 -1.407538 -2.748725 0
M  V30 27 N 0.258720 -1.401165 0.780630 0
M  V30 28 C 1.135002 -1.061138 1.743854 0
M  V30 29 H -1.259563 -3.170690 2.551263 0
M  V30 30 H -0.248281 -4.315919 3.470849 0
M  V30 31 H 0.430673 -3.431520 2.014262 0
M  V30 32 H 0.673770 -2.548168 4.730927 0
M  V30 33 H -0.779172 -0.693998 4.966472 0
M  V30 34 H -1.890436 -2.019419 4.282057 0
M  V30 35 H -1.259598 -0.707175 3.251471 0
M  V30 36 H 2.523109 -0.876862 4.638847 0
M  V30 37 H 4.458201 0.572979 -0.225251 0
M  V30 38 H 1.229390 2.322091 0.196122 0
M  V30 39 H 0.981933 4.834994 0.262616 0
M  V30 40 H 2.946393 6.224754 0.097431 0
M  V30 41 H 5.532049 2.809436 -0.212684 0
M  V30 42 H -0.389646 -1.002250 -2.472303 0
M  V30 43 H -1.225130 -3.114255 -0.764620 0
M  V30 44 H -3.137264 -0.765165 -0.711834 0
M  V30 45 H -2.087012 -1.081238 0.668941 0
M  V30 46 H -4.587835 -2.158842 0.303667 0
M  V30 47 H -3.325999 -2.917603 1.273419 0
M  V30 48 H -4.556510 -4.326759 -0.511656 0
M  V30 49 H -2.862480 -4.642496 -0.147796 0
M  V30 50 H -4.204931 -3.706770 -2.676315 0
M  V30 51 H -2.706050 -4.594580 -2.406934 0
M  V30 52 H -1.789746 -2.693192 -3.291760 0
M  V30 53 H -4.317892 -1.615244 -2.422029 0
M  V30 54 H -3.407072 -1.296986 -3.789169 0
M  V30 END ATOM
M  V30 BEGIN BOND
M  V30 1 1 1 2
M  V30 2 1 2 3
M  V30 3 1 2 4
M  V30 4 1 4 5
M  V30 5 2 5 6
M  V30 6 1 6 7
M  V30 7 2 7 8
M  V30 8 1 8 9
M  V30 9 1 9 10
M  V30 10 2 10 11
M  V30 11 1 11 12
M  V30 12 2 12 13
M  V30 13 1 13 14
M  V30 14 1 14 15
M  V30 15 2 14 16
M  V30 16 1 8 17
M  V30 17 2 17 18
M  V30 18 1 18 19
M  V30 19 1 19 20
M  V30 20 1 20 21
M  V30 21 1 21 22
M  V30 22 1 22 23
M  V30 23 1 23 24
M  V30 24 1 24 25
M  V30 25 1 25 26
M  V30 26 1 18 27
M  V30 27 2 27 28
M  V30 28 1 28 4
M  V30 29 1 28 7
M  V30 30 1 16 10
M  V30 31 1 25 20
M  V30 32 1 1 29
M  V30 33 1 1 30
M  V30 34 1 1 31
M  V30 35 1 2 32
M  V30 36 1 3 33
M  V30 37 1 3 34
M  V30 38 1 3 35
M  V30 39 1 5 36
M  V30 40 1 9 37
M  V30 41 1 11 38
M  V30 42 1 12 39
M  V30 43 1 13 40
M  V30 44 1 16 41
M  V30 45 1 19 42
M  V30 46 1 20 43 CFG=1
M  V30 47 1 21 44
M  V30 48 1 21 45
M  V30 49 1 22 46
M  V30 50 1 22 47
M  V30 51 1 23 48
M  V30 52 1 23 49
M  V30 53 1 24 50
M  V30 54 1 24 51
M  V30 55 1 25 52 CFG=3
M  V30 56 1 26 53
M  V30 57 1 26 54
M  V30 END BOND
M  V30 END CTAB
M  END
>  <Dataset>  (284) 
ChEMBL_Kinases

>  <Ligand_Instance>  (284) 
nan

>  <PDB_ID>  (284) 
nan

>  <Standardized_SMILES>  (284) 
CC(C)n1cnc2c(Nc3cccc(Cl)c3)nc(N[C@H]3CCCC[C@H]3N)nc21

>  <Name>  (284) 
nan

>  <Pocket>  (284) 
nan

>  <ATP_Site>  (284) 
nan

>  <Peripheral>  (284) 
nan

>  <Num_H_Atoms_ProtBoundConf>  (284) 
nan

>  <Num_Resolved_Atoms>  (284) 
nan

>  <Num_Not_Resolved_Atoms>  (284) 
nan

$$$$
CHEMBL4857318
     RDKit          3D

  0  0  0  0  0  0  0  0  0  0999 V3000
M  V30 BEGIN CTAB
M  V30 COUNTS 46 48 0 0 0
M  V30 BEGIN ATOM
M  V30 1 C 0.846421 -3.100047 0.947597 0
M  V30 2 C 1.929567 -2.071863 0.986119 0
M  V30 3 N 2.983328 -2.251203 1.804687 0
M  V30 4 C 3.946450 -1.342953 1.842946 0
M  V30 5 N 5.071102 -1.510802 2.697997 0
M  V30 6 C 6.119360 -2.321795 2.129937 0
M  V30 7 C 6.698009 -1.739425 0.858855 0
M  V30 8 O 7.232144 -0.495381 1.118342 0
M  V30 9 C 3.970615 -0.189061 1.096036 0
M  V30 10 C 2.892807 -0.013281 0.262732 0
M  V30 11 N 2.487936 1.021377 -0.666503 0
M  V30 12 C 1.371408 1.919384 -0.371132 0
M  V30 13 N 0.796273 2.884624 -0.158957 0
M  V30 14 C -0.461767 3.108349 0.097380 0
M  V30 15 C -1.263566 2.066282 0.129994 0
M  V30 16 C -2.684309 1.862540 0.381885 0
M  V30 17 O -3.344340 2.939909 0.612062 0
M  V30 18 N -3.414290 0.692145 0.406822 0
M  V30 19 C -4.701723 0.182399 0.622290 0
M  V30 20 C -5.723758 0.824272 1.274122 0
M  V30 21 Cl -5.525917 2.388601 2.019877 0
M  V30 22 C -7.015260 0.304839 1.438164 0
M  V30 23 C -7.164021 -0.938393 0.873333 0
M  V30 24 N -6.184684 -1.586901 0.233831 0
M  V30 25 C -4.932082 -1.053627 0.087860 0
M  V30 26 C -3.970526 -1.896321 -0.665172 0
M  V30 27 S -0.116312 0.742933 -0.226698 0
M  V30 28 N 1.904369 -0.956551 0.231170 0
M  V30 29 H 0.986975 -3.819355 1.783104 0
M  V30 30 H -0.158050 -2.679981 1.054507 0
M  V30 31 H 0.916429 -3.655968 0.002011 0
M  V30 32 H 4.823078 -0.972707 3.555135 0
M  V30 33 H 6.919860 -2.454601 2.909727 0
M  V30 34 H 5.730776 -3.357028 1.964709 0
M  V30 35 H 7.516448 -2.400182 0.465587 0
M  V30 36 H 5.871499 -1.605938 0.113126 0
M  V30 37 H 7.796104 -0.576143 1.954756 0
M  V30 38 H 4.645168 0.620044 1.009177 0
M  V30 39 H 2.804437 1.350490 -1.593395 0
M  V30 40 H -0.895505 4.103225 0.284311 0
M  V30 41 H -2.649135 -0.027418 0.189594 0
M  V30 42 H -7.813343 0.811448 1.947454 0
M  V30 43 H -8.125572 -1.470473 0.926356 0
M  V30 44 H -2.971319 -1.970321 -0.232724 0
M  V30 45 H -4.334740 -2.934017 -0.792156 0
M  V30 46 H -3.922047 -1.477596 -1.718953 0
M  V30 END ATOM
M  V30 BEGIN BOND
M  V30 1 1 1 2
M  V30 2 2 2 3
M  V30 3 1 3 4
M  V30 4 1 4 5
M  V30 5 1 5 6
M  V30 6 1 6 7
M  V30 7 1 7 8
M  V30 8 2 4 9
M  V30 9 1 9 10
M  V30 10 1 10 11
M  V30 11 1 11 12
M  V30 12 2 12 13
M  V30 13 1 13 14
M  V30 14 2 14 15
M  V30 15 1 15 16
M  V30 16 2 16 17
M  V30 17 1 16 18
M  V30 18 1 18 19
M  V30 19 2 19 20
M  V30 20 1 20 21
M  V30 21 1 20 22
M  V30 22 2 22 23
M  V30 23 1 23 24
M  V30 24 2 24 25
M  V30 25 1 25 26
M  V30 26 1 15 27
M  V30 27 2 10 28
M  V30 28 1 28 2
M  V30 29 1 27 12
M  V30 30 1 25 19
M  V30 31 1 1 29
M  V30 32 1 1 30
M  V30 33 1 1 31
M  V30 34 1 5 32
M  V30 35 1 6 33
M  V30 36 1 6 34
M  V30 37 1 7 35
M  V30 38 1 7 36
M  V30 39 1 8 37
M  V30 40 1 9 38
M  V30 41 1 11 39
M  V30 42 1 14 40
M  V30 43 1 18 41
M  V30 44 1 22 42
M  V30 45 1 23 43
M  V30 46 1 26 44
M  V30 47 1 26 45
M  V30 48 1 26 46
M  V30 END BOND
M  V30 END CTAB
M  END
>  <Dataset>  (285) 
ChEMBL_Kinases

>  <Ligand_Instance>  (285) 
nan

>  <PDB_ID>  (285) 
nan

>  <Standardized_SMILES>  (285) 
Cc1nc(NCCO)cc(Nc2ncc(C(=O)Nc3c(Cl)ccnc3C)s2)n1

>  <Name>  (285) 
nan

>  <Pocket>  (285) 
nan

>  <ATP_Site>  (285) 
nan

>  <Peripheral>  (285) 
nan

>  <Num_H_Atoms_ProtBoundConf>  (285) 
nan

>  <Num_Resolved_Atoms>  (285) 
nan

>  <Num_Not_Resolved_Atoms>  (285) 
nan

$$$$
CHEMBL3629013
     RDKit          3D

  0  0  0  0  0  0  0  0  0  0999 V3000
M  V30 BEGIN CTAB
M  V30 COUNTS 57 61 0 0 0
M  V30 BEGIN ATOM
M  V30 1 N 1.246654 -5.911668 1.898740 0
M  V30 2 C 1.865218 -4.946426 1.666671 0
M  V30 3 C 2.627100 -3.759248 1.369161 0
M  V30 4 C 3.539843 -3.227264 2.289159 0
M  V30 5 C 4.270950 -2.074571 2.028255 0
M  V30 6 N 4.104284 -1.438606 0.849263 0
M  V30 7 C 3.235929 -1.927151 -0.053418 0
M  V30 8 N 2.933566 -1.353725 -1.330443 0
M  V30 9 C 1.674397 -0.681754 -1.130714 0
M  V30 10 C 1.087634 0.510233 -0.814508 0
M  V30 11 C -0.291893 0.415100 -0.803284 0
M  V30 12 C -1.191070 1.517536 -0.517369 0
M  V30 13 C -0.437588 2.647231 0.141240 0
M  V30 14 C -0.467931 2.450829 1.656253 0
M  V30 15 N -0.566922 1.048427 1.913238 0
M  V30 16 C -0.052111 0.598693 3.161996 0
M  V30 17 C 1.412616 0.821015 3.313201 0
M  V30 18 O 1.599617 -0.299455 2.466774 0
M  V30 19 C 0.452609 -0.835136 3.050241 0
M  V30 20 C -1.945312 0.667888 1.693993 0
M  V30 21 C -2.361977 1.237654 0.382446 0
M  V30 22 N -0.525548 -0.877569 -1.124244 0
M  V30 23 C -1.854849 -1.484497 -1.252323 0
M  V30 24 C -1.710355 -2.966395 -1.533264 0
M  V30 25 C -3.041853 -3.323137 -2.124141 0
M  V30 26 C -3.448180 -2.112001 -2.901202 0
M  V30 27 C -2.538497 -0.994316 -2.502054 0
M  V30 28 N 0.627216 -1.543300 -1.321525 0
M  V30 29 C 2.494434 -3.073383 0.180181 0
M  V30 30 H 3.666693 -3.756912 3.236460 0
M  V30 31 H 4.974648 -1.663818 2.742865 0
M  V30 32 H 3.377993 -1.311396 -2.292900 0
M  V30 33 H 1.839984 1.274116 -0.646049 0
M  V30 34 H -1.635349 1.960513 -1.460918 0
M  V30 35 H -0.947459 3.612576 -0.118359 0
M  V30 36 H 0.614925 2.727766 -0.119255 0
M  V30 37 H 0.384190 2.943668 2.152887 0
M  V30 38 H -1.392551 3.006362 2.000378 0
M  V30 39 H -0.667009 0.798264 4.065232 0
M  V30 40 H 1.837905 1.746403 2.930802 0
M  V30 41 H 1.814635 0.529268 4.325967 0
M  V30 42 H -0.143561 -1.419229 2.318700 0
M  V30 43 H 0.668420 -1.342254 4.000508 0
M  V30 44 H -2.114623 -0.416688 1.825499 0
M  V30 45 H -2.552582 1.137412 2.525470 0
M  V30 46 H -3.226821 0.759550 -0.106903 0
M  V30 47 H -2.770208 2.275658 0.624645 0
M  V30 48 H -2.440881 -1.433160 -0.339298 0
M  V30 49 H -0.863761 -3.166096 -2.198848 0
M  V30 50 H -1.628638 -3.544983 -0.565245 0
M  V30 51 H -3.775898 -3.439980 -1.297767 0
M  V30 52 H -2.925982 -4.224863 -2.744842 0
M  V30 53 H -4.484438 -1.799521 -2.672028 0
M  V30 54 H -3.320504 -2.375902 -3.982184 0
M  V30 55 H -3.027590 -0.023706 -2.378777 0
M  V30 56 H -1.712138 -0.931399 -3.273002 0
M  V30 57 H 1.774636 -3.520406 -0.514269 0
M  V30 END ATOM
M  V30 BEGIN BOND
M  V30 1 3 1 2
M  V30 2 1 2 3
M  V30 3 2 3 4
M  V30 4 1 4 5
M  V30 5 2 5 6
M  V30 6 1 6 7
M  V30 7 1 7 8
M  V30 8 1 8 9
M  V30 9 1 9 10
M  V30 10 2 10 11
M  V30 11 1 11 12
M  V30 12 1 12 13
M  V30 13 1 13 14
M  V30 14 1 14 15
M  V30 15 1 15 16
M  V30 16 1 16 17
M  V30 17 1 17 18
M  V30 18 1 18 19
M  V30 19 1 15 20
M  V30 20 1 20 21
M  V30 21 1 11 22
M  V30 22 1 22 23
M  V30 23 1 23 24
M  V30 24 1 24 25
M  V30 25 1 25 26
M  V30 26 1 26 27
M  V30 27 1 22 28
M  V30 28 2 7 29
M  V30 29 1 29 3
M  V30 30 2 28 9
M  V30 31 1 21 12
M  V30 32 1 27 23
M  V30 33 1 19 16
M  V30 34 1 4 30
M  V30 35 1 5 31
M  V30 36 1 8 32
M  V30 37 1 10 33
M  V30 38 1 12 34
M  V30 39 1 13 35
M  V30 40 1 13 36
M  V30 41 1 14 37
M  V30 42 1 14 38
M  V30 43 1 16 39
M  V30 44 1 17 40
M  V30 45 1 17 41
M  V30 46 1 19 42
M  V30 47 1 19 43
M  V30 48 1 20 44
M  V30 49 1 20 45
M  V30 50 1 21 46
M  V30 51 1 21 47
M  V30 52 1 23 48
M  V30 53 1 24 49
M  V30 54 1 24 50
M  V30 55 1 25 51
M  V30 56 1 25 52
M  V30 57 1 26 53
M  V30 58 1 26 54
M  V30 59 1 27 55
M  V30 60 1 27 56
M  V30 61 1 29 57
M  V30 END BOND
M  V30 END CTAB
M  END
>  <Dataset>  (286) 
ChEMBL_Kinases

>  <Ligand_Instance>  (286) 
nan

>  <PDB_ID>  (286) 
nan

>  <Standardized_SMILES>  (286) 
N#Cc1ccnc(Nc2cc(C3CCN(C4COC4)CC3)n(C3CCCC3)n2)c1

>  <Name>  (286) 
nan

>  <Pocket>  (286) 
nan

>  <ATP_Site>  (286) 
nan

>  <Peripheral>  (286) 
nan

>  <Num_H_Atoms_ProtBoundConf>  (286) 
nan

>  <Num_Resolved_Atoms>  (286) 
nan

>  <Num_Not_Resolved_Atoms>  (286) 
nan

$$$$
CHEMBL4074103
     RDKit          3D

  0  0  0  0  0  0  0  0  0  0999 V3000
M  V30 BEGIN CTAB
M  V30 COUNTS 40 43 0 0 0
M  V30 BEGIN ATOM
M  V30 1 N 1.586139 -6.779021 -1.763265 0
M  V30 2 C 2.401317 -5.977201 -1.555077 0
M  V30 3 C 3.417381 -4.977282 -1.269747 0
M  V30 4 C 4.748317 -5.252366 -1.523328 0
M  V30 5 C 5.622385 -4.221357 -1.210242 0
M  V30 6 N 5.264149 -3.035266 -0.701800 0
M  V30 7 C 3.967631 -2.765929 -0.454237 0
M  V30 8 N 3.325071 -1.674179 0.047773 0
M  V30 9 C 1.999669 -1.909664 0.098654 0
M  V30 10 C 0.957915 -1.000941 0.571577 0
M  V30 11 C 1.344050 0.252148 1.025584 0
M  V30 12 C 0.350112 1.127075 1.479888 0
M  V30 13 C -0.966505 0.717117 1.460705 0
M  V30 14 N -1.916749 1.661515 1.937761 0
M  V30 15 C -1.477246 2.942670 2.397252 0
M  V30 16 C -2.640089 3.834107 2.707158 0
M  V30 17 N -3.600331 3.893754 1.619809 0
M  V30 18 C -4.069423 2.575231 1.248127 0
M  V30 19 C -3.349089 1.492421 2.026347 0
M  V30 20 C -1.305941 -0.538066 1.000800 0
M  V30 21 C -0.354062 -1.428494 0.544932 0
M  V30 22 C 1.834733 -3.189602 -0.390058 0
M  V30 23 C 3.047165 -3.754794 -0.745595 0
M  V30 24 H 5.081201 -6.195828 -1.932993 0
M  V30 25 H 6.678786 -4.409915 -1.399731 0
M  V30 26 H 3.826492 -0.792870 0.342101 0
M  V30 27 H 2.400368 0.506986 1.011649 0
M  V30 28 H 0.755827 2.074918 1.810958 0
M  V30 29 H -0.918735 2.783601 3.341227 0
M  V30 30 H -0.776921 3.413937 1.673994 0
M  V30 31 H -2.241398 4.860737 2.841688 0
M  V30 32 H -3.140099 3.456815 3.632279 0
M  V30 33 H -3.089259 4.355871 0.816199 0
M  V30 34 H -3.903421 2.450841 0.158010 0
M  V30 35 H -5.142218 2.516994 1.473386 0
M  V30 36 H -3.714568 0.532026 1.610516 0
M  V30 37 H -3.703997 1.559902 3.082858 0
M  V30 38 H -2.342649 -0.842307 0.993049 0
M  V30 39 H -0.637692 -2.406125 0.188823 0
M  V30 40 H 0.885163 -3.705903 -0.491201 0
M  V30 END ATOM
M  V30 BEGIN BOND
M  V30 1 3 1 2
M  V30 2 1 2 3
M  V30 3 2 3 4
M  V30 4 1 4 5
M  V30 5 2 5 6
M  V30 6 1 6 7
M  V30 7 1 7 8
M  V30 8 1 8 9
M  V30 9 1 9 10
M  V30 10 2 10 11
M  V30 11 1 11 12
M  V30 12 2 12 13
M  V30 13 1 13 14
M  V30 14 1 14 15
M  V30 15 1 15 16
M  V30 16 1 16 17
M  V30 17 1 17 18
M  V30 18 1 18 19
M  V30 19 1 13 20
M  V30 20 2 20 21
M  V30 21 2 9 22
M  V30 22 1 22 23
M  V30 23 1 23 3
M  V30 24 2 23 7
M  V30 25 1 21 10
M  V30 26 1 19 14
M  V30 27 1 4 24
M  V30 28 1 5 25
M  V30 29 1 8 26
M  V30 30 1 11 27
M  V30 31 1 12 28
M  V30 32 1 15 29
M  V30 33 1 15 30
M  V30 34 1 16 31
M  V30 35 1 16 32
M  V30 36 1 17 33
M  V30 37 1 18 34
M  V30 38 1 18 35
M  V30 39 1 19 36
M  V30 40 1 19 37
M  V30 41 1 20 38
M  V30 42 1 21 39
M  V30 43 1 22 40
M  V30 END BOND
M  V30 END CTAB
M  END
>  <Dataset>  (287) 
ChEMBL_Kinases

>  <Ligand_Instance>  (287) 
nan

>  <PDB_ID>  (287) 
nan

>  <Standardized_SMILES>  (287) 
N#Cc1ccnc2[nH]c(-c3ccc(N4CCNCC4)cc3)cc12

>  <Name>  (287) 
nan

>  <Pocket>  (287) 
nan

>  <ATP_Site>  (287) 
nan

>  <Peripheral>  (287) 
nan

>  <Num_H_Atoms_ProtBoundConf>  (287) 
nan

>  <Num_Resolved_Atoms>  (287) 
nan

>  <Num_Not_Resolved_Atoms>  (287) 
nan

$$$$
CHEMBL4076320
     RDKit          3D

  0  0  0  0  0  0  0  0  0  0999 V3000
M  V30 BEGIN CTAB
M  V30 COUNTS 46 49 0 0 0
M  V30 BEGIN ATOM
M  V30 1 O 5.224858 1.394085 0.372643 0
M  V30 2 C 4.202683 0.690575 0.389818 0
M  V30 3 N 4.205459 -0.633102 -0.125672 0
M  V30 4 C 5.265813 -1.375356 -0.715993 0
M  V30 5 C 6.106646 -2.161999 0.042184 0
M  V30 6 C 7.138093 -2.883070 -0.529950 0
M  V30 7 C 7.334789 -2.814229 -1.910458 0
M  V30 8 C 6.502739 -2.031708 -2.686160 0
M  V30 9 C 5.473857 -1.315955 -2.093567 0
M  V30 10 C 2.984559 1.256055 0.956169 0
M  V30 11 C 3.049357 2.547681 1.441863 0
M  V30 12 C 1.917499 3.144083 1.996287 0
M  V30 13 C 0.703349 2.458703 2.073832 0
M  V30 14 C 0.639380 1.169724 1.588878 0
M  V30 15 N -0.574783 0.437063 1.647674 0
M  V30 16 C -1.735395 1.086568 2.231521 0
M  V30 17 C -2.907667 0.178770 2.206845 0
M  V30 18 N -3.831199 0.051052 1.235349 0
M  V30 19 C -4.680428 -0.891375 1.680166 0
M  V30 20 C -5.902125 -1.539083 1.170946 0
M  V30 21 C -5.808893 -2.854041 0.792498 0
M  V30 22 C -6.989955 -3.393283 0.327259 0
M  V30 23 N -8.132858 -2.660027 0.260938 0
M  V30 24 C -8.160687 -1.374862 0.646941 0
M  V30 25 C -7.019700 -0.732442 1.133494 0
M  V30 26 N -4.273267 -1.313198 2.884222 0
M  V30 27 N -3.161762 -0.656261 3.237114 0
M  V30 28 C 1.779842 0.613832 1.047851 0
M  V30 29 H 3.369790 -1.254197 -0.129585 0
M  V30 30 H 5.970303 -2.229067 1.115266 0
M  V30 31 H 7.778194 -3.491298 0.107307 0
M  V30 32 H 8.168341 -3.410241 -2.292143 0
M  V30 33 H 6.682503 -1.998875 -3.761751 0
M  V30 34 H 4.807544 -0.691099 -2.699172 0
M  V30 35 H 3.929215 3.168945 1.434087 0
M  V30 36 H 1.958568 4.162761 2.382077 0
M  V30 37 H -0.189090 2.904014 2.501276 0
M  V30 38 H -0.597125 -0.540623 1.271847 0
M  V30 39 H -1.499857 1.418042 3.268537 0
M  V30 40 H -1.977001 2.024970 1.675833 0
M  V30 41 H -4.879543 -3.385285 0.866485 0
M  V30 42 H -6.996776 -4.436244 0.006623 0
M  V30 43 H -9.079836 -0.803959 0.587985 0
M  V30 44 H -6.992152 0.294208 1.454361 0
M  V30 45 H -2.624153 -0.779774 4.122921 0
M  V30 46 H 1.709165 -0.396948 0.673257 0
M  V30 END ATOM
M  V30 BEGIN BOND
M  V30 1 2 1 2
M  V30 2 1 2 3
M  V30 3 1 3 4
M  V30 4 2 4 5
M  V30 5 1 5 6
M  V30 6 2 6 7
M  V30 7 1 7 8
M  V30 8 2 8 9
M  V30 9 1 2 10
M  V30 10 2 10 11
M  V30 11 1 11 12
M  V30 12 2 12 13
M  V30 13 1 13 14
M  V30 14 1 14 15
M  V30 15 1 15 16
M  V30 16 1 16 17
M  V30 17 2 17 18
M  V30 18 1 18 19
M  V30 19 1 19 20
M  V30 20 2 20 21
M  V30 21 1 21 22
M  V30 22 2 22 23
M  V30 23 1 23 24
M  V30 24 2 24 25
M  V30 25 2 19 26
M  V30 26 1 26 27
M  V30 27 2 14 28
M  V30 28 1 9 4
M  V30 29 1 28 10
M  V30 30 1 27 17
M  V30 31 1 25 20
M  V30 32 1 3 29
M  V30 33 1 5 30
M  V30 34 1 6 31
M  V30 35 1 7 32
M  V30 36 1 8 33
M  V30 37 1 9 34
M  V30 38 1 11 35
M  V30 39 1 12 36
M  V30 40 1 13 37
M  V30 41 1 15 38
M  V30 42 1 16 39
M  V30 43 1 16 40
M  V30 44 1 21 41
M  V30 45 1 22 42
M  V30 46 1 24 43
M  V30 47 1 25 44
M  V30 48 1 27 45
M  V30 49 1 28 46
M  V30 END BOND
M  V30 END CTAB
M  END
>  <Dataset>  (288) 
ChEMBL_Kinases

>  <Ligand_Instance>  (288) 
nan

>  <PDB_ID>  (288) 
nan

>  <Standardized_SMILES>  (288) 
O=C(Nc1ccccc1)c1cccc(NCc2nc(-c3ccncc3)n[nH]2)c1

>  <Name>  (288) 
nan

>  <Pocket>  (288) 
nan

>  <ATP_Site>  (288) 
nan

>  <Peripheral>  (288) 
nan

>  <Num_H_Atoms_ProtBoundConf>  (288) 
nan

>  <Num_Resolved_Atoms>  (288) 
nan

>  <Num_Not_Resolved_Atoms>  (288) 
nan

$$$$
CHEMBL4856384
     RDKit          3D

  0  0  0  0  0  0  0  0  0  0999 V3000
M  V30 BEGIN CTAB
M  V30 COUNTS 67 71 0 0 0
M  V30 BEGIN ATOM
M  V30 1 C 4.714950 -2.441207 5.010859 0
M  V30 2 C 3.363023 -2.674229 4.419141 0
M  V30 3 N 2.541963 -1.633742 4.290778 0
M  V30 4 C 1.292147 -1.753926 3.762363 0
M  V30 5 N 0.393036 -0.664008 3.611628 0
M  V30 6 C 0.627744 -0.082972 2.309841 0
M  V30 7 N 1.411886 -0.315466 1.327861 0
M  V30 8 C 1.318513 0.473690 0.266147 0
M  V30 9 C 0.447556 1.495738 0.174629 0
M  V30 10 C 0.344404 2.354613 -0.978071 0
M  V30 11 O 1.052163 2.247852 -2.023863 0
M  V30 12 N -0.642485 3.385698 -0.885064 0
M  V30 13 C -0.818540 4.298812 -1.996551 0
M  V30 14 C -0.657650 5.750325 -1.606076 0
M  V30 15 N -1.950553 6.423669 -1.544507 0
M  V30 16 C -2.875525 5.685725 -0.692563 0
M  V30 17 C -3.178715 4.366961 -1.365828 0
M  V30 18 C -2.227528 4.122035 -2.517482 0
M  V30 19 C -2.559473 5.183933 -3.558589 0
M  V30 20 C -2.544115 6.524230 -2.851817 0
M  V30 21 S -0.416462 1.409712 1.786249 0
M  V30 22 C 0.911364 -3.017674 3.361584 0
M  V30 23 C 1.765382 -4.093259 3.496416 0
M  V30 24 N 1.514330 -5.444369 3.131416 0
M  V30 25 N 1.645870 -6.297281 2.060854 0
M  V30 26 C 0.505926 -7.116771 1.808953 0
M  V30 27 C 0.246145 -7.169852 0.315210 0
M  V30 28 N 0.051315 -5.854881 -0.244399 0
M  V30 29 C -1.265358 -5.392427 0.070455 0
M  V30 30 C -1.598218 -4.023401 -0.458125 0
M  V30 31 O -2.899164 -3.663652 -0.099697 0
M  V30 32 C 1.122290 -4.995677 0.131274 0
M  V30 33 C 2.226580 -5.737668 0.880699 0
M  V30 34 N 2.978690 -3.895699 4.025183 0
M  V30 35 H 5.174931 -3.417476 5.307818 0
M  V30 36 H 5.331451 -1.989798 4.215006 0
M  V30 37 H 4.676902 -1.820877 5.921766 0
M  V30 38 H -0.334494 -0.267300 4.241615 0
M  V30 39 H 2.050333 0.156745 -0.495484 0
M  V30 40 H -1.237750 3.498357 -0.035973 0
M  V30 41 H -0.063381 4.002396 -2.772726 0
M  V30 42 H -0.093184 6.250164 -2.430395 0
M  V30 43 H -0.096352 5.897031 -0.676444 0
M  V30 44 H -3.776050 6.338410 -0.622725 0
M  V30 45 H -2.495004 5.508176 0.322044 0
M  V30 46 H -4.185459 4.494134 -1.847131 0
M  V30 47 H -3.154876 3.504537 -0.688551 0
M  V30 48 H -2.409107 3.100461 -2.896626 0
M  V30 49 H -3.595068 4.977606 -3.896135 0
M  V30 50 H -1.923551 5.144416 -4.447416 0
M  V30 51 H -3.570389 6.915825 -2.734571 0
M  V30 52 H -1.950238 7.203110 -3.501652 0
M  V30 53 H -0.046729 -3.247675 2.929708 0
M  V30 54 H 1.083883 -6.004081 3.925365 0
M  V30 55 H -0.408604 -6.679460 2.264632 0
M  V30 56 H 0.629494 -8.167896 2.141756 0
M  V30 57 H -0.691309 -7.762833 0.106017 0
M  V30 58 H 1.040013 -7.713197 -0.244702 0
M  V30 59 H -1.973393 -6.093397 -0.461756 0
M  V30 60 H -1.555692 -5.438806 1.122647 0
M  V30 61 H -0.926122 -3.244282 -0.006797 0
M  V30 62 H -1.549873 -3.935584 -1.556359 0
M  V30 63 H -2.956290 -2.782502 0.310736 0
M  V30 64 H 1.615124 -4.659571 -0.823228 0
M  V30 65 H 0.852046 -4.091759 0.670253 0
M  V30 66 H 2.646362 -6.554463 0.242037 0
M  V30 67 H 3.061647 -5.075458 1.103138 0
M  V30 END ATOM
M  V30 BEGIN BOND
M  V30 1 1 1 2
M  V30 2 2 2 3
M  V30 3 1 3 4
M  V30 4 1 4 5
M  V30 5 1 5 6
M  V30 6 2 6 7
M  V30 7 1 7 8
M  V30 8 2 8 9
M  V30 9 1 9 10
M  V30 10 2 10 11
M  V30 11 1 10 12
M  V30 12 1 12 13
M  V30 13 1 13 14
M  V30 14 1 14 15
M  V30 15 1 15 16
M  V30 16 1 16 17
M  V30 17 1 17 18
M  V30 18 1 18 19
M  V30 19 1 19 20
M  V30 20 1 9 21
M  V30 21 2 4 22
M  V30 22 1 22 23
M  V30 23 1 23 24
M  V30 24 1 24 25
M  V30 25 1 25 26
M  V30 26 1 26 27
M  V30 27 1 27 28
M  V30 28 1 28 29
M  V30 29 1 29 30
M  V30 30 1 30 31
M  V30 31 1 28 32
M  V30 32 1 32 33
M  V30 33 2 23 34
M  V30 34 1 34 2
M  V30 35 1 21 6
M  V30 36 1 33 25
M  V30 37 1 18 13
M  V30 38 1 20 15
M  V30 39 1 1 35
M  V30 40 1 1 36
M  V30 41 1 1 37
M  V30 42 1 5 38
M  V30 43 1 8 39
M  V30 44 1 12 40
M  V30 45 1 13 41
M  V30 46 1 14 42
M  V30 47 1 14 43
M  V30 48 1 16 44
M  V30 49 1 16 45
M  V30 50 1 17 46
M  V30 51 1 17 47
M  V30 52 1 18 48
M  V30 53 1 19 49
M  V30 54 1 19 50
M  V30 55 1 20 51
M  V30 56 1 20 52
M  V30 57 1 22 53
M  V30 58 1 24 54
M  V30 59 1 26 55
M  V30 60 1 26 56
M  V30 61 1 27 57
M  V30 62 1 27 58
M  V30 63 1 29 59
M  V30 64 1 29 60
M  V30 65 1 30 61
M  V30 66 1 30 62
M  V30 67 1 31 63
M  V30 68 1 32 64
M  V30 69 1 32 65
M  V30 70 1 33 66
M  V30 71 1 33 67
M  V30 END BOND
M  V30 END CTAB
M  END
>  <Dataset>  (289) 
ChEMBL_Kinases

>  <Ligand_Instance>  (289) 
nan

>  <PDB_ID>  (289) 
nan

>  <Standardized_SMILES>  (289) 
Cc1nc(Nc2ncc(C(=O)NC3CN4CCC3CC4)s2)cc(NN2CCN(CCO)CC2)n1

>  <Name>  (289) 
nan

>  <Pocket>  (289) 
nan

>  <ATP_Site>  (289) 
nan

>  <Peripheral>  (289) 
nan

>  <Num_H_Atoms_ProtBoundConf>  (289) 
nan

>  <Num_Resolved_Atoms>  (289) 
nan

>  <Num_Not_Resolved_Atoms>  (289) 
nan

$$$$
CHEMBL361697
     RDKit          3D

  0  0  0  0  0  0  0  0  0  0999 V3000
M  V30 BEGIN CTAB
M  V30 COUNTS 34 37 0 0 0
M  V30 BEGIN ATOM
M  V30 1 Cl 0.592027 -2.934461 3.894658 0
M  V30 2 C 0.725236 -3.284002 2.169432 0
M  V30 3 C 0.323960 -4.505131 1.611968 0
M  V30 4 C 0.458088 -4.712175 0.249751 0
M  V30 5 Cl -0.063384 -6.258915 -0.436092 0
M  V30 6 C 0.983769 -3.721163 -0.555382 0
M  V30 7 C 1.394598 -2.489722 -0.036805 0
M  V30 8 N 1.915445 -1.516110 -0.938744 0
M  V30 9 C 2.220837 -0.187360 -0.458203 0
M  V30 10 N 3.301550 0.580610 -0.263110 0
M  V30 11 C 3.173125 1.823040 0.242314 0
M  V30 12 C 1.946375 2.356649 0.579075 0
M  V30 13 C 0.829895 1.567806 0.380219 0
M  V30 14 C -0.517426 2.067488 0.742989 0
M  V30 15 C -0.948582 3.295837 1.227238 0
M  V30 16 N -2.273790 3.204542 1.397860 0
M  V30 17 N -2.738021 2.010187 1.060655 0
M  V30 18 N -3.952140 1.446306 1.055592 0
M  V30 19 C -4.128437 0.157874 0.644845 0
M  V30 20 C -3.064569 -0.645348 0.209036 0
M  V30 21 C -1.829837 -0.013519 0.234637 0
M  V30 22 C -1.666678 1.313420 0.659875 0
M  V30 23 N 1.055637 0.328222 -0.134709 0
M  V30 24 C 1.246614 -2.321933 1.317732 0
M  V30 25 H -0.086686 -5.252579 2.286251 0
M  V30 26 H 1.096599 -3.868588 -1.628837 0
M  V30 27 H 2.073102 -1.758064 -1.930375 0
M  V30 28 H 4.123995 2.323337 0.340388 0
M  V30 29 H 1.898447 3.344373 0.978035 0
M  V30 30 H -0.253257 4.097908 1.396518 0
M  V30 31 H -5.132214 -0.280190 0.648098 0
M  V30 32 H -3.229374 -1.662380 -0.112186 0
M  V30 33 H -1.046785 -0.692073 -0.113681 0
M  V30 34 H 1.570272 -1.357369 1.739201 0
M  V30 END ATOM
M  V30 BEGIN BOND
M  V30 1 1 1 2
M  V30 2 2 2 3
M  V30 3 1 3 4
M  V30 4 1 4 5
M  V30 5 2 4 6
M  V30 6 1 6 7
M  V30 7 1 7 8
M  V30 8 1 8 9
M  V30 9 2 9 10
M  V30 10 1 10 11
M  V30 11 2 11 12
M  V30 12 1 12 13
M  V30 13 1 13 14
M  V30 14 1 14 15
M  V30 15 2 15 16
M  V30 16 1 16 17
M  V30 17 1 17 18
M  V30 18 2 18 19
M  V30 19 1 19 20
M  V30 20 2 20 21
M  V30 21 1 21 22
M  V30 22 2 13 23
M  V30 23 2 7 24
M  V30 24 1 24 2
M  V30 25 1 23 9
M  V30 26 2 22 14
M  V30 27 1 22 17
M  V30 28 1 3 25
M  V30 29 1 6 26
M  V30 30 1 8 27
M  V30 31 1 11 28
M  V30 32 1 12 29
M  V30 33 1 15 30
M  V30 34 1 19 31
M  V30 35 1 20 32
M  V30 36 1 21 33
M  V30 37 1 24 34
M  V30 END BOND
M  V30 END CTAB
M  END
>  <Dataset>  (290) 
ChEMBL_Kinases

>  <Ligand_Instance>  (290) 
nan

>  <PDB_ID>  (290) 
nan

>  <Standardized_SMILES>  (290) 
Clc1cc(Cl)cc(Nc2nccc(-c3cnn4ncccc34)n2)c1

>  <Name>  (290) 
nan

>  <Pocket>  (290) 
nan

>  <ATP_Site>  (290) 
nan

>  <Peripheral>  (290) 
nan

>  <Num_H_Atoms_ProtBoundConf>  (290) 
nan

>  <Num_Resolved_Atoms>  (290) 
nan

>  <Num_Not_Resolved_Atoms>  (290) 
nan

$$$$
CHEMBL4076913
     RDKit          3D

  0  0  0  0  0  0  0  0  0  0999 V3000
M  V30 BEGIN CTAB
M  V30 COUNTS 49 53 0 0 0
M  V30 BEGIN ATOM
M  V30 1 C 3.637511 2.091593 6.811156 0
M  V30 2 C 3.140495 1.145327 5.771504 0
M  V30 3 C 3.020310 -0.220930 5.921640 0
M  V30 4 N 2.556566 -0.989782 4.911220 0
M  V30 5 C 2.216474 -0.385917 3.757858 0
M  V30 6 C 2.320269 0.975555 3.563972 0
M  V30 7 C 1.964235 1.672958 2.333304 0
M  V30 8 C 1.478773 1.014764 1.222921 0
M  V30 9 C 1.149835 1.698336 0.071835 0
M  V30 10 C 1.285933 3.066347 -0.034717 0
M  V30 11 C 1.774682 3.677745 1.101298 0
M  V30 12 N 2.094999 3.009030 2.223406 0
M  V30 13 C 0.881697 3.466578 -1.294145 0
M  V30 14 N 0.519804 2.337084 -1.896467 0
M  V30 15 N 0.668263 1.279255 -1.112342 0
M  V30 16 C 0.344877 -0.039552 -1.541409 0
M  V30 17 C 1.252502 -0.716800 -2.351201 0
M  V30 18 C 1.002221 -2.013571 -2.810801 0
M  V30 19 C -0.197554 -2.563962 -2.405784 0
M  V30 20 C -1.115079 -1.915982 -1.604031 0
M  V30 21 C -2.397308 -2.558770 -1.196223 0 CFG=1
M  V30 22 C -3.227561 -2.882760 -2.419505 0
M  V30 23 N -4.566080 -3.188183 -1.963959 0
M  V30 24 C -4.676314 -3.422902 -0.557811 0
M  V30 25 C -3.583769 -4.273308 0.027695 0
M  V30 26 C -2.199041 -3.847066 -0.442388 0
M  V30 27 F -1.678158 -4.777215 -1.309250 0
M  V30 28 F -1.331292 -3.638269 0.616508 0
M  V30 29 N -0.799207 -0.668227 -1.202987 0
M  V30 30 N 2.786750 1.697618 4.598605 0
M  V30 31 H 2.906091 2.889417 7.048314 0
M  V30 32 H 3.825185 1.555797 7.781029 0
M  V30 33 H 4.618955 2.540409 6.527009 0
M  V30 34 H 3.335582 -0.565772 6.915009 0
M  V30 35 H 1.844986 -0.989928 2.944460 0
M  V30 36 H 1.343072 -0.037210 1.218788 0
M  V30 37 H 1.902810 4.767934 1.070890 0
M  V30 38 H 0.898976 4.488023 -1.606791 0
M  V30 39 H 2.176858 -0.215650 -2.627742 0
M  V30 40 H 1.699605 -2.538208 -3.434995 0
M  V30 41 H -0.382260 -3.566576 -2.766011 0
M  V30 42 H -3.004784 -1.886455 -0.555232 0
M  V30 43 H -3.221541 -1.990259 -3.095501 0
M  V30 44 H -2.763409 -3.764779 -2.916466 0
M  V30 45 H -5.073708 -3.835716 -2.580496 0
M  V30 46 H -5.625145 -4.013323 -0.414305 0
M  V30 47 H -4.855221 -2.497459 0.045325 0
M  V30 48 H -3.599764 -4.137772 1.129885 0
M  V30 49 H -3.758225 -5.338917 -0.227476 0
M  V30 END ATOM
M  V30 BEGIN BOND
M  V30 1 1 1 2
M  V30 2 2 2 3
M  V30 3 1 3 4
M  V30 4 2 4 5
M  V30 5 1 5 6
M  V30 6 1 6 7
M  V30 7 2 7 8
M  V30 8 1 8 9
M  V30 9 2 9 10
M  V30 10 1 10 11
M  V30 11 2 11 12
M  V30 12 1 10 13
M  V30 13 2 13 14
M  V30 14 1 14 15
M  V30 15 1 15 16
M  V30 16 2 16 17
M  V30 17 1 17 18
M  V30 18 2 18 19
M  V30 19 1 19 20
M  V30 20 1 20 21
M  V30 21 1 21 22
M  V30 22 1 22 23
M  V30 23 1 23 24
M  V30 24 1 24 25
M  V30 25 1 25 26
M  V30 26 1 26 27
M  V30 27 1 26 28
M  V30 28 2 20 29
M  V30 29 2 6 30
M  V30 30 1 30 2
M  V30 31 1 12 7
M  V30 32 1 29 16
M  V30 33 1 15 9
M  V30 34 1 26 21
M  V30 35 1 1 31
M  V30 36 1 1 32
M  V30 37 1 1 33
M  V30 38 1 3 34
M  V30 39 1 5 35
M  V30 40 1 8 36
M  V30 41 1 11 37
M  V30 42 1 13 38
M  V30 43 1 17 39
M  V30 44 1 18 40
M  V30 45 1 19 41
M  V30 46 1 21 42 CFG=1
M  V30 47 1 22 43
M  V30 48 1 22 44
M  V30 49 1 23 45
M  V30 50 1 24 46
M  V30 51 1 24 47
M  V30 52 1 25 48
M  V30 53 1 25 49
M  V30 END BOND
M  V30 END CTAB
M  END
>  <Dataset>  (291) 
ChEMBL_Kinases

>  <Ligand_Instance>  (291) 
nan

>  <PDB_ID>  (291) 
nan

>  <Standardized_SMILES>  (291) 
Cc1cncc(-c2cc3c(cn2)cnn3-c2cccc([C@H]3CNCCC3(F)F)n2)n1

>  <Name>  (291) 
nan

>  <Pocket>  (291) 
nan

>  <ATP_Site>  (291) 
nan

>  <Peripheral>  (291) 
nan

>  <Num_H_Atoms_ProtBoundConf>  (291) 
nan

>  <Num_Resolved_Atoms>  (291) 
nan

>  <Num_Not_Resolved_Atoms>  (291) 
nan

$$$$
CHEMBL3634756
     RDKit          3D

  0  0  0  0  0  0  0  0  0  0999 V3000
M  V30 BEGIN CTAB
M  V30 COUNTS 50 54 0 0 0
M  V30 BEGIN ATOM
M  V30 1 C 3.218697 -5.987363 3.354016 0
M  V30 2 N 2.682544 -4.894321 2.541681 0
M  V30 3 C 2.704008 -4.818909 1.200676 0
M  V30 4 C 2.112917 -3.653392 0.761689 0
M  V30 5 C 1.935574 -3.195937 -0.611781 0
M  V30 6 C 1.310822 -1.984933 -0.840899 0
M  V30 7 C 1.138858 -1.546274 -2.121054 0
M  V30 8 C 0.567480 -0.410943 -2.654111 0
M  V30 9 C -0.056546 0.719989 -1.980857 0
M  V30 10 C -0.566288 1.749746 -2.757493 0
M  V30 11 C -1.182502 2.879007 -2.269617 0
M  V30 12 C -1.278705 2.950258 -0.898050 0
M  V30 13 C -0.782741 1.944626 -0.095887 0
M  V30 14 N -0.843772 1.941233 1.325472 0
M  V30 15 C -0.274752 0.888437 2.176995 0
M  V30 16 C -1.420489 0.171349 2.814453 0
M  V30 17 C -2.364464 1.097481 3.539874 0
M  V30 18 C -2.738059 2.299532 2.701934 0 CFG=1
M  V30 19 N -3.518717 3.195271 3.504237 0
M  V30 20 C -1.474002 2.965872 2.137182 0
M  V30 21 N -0.186200 0.858035 -0.648929 0
M  V30 22 N 0.709226 -0.566269 -3.986483 0
M  V30 23 N 1.311274 -1.689540 -4.268320 0
M  V30 24 C 1.603148 -2.343635 -3.137608 0
M  V30 25 C 2.231202 -3.559438 -2.930410 0
M  V30 26 N 2.373678 -3.943280 -1.630605 0
M  V30 27 C 1.722906 -3.009991 1.918358 0
M  V30 28 N 2.078569 -3.780364 2.979575 0
M  V30 29 H 4.286766 -6.094704 3.102577 0
M  V30 30 H 3.161720 -5.703225 4.423886 0
M  V30 31 H 2.640128 -6.916508 3.226259 0
M  V30 32 H 3.133724 -5.583707 0.571679 0
M  V30 33 H 0.960963 -1.387374 -0.037301 0
M  V30 34 H -0.493616 1.702472 -3.855076 0
M  V30 35 H -1.563108 3.650817 -2.902944 0
M  V30 36 H -1.745729 3.799320 -0.442663 0
M  V30 37 H 0.372709 1.415092 2.913985 0
M  V30 38 H 0.345331 0.179412 1.640329 0
M  V30 39 H -0.978288 -0.479533 3.622058 0
M  V30 40 H -1.929147 -0.445353 2.073782 0
M  V30 41 H -3.294712 0.518183 3.714471 0
M  V30 42 H -1.962264 1.381317 4.532899 0
M  V30 43 H -3.367803 1.926438 1.874422 0
M  V30 44 H -4.068741 2.588136 4.182648 0
M  V30 45 H -4.255083 3.623893 2.885654 0
M  V30 46 H -0.828363 3.227318 3.000279 0
M  V30 47 H -1.814533 3.830508 1.568166 0
M  V30 48 H 1.483250 -1.932898 -5.270336 0
M  V30 49 H 2.577713 -4.146928 -3.773642 0
M  V30 50 H 1.226937 -2.070360 1.994094 0
M  V30 END ATOM
M  V30 BEGIN BOND
M  V30 1 1 1 2
M  V30 2 1 2 3
M  V30 3 2 3 4
M  V30 4 1 4 5
M  V30 5 2 5 6
M  V30 6 1 6 7
M  V30 7 1 7 8
M  V30 8 1 8 9
M  V30 9 2 9 10
M  V30 10 1 10 11
M  V30 11 2 11 12
M  V30 12 1 12 13
M  V30 13 1 13 14
M  V30 14 1 14 15
M  V30 15 1 15 16
M  V30 16 1 16 17
M  V30 17 1 17 18
M  V30 18 1 18 19
M  V30 19 1 18 20
M  V30 20 2 13 21
M  V30 21 2 8 22
M  V30 22 1 22 23
M  V30 23 1 23 24
M  V30 24 1 24 25
M  V30 25 2 25 26
M  V30 26 1 4 27
M  V30 27 2 27 28
M  V30 28 1 28 2
M  V30 29 1 26 5
M  V30 30 2 24 7
M  V30 31 1 21 9
M  V30 32 1 20 14
M  V30 33 1 1 29
M  V30 34 1 1 30
M  V30 35 1 1 31
M  V30 36 1 3 32
M  V30 37 1 6 33
M  V30 38 1 10 34
M  V30 39 1 11 35
M  V30 40 1 12 36
M  V30 41 1 15 37
M  V30 42 1 15 38
M  V30 43 1 16 39
M  V30 44 1 16 40
M  V30 45 1 17 41
M  V30 46 1 17 42
M  V30 47 1 18 43 CFG=3
M  V30 48 1 19 44
M  V30 49 1 19 45
M  V30 50 1 20 46
M  V30 51 1 20 47
M  V30 52 1 23 48
M  V30 53 1 25 49
M  V30 54 1 27 50
M  V30 END BOND
M  V30 END CTAB
M  END
>  <Dataset>  (292) 
ChEMBL_Kinases

>  <Ligand_Instance>  (292) 
nan

>  <PDB_ID>  (292) 
nan

>  <Standardized_SMILES>  (292) 
Cn1cc(-c2cc3c(-c4cccc(N5CCC[C@@H](N)C5)n4)n[nH]c3cn2)cn1

>  <Name>  (292) 
nan

>  <Pocket>  (292) 
nan

>  <ATP_Site>  (292) 
nan

>  <Peripheral>  (292) 
nan

>  <Num_H_Atoms_ProtBoundConf>  (292) 
nan

>  <Num_Resolved_Atoms>  (292) 
nan

>  <Num_Not_Resolved_Atoms>  (292) 
nan

$$$$
CHEMBL4086532
     RDKit          3D

  0  0  0  0  0  0  0  0  0  0999 V3000
M  V30 BEGIN CTAB
M  V30 COUNTS 36 38 0 0 0
M  V30 BEGIN ATOM
M  V30 1 N -0.076341 -2.672576 3.969755 0
M  V30 2 C 1.254545 -2.186022 4.102083 0
M  V30 3 O 1.916330 -2.597766 5.091695 0
M  V30 4 C 1.817093 -1.252672 3.129613 0
M  V30 5 C 3.113821 -0.815604 3.310844 0
M  V30 6 C 3.605455 0.065237 2.368919 0
M  V30 7 Cl 5.229788 0.638873 2.558983 0
M  V30 8 C 2.770963 0.439373 1.326062 0
M  V30 9 C 3.119707 1.310448 0.310880 0
M  V30 10 Cl 4.625615 2.167226 0.028354 0
M  V30 11 C 1.977794 1.361318 -0.464021 0
M  V30 12 I 1.743806 2.502978 -2.216845 0
M  V30 13 N 0.993903 0.585804 0.025055 0
M  V30 14 C -0.339664 0.275012 -0.357564 0
M  V30 15 C -0.597112 -1.235734 -0.457538 0
M  V30 16 C -2.046066 -1.483488 -0.197195 0
M  V30 17 C -2.817527 -0.377539 -0.879525 0
M  V30 18 C -2.102648 0.152764 -2.091416 0
M  V30 19 O -1.958999 -0.871461 -3.033341 0
M  V30 20 C -0.753292 0.776783 -1.723196 0
M  V30 21 C 1.475033 0.000762 1.147466 0
M  V30 22 N 1.059005 -0.850252 2.093838 0
M  V30 23 H -0.127870 -3.641952 3.586597 0
M  V30 24 H -0.102322 -3.638272 3.586887 0
M  V30 25 H 3.661863 -1.182572 4.167092 0
M  V30 26 H -1.084556 0.657095 0.389520 0
M  V30 27 H -0.354319 -1.598667 -1.499573 0
M  V30 28 H 0.018652 -1.835286 0.201125 0
M  V30 29 H -2.248843 -1.400683 0.892699 0
M  V30 30 H -2.380804 -2.487458 -0.527916 0
M  V30 31 H -3.756271 -0.829747 -1.246162 0
M  V30 32 H -3.084964 0.407290 -0.172819 0
M  V30 33 H -2.782559 0.881959 -2.579220 0
M  V30 34 H -2.594712 -1.599558 -2.850671 0
M  V30 35 H -0.929073 1.846264 -1.759050 0
M  V30 36 H -0.031765 0.361250 -2.436433 0
M  V30 END ATOM
M  V30 BEGIN BOND
M  V30 1 1 1 2
M  V30 2 2 2 3
M  V30 3 1 2 4
M  V30 4 2 4 5
M  V30 5 1 5 6
M  V30 6 1 6 7
M  V30 7 2 6 8
M  V30 8 1 8 9
M  V30 9 1 9 10
M  V30 10 2 9 11
M  V30 11 1 11 12
M  V30 12 1 11 13
M  V30 13 1 13 14
M  V30 14 1 14 15
M  V30 15 1 15 16
M  V30 16 1 16 17
M  V30 17 1 17 18
M  V30 18 1 18 19
M  V30 19 1 18 20
M  V30 20 1 13 21
M  V30 21 2 21 22
M  V30 22 1 22 4
M  V30 23 1 21 8
M  V30 24 1 20 14
M  V30 25 1 1 23
M  V30 26 1 1 24
M  V30 27 1 5 25
M  V30 28 1 14 26
M  V30 29 1 15 27
M  V30 30 1 15 28
M  V30 31 1 16 29
M  V30 32 1 16 30
M  V30 33 1 17 31
M  V30 34 1 17 32
M  V30 35 1 18 33
M  V30 36 1 19 34
M  V30 37 1 20 35
M  V30 38 1 20 36
M  V30 END BOND
M  V30 END CTAB
M  END
>  <Dataset>  (293) 
ChEMBL_Kinases

>  <Ligand_Instance>  (293) 
nan

>  <PDB_ID>  (293) 
nan

>  <Standardized_SMILES>  (293) 
NC(=O)c1cc(Cl)c2c(Cl)c(I)n(C3CCCC(O)C3)c2n1

>  <Name>  (293) 
nan

>  <Pocket>  (293) 
nan

>  <ATP_Site>  (293) 
nan

>  <Peripheral>  (293) 
nan

>  <Num_H_Atoms_ProtBoundConf>  (293) 
nan

>  <Num_Resolved_Atoms>  (293) 
nan

>  <Num_Not_Resolved_Atoms>  (293) 
nan

$$$$
CHEMBL3580669
     RDKit          3D

  0  0  0  0  0  0  0  0  0  0999 V3000
M  V30 BEGIN CTAB
M  V30 COUNTS 43 45 0 0 0
M  V30 BEGIN ATOM
M  V30 1 C 3.717417 -2.788627 3.332708 0
M  V30 2 S 5.361934 -2.107420 3.150587 0
M  V30 3 O 6.228109 -3.019037 2.384569 0
M  V30 4 O 5.943481 -2.062375 4.559722 0
M  V30 5 N 5.297104 -0.493266 2.614767 0
M  V30 6 C 4.684724 -0.381242 1.353902 0
M  V30 7 C 4.913990 -1.176604 0.251233 0
M  V30 8 C 4.234361 -0.952793 -0.937836 0
M  V30 9 C 3.314846 0.072625 -1.037054 0
M  V30 10 C 3.058902 0.891061 0.048705 0
M  V30 11 C 2.068965 2.025257 0.002505 0
M  V30 12 C 0.757398 1.416613 0.420213 0
M  V30 13 O 1.171895 0.243898 0.599414 0
M  V30 14 N -0.486901 2.050197 0.540506 0
M  V30 15 C -1.596702 1.255159 0.957907 0
M  V30 16 C -2.492273 0.540391 0.244237 0
M  V30 17 C -3.486843 -0.153525 0.878267 0
M  V30 18 C -4.504116 -0.956142 0.206618 0
M  V30 19 C -5.758816 -1.072094 0.768546 0
M  V30 20 C -6.664394 -1.838006 0.088480 0
M  V30 21 N -6.385793 -2.460672 -1.068045 0
M  V30 22 C -5.166906 -2.355378 -1.625596 0
M  V30 23 F -4.848444 -2.974257 -2.800366 0
M  V30 24 C -4.202518 -1.594328 -0.988276 0
M  V30 25 C -3.479245 -0.047067 2.321499 0
M  V30 26 S -2.020869 1.057555 2.636785 0
M  V30 27 C 3.751859 0.643597 1.220846 0
M  V30 28 H 3.481814 -3.081982 4.362870 0
M  V30 29 H 2.951142 -2.062667 2.953599 0
M  V30 30 H 3.603529 -3.703034 2.715013 0
M  V30 31 H 5.654957 0.348916 3.123465 0
M  V30 32 H 5.626284 -1.953110 0.365887 0
M  V30 33 H 4.418392 -1.584969 -1.809623 0
M  V30 34 H 2.765267 0.270902 -1.961794 0
M  V30 35 H 2.364078 2.806035 0.729875 0
M  V30 36 H 2.033348 2.406780 -1.022728 0
M  V30 37 H -0.479554 3.073865 0.305517 0
M  V30 38 H -2.387606 0.543016 -0.830543 0
M  V30 39 H -5.931473 -0.554871 1.694003 0
M  V30 40 H -7.663264 -1.937571 0.524434 0
M  V30 41 H -3.208681 -1.493432 -1.418881 0
M  V30 42 H -4.191382 -0.530474 2.969349 0
M  V30 43 H 3.526951 1.309694 2.063504 0
M  V30 END ATOM
M  V30 BEGIN BOND
M  V30 1 1 1 2
M  V30 2 2 2 3
M  V30 3 2 2 4
M  V30 4 1 2 5
M  V30 5 1 5 6
M  V30 6 2 6 7
M  V30 7 1 7 8
M  V30 8 2 8 9
M  V30 9 1 9 10
M  V30 10 1 10 11
M  V30 11 1 11 12
M  V30 12 2 12 13
M  V30 13 1 12 14
M  V30 14 1 14 15
M  V30 15 2 15 16
M  V30 16 1 16 17
M  V30 17 1 17 18
M  V30 18 2 18 19
M  V30 19 1 19 20
M  V30 20 2 20 21
M  V30 21 1 21 22
M  V30 22 1 22 23
M  V30 23 2 22 24
M  V30 24 2 17 25
M  V30 25 1 25 26
M  V30 26 2 10 27
M  V30 27 1 27 6
M  V30 28 1 26 15
M  V30 29 1 24 18
M  V30 30 1 1 28
M  V30 31 1 1 29
M  V30 32 1 1 30
M  V30 33 1 5 31
M  V30 34 1 7 32
M  V30 35 1 8 33
M  V30 36 1 9 34
M  V30 37 1 11 35
M  V30 38 1 11 36
M  V30 39 1 14 37
M  V30 40 1 16 38
M  V30 41 1 19 39
M  V30 42 1 20 40
M  V30 43 1 24 41
M  V30 44 1 25 42
M  V30 45 1 27 43
M  V30 END BOND
M  V30 END CTAB
M  END
>  <Dataset>  (294) 
ChEMBL_Kinases

>  <Ligand_Instance>  (294) 
nan

>  <PDB_ID>  (294) 
nan

>  <Standardized_SMILES>  (294) 
CS(=O)(=O)Nc1cccc(CC(=O)Nc2cc(-c3ccnc(F)c3)cs2)c1

>  <Name>  (294) 
nan

>  <Pocket>  (294) 
nan

>  <ATP_Site>  (294) 
nan

>  <Peripheral>  (294) 
nan

>  <Num_H_Atoms_ProtBoundConf>  (294) 
nan

>  <Num_Resolved_Atoms>  (294) 
nan

>  <Num_Not_Resolved_Atoms>  (294) 
nan

$$$$
CHEMBL3577878
     RDKit          3D

  0  0  0  0  0  0  0  0  0  0999 V3000
M  V30 BEGIN CTAB
M  V30 COUNTS 63 66 0 0 0
M  V30 BEGIN ATOM
M  V30 1 C 4.727111 2.980168 5.425133 0
M  V30 2 C 4.796279 3.230626 3.938566 0
M  V30 3 C 6.093285 2.631347 3.437233 0
M  V30 4 N 3.656418 2.707216 3.222916 0
M  V30 5 C 2.755243 3.384084 2.371054 0
M  V30 6 O 2.958668 4.617133 2.200004 0
M  V30 7 N 1.707944 2.618530 1.787978 0
M  V30 8 C 0.751510 3.249059 0.906734 0 CFG=1
M  V30 9 C 0.969911 2.666209 -0.474027 0
M  V30 10 C 0.460787 1.269520 -0.605533 0
M  V30 11 C -0.780597 1.020220 0.184329 0 CFG=2
M  V30 12 N -1.615035 0.002364 -0.422773 0
M  V30 13 C -1.097574 -1.308710 -0.607059 0
M  V30 14 N 0.153023 -1.629697 -0.229385 0
M  V30 15 C 0.652720 -2.867967 -0.399671 0
M  V30 16 C -0.175318 -3.804193 -0.982142 0
M  V30 17 C 0.322572 -5.076242 -1.171168 0
M  V30 18 C -0.527779 -5.988271 -1.762903 0
M  V30 19 C -1.807157 -5.624652 -2.138236 0
M  V30 20 O -2.386632 -6.615117 -2.652837 0
M  V30 21 N -2.332120 -4.375764 -1.965495 0
M  V30 22 C -3.652259 -4.116164 -2.387663 0
M  V30 23 C -4.620444 -5.294468 -2.294122 0
M  V30 24 C -4.797410 -5.800243 -0.900990 0
M  V30 25 O -5.227093 -4.745130 -0.078702 0
M  V30 26 C -4.276400 -3.701123 -0.096778 0
M  V30 27 C -4.341361 -3.113779 -1.475026 0
M  V30 28 C -1.462716 -3.533794 -1.388024 0
M  V30 29 N -1.840989 -2.269714 -1.164714 0
M  V30 30 C -1.509472 2.307911 0.389098 0
M  V30 31 C -0.668313 3.146492 1.337642 0
M  V30 32 H 4.140736 2.047505 5.639015 0
M  V30 33 H 4.182082 3.835276 5.880474 0
M  V30 34 H 5.755171 2.876567 5.867170 0
M  V30 35 H 4.862346 4.319361 3.702272 0
M  V30 36 H 6.520549 3.248241 2.601055 0
M  V30 37 H 6.000624 1.590768 3.120728 0
M  V30 38 H 6.830259 2.711918 4.259141 0
M  V30 39 H 3.556459 1.671410 3.419813 0
M  V30 40 H 1.631643 1.592143 2.000110 0
M  V30 41 H 1.045753 4.316184 0.848736 0
M  V30 42 H 0.583043 3.346292 -1.282191 0
M  V30 43 H 2.072094 2.649850 -0.639957 0
M  V30 44 H 1.206027 0.501669 -0.305188 0
M  V30 45 H 0.261153 1.058993 -1.690909 0
M  V30 46 H -0.492701 0.599914 1.180179 0
M  V30 47 H -2.585358 0.212748 -0.726270 0
M  V30 48 H 1.651574 -3.129066 -0.099355 0
M  V30 49 H 1.328954 -5.309097 -0.859931 0
M  V30 50 H -0.076524 -6.972833 -1.884536 0
M  V30 51 H -3.740577 -3.748710 -3.432739 0
M  V30 52 H -5.626291 -4.803658 -2.530677 0
M  V30 53 H -4.526422 -6.030418 -3.083359 0
M  V30 54 H -5.694817 -6.486350 -0.938577 0
M  V30 55 H -3.979153 -6.362996 -0.466633 0
M  V30 56 H -4.521346 -3.007774 0.710030 0
M  V30 57 H -3.305821 -4.239046 0.115284 0
M  V30 58 H -4.053929 -2.082875 -1.591850 0
M  V30 59 H -5.462409 -3.108836 -1.723299 0
M  V30 60 H -2.503620 2.117300 0.842679 0
M  V30 61 H -1.639114 2.820802 -0.590955 0
M  V30 62 H -0.818851 2.717613 2.340716 0
M  V30 63 H -1.143801 4.148685 1.335879 0
M  V30 END ATOM
M  V30 BEGIN BOND
M  V30 1 1 1 2
M  V30 2 1 2 3
M  V30 3 1 2 4
M  V30 4 1 4 5
M  V30 5 2 5 6
M  V30 6 1 5 7
M  V30 7 1 7 8
M  V30 8 1 8 9
M  V30 9 1 9 10
M  V30 10 1 10 11
M  V30 11 1 11 12
M  V30 12 1 12 13
M  V30 13 2 13 14
M  V30 14 1 14 15
M  V30 15 2 15 16
M  V30 16 1 16 17
M  V30 17 2 17 18
M  V30 18 1 18 19
M  V30 19 2 19 20
M  V30 20 1 19 21
M  V30 21 1 21 22
M  V30 22 1 22 23
M  V30 23 1 23 24
M  V30 24 1 24 25
M  V30 25 1 25 26
M  V30 26 1 26 27
M  V30 27 1 21 28
M  V30 28 2 28 29
M  V30 29 1 11 30
M  V30 30 1 30 31
M  V30 31 1 31 8
M  V30 32 1 29 13
M  V30 33 1 28 16
M  V30 34 1 27 22
M  V30 35 1 1 32
M  V30 36 1 1 33
M  V30 37 1 1 34
M  V30 38 1 2 35
M  V30 39 1 3 36
M  V30 40 1 3 37
M  V30 41 1 3 38
M  V30 42 1 4 39
M  V30 43 1 7 40
M  V30 44 1 8 41 CFG=3
M  V30 45 1 9 42
M  V30 46 1 9 43
M  V30 47 1 10 44
M  V30 48 1 10 45
M  V30 49 1 11 46 CFG=1
M  V30 50 1 12 47
M  V30 51 1 15 48
M  V30 52 1 17 49
M  V30 53 1 18 50
M  V30 54 1 22 51
M  V30 55 1 23 52
M  V30 56 1 23 53
M  V30 57 1 24 54
M  V30 58 1 24 55
M  V30 59 1 26 56
M  V30 60 1 26 57
M  V30 61 1 27 58
M  V30 62 1 27 59
M  V30 63 1 30 60
M  V30 64 1 30 61
M  V30 65 1 31 62
M  V30 66 1 31 63
M  V30 END BOND
M  V30 END CTAB
M  END
>  <Dataset>  (295) 
ChEMBL_Kinases

>  <Ligand_Instance>  (295) 
nan

>  <PDB_ID>  (295) 
nan

>  <Standardized_SMILES>  (295) 
CC(C)NC(=O)N[C@H]1CC[C@H](Nc2ncc3ccc(=O)n(C4CCOCC4)c3n2)CC1

>  <Name>  (295) 
nan

>  <Pocket>  (295) 
nan

>  <ATP_Site>  (295) 
nan

>  <Peripheral>  (295) 
nan

>  <Num_H_Atoms_ProtBoundConf>  (295) 
nan

>  <Num_Resolved_Atoms>  (295) 
nan

>  <Num_Not_Resolved_Atoms>  (295) 
nan

$$$$
CHEMBL3577877
     RDKit          3D

  0  0  0  0  0  0  0  0  0  0999 V3000
M  V30 BEGIN CTAB
M  V30 COUNTS 62 65 0 0 0
M  V30 BEGIN ATOM
M  V30 1 C 3.750151 -5.024959 3.682120 0
M  V30 2 C 4.725042 -4.089506 2.951038 0
M  V30 3 C 5.748501 -4.969662 2.303864 0
M  V30 4 N 3.892078 -3.367110 1.988409 0
M  V30 5 C 3.693540 -1.992367 2.173235 0
M  V30 6 O 4.119127 -1.235621 3.055244 0
M  V30 7 N 2.877538 -1.372611 1.196921 0
M  V30 8 C 2.420112 -0.024724 0.996437 0 CFG=1
M  V30 9 C 3.010926 0.534298 -0.261851 0
M  V30 10 C 2.401213 1.874166 -0.621696 0
M  V30 11 C 0.925970 1.611721 -0.725962 0 CFG=2
M  V30 12 N 0.186115 2.556110 -1.484318 0
M  V30 13 C -1.232212 2.459309 -1.689837 0
M  V30 14 N -1.878976 3.384837 -2.417842 0
M  V30 15 C -3.212541 3.333969 -2.636653 0
M  V30 16 C -3.917824 2.300915 -2.093609 0
M  V30 17 C -5.293678 2.166737 -2.264050 0
M  V30 18 C -5.904185 1.079169 -1.665578 0
M  V30 19 C -5.188446 0.138684 -0.914469 0
M  V30 20 O -5.937136 -0.746765 -0.474496 0
M  V30 21 N -3.879507 0.262165 -0.750016 0
M  V30 22 C -3.192135 -0.718116 0.022025 0
M  V30 23 C -3.125979 -2.095494 -0.393745 0
M  V30 24 C -3.832081 -2.971337 0.577595 0
M  V30 25 C -3.691887 -2.192455 1.869796 0
M  V30 26 C -3.734437 -0.733408 1.433695 0
M  V30 27 C -3.290450 1.325423 -1.336382 0
M  V30 28 N -1.948100 1.449631 -1.164114 0
M  V30 29 C 0.445994 1.440746 0.711044 0
M  V30 30 C 0.925957 0.056074 1.095175 0
M  V30 31 H 2.905671 -5.307542 3.034056 0
M  V30 32 H 3.320362 -4.483880 4.573818 0
M  V30 33 H 4.258966 -5.913507 4.098298 0
M  V30 34 H 5.123248 -3.430854 3.724802 0
M  V30 35 H 6.647817 -4.377211 2.079154 0
M  V30 36 H 5.292697 -5.436150 1.396733 0
M  V30 37 H 5.964087 -5.784130 3.056974 0
M  V30 38 H 3.485805 -3.917744 1.206785 0
M  V30 39 H 2.438279 -1.881071 0.380447 0
M  V30 40 H 2.839766 0.582199 1.828396 0
M  V30 41 H 2.908149 -0.103446 -1.152871 0
M  V30 42 H 4.095351 0.712093 -0.046466 0
M  V30 43 H 2.560209 2.607797 0.214798 0
M  V30 44 H 2.866845 2.293566 -1.509226 0
M  V30 45 H 0.807772 0.626415 -1.251781 0
M  V30 46 H 0.705252 3.339700 -1.898759 0
M  V30 47 H -3.685108 4.090901 -3.220882 0
M  V30 48 H -5.803068 2.906404 -2.845449 0
M  V30 49 H -6.970201 1.056270 -1.850666 0
M  V30 50 H -2.140389 -0.298654 0.138611 0
M  V30 51 H -3.347057 -2.329963 -1.456028 0
M  V30 52 H -2.042496 -2.439513 -0.322062 0
M  V30 53 H -4.915963 -3.106889 0.428399 0
M  V30 54 H -3.350570 -3.972451 0.654383 0
M  V30 55 H -2.672739 -2.440867 2.268469 0
M  V30 56 H -4.439922 -2.432083 2.626667 0
M  V30 57 H -4.769431 -0.390447 1.511319 0
M  V30 58 H -3.116721 -0.175502 2.159939 0
M  V30 59 H 0.969581 2.144554 1.392363 0
M  V30 60 H -0.641647 1.480417 0.817729 0
M  V30 61 H 0.634725 -0.256065 2.095945 0
M  V30 62 H 0.406854 -0.624405 0.387834 0
M  V30 END ATOM
M  V30 BEGIN BOND
M  V30 1 1 1 2
M  V30 2 1 2 3
M  V30 3 1 2 4
M  V30 4 1 4 5
M  V30 5 2 5 6
M  V30 6 1 5 7
M  V30 7 1 7 8
M  V30 8 1 8 9
M  V30 9 1 9 10
M  V30 10 1 10 11
M  V30 11 1 11 12
M  V30 12 1 12 13
M  V30 13 2 13 14
M  V30 14 1 14 15
M  V30 15 2 15 16
M  V30 16 1 16 17
M  V30 17 2 17 18
M  V30 18 1 18 19
M  V30 19 2 19 20
M  V30 20 1 19 21
M  V30 21 1 21 22
M  V30 22 1 22 23
M  V30 23 1 23 24
M  V30 24 1 24 25
M  V30 25 1 25 26
M  V30 26 1 21 27
M  V30 27 2 27 28
M  V30 28 1 11 29
M  V30 29 1 29 30
M  V30 30 1 30 8
M  V30 31 1 28 13
M  V30 32 1 27 16
M  V30 33 1 26 22
M  V30 34 1 1 31
M  V30 35 1 1 32
M  V30 36 1 1 33
M  V30 37 1 2 34
M  V30 38 1 3 35
M  V30 39 1 3 36
M  V30 40 1 3 37
M  V30 41 1 4 38
M  V30 42 1 7 39
M  V30 43 1 8 40 CFG=1
M  V30 44 1 9 41
M  V30 45 1 9 42
M  V30 46 1 10 43
M  V30 47 1 10 44
M  V30 48 1 11 45 CFG=3
M  V30 49 1 12 46
M  V30 50 1 15 47
M  V30 51 1 17 48
M  V30 52 1 18 49
M  V30 53 1 22 50
M  V30 54 1 23 51
M  V30 55 1 23 52
M  V30 56 1 24 53
M  V30 57 1 24 54
M  V30 58 1 25 55
M  V30 59 1 25 56
M  V30 60 1 26 57
M  V30 61 1 26 58
M  V30 62 1 29 59
M  V30 63 1 29 60
M  V30 64 1 30 61
M  V30 65 1 30 62
M  V30 END BOND
M  V30 END CTAB
M  END
>  <Dataset>  (296) 
ChEMBL_Kinases

>  <Ligand_Instance>  (296) 
nan

>  <PDB_ID>  (296) 
nan

>  <Standardized_SMILES>  (296) 
CC(C)NC(=O)N[C@H]1CC[C@H](Nc2ncc3ccc(=O)n(C4CCCC4)c3n2)CC1

>  <Name>  (296) 
nan

>  <Pocket>  (296) 
nan

>  <ATP_Site>  (296) 
nan

>  <Peripheral>  (296) 
nan

>  <Num_H_Atoms_ProtBoundConf>  (296) 
nan

>  <Num_Resolved_Atoms>  (296) 
nan

>  <Num_Not_Resolved_Atoms>  (296) 
nan

$$$$
CHEMBL3577876
     RDKit          3D

  0  0  0  0  0  0  0  0  0  0999 V3000
M  V30 BEGIN CTAB
M  V30 COUNTS 52 54 0 0 0
M  V30 BEGIN ATOM
M  V30 1 C 2.228311 -0.038704 7.044117 0
M  V30 2 C 1.267120 -0.710195 6.086895 0
M  V30 3 C 0.261373 -1.524369 6.875051 0
M  V30 4 N 0.566617 0.256501 5.260386 0
M  V30 5 C 0.640072 0.246968 3.856936 0
M  V30 6 O 1.358953 -0.662248 3.360723 0
M  V30 7 N -0.037646 1.184187 3.025686 0
M  V30 8 C 0.090013 1.105481 1.594918 0 CFG=1
M  V30 9 C -1.250201 1.011740 0.941818 0
M  V30 10 C -1.127271 0.870921 -0.550143 0
M  V30 11 C 0.232901 1.077010 -1.106071 0 CFG=2
M  V30 12 N 1.103635 -0.065636 -1.127995 0
M  V30 13 C 0.782612 -1.242882 -1.834536 0
M  V30 14 N 1.591747 -2.341416 -1.871348 0
M  V30 15 C 1.330236 -3.460964 -2.518688 0
M  V30 16 C 0.143839 -3.544706 -3.222248 0
M  V30 17 C -0.154919 -4.689767 -3.901905 0
M  V30 18 C -1.342634 -4.750514 -4.595923 0
M  V30 19 C -2.158206 -3.654485 -4.563841 0
M  V30 20 O -3.238655 -3.713140 -5.196698 0
M  V30 21 N -1.825618 -2.543803 -3.880560 0
M  V30 22 C -2.760634 -1.448945 -3.916064 0
M  V30 23 C -0.678411 -2.422831 -3.182362 0
M  V30 24 N -0.373639 -1.295231 -2.507133 0
M  V30 25 C 0.900737 2.250090 -0.447696 0
M  V30 26 C 0.770096 2.327890 1.020247 0
M  V30 27 H 2.590094 -0.822250 7.743781 0
M  V30 28 H 3.122737 0.350571 6.537712 0
M  V30 29 H 1.726949 0.760253 7.626705 0
M  V30 30 H 1.849164 -1.433358 5.475532 0
M  V30 31 H 0.668361 -2.527064 7.141008 0
M  V30 32 H -0.085244 -0.991133 7.775403 0
M  V30 33 H -0.658090 -1.741209 6.285059 0
M  V30 34 H -0.001811 0.969305 5.751989 0
M  V30 35 H -0.599509 1.888314 3.518844 0
M  V30 36 H 0.746691 0.259673 1.386380 0
M  V30 37 H -1.813147 1.927734 1.247479 0
M  V30 38 H -1.814106 0.174759 1.407308 0
M  V30 39 H -1.792210 1.670985 -0.994411 0
M  V30 40 H -1.610362 -0.065664 -0.828863 0
M  V30 41 H 0.106759 1.347434 -2.177941 0
M  V30 42 H 2.034674 -0.077106 -0.610386 0
M  V30 43 H 2.054280 -4.269326 -2.473545 0
M  V30 44 H 0.563489 -5.521521 -3.870389 0
M  V30 45 H -1.552288 -5.669666 -5.124553 0
M  V30 46 H -3.809422 -1.772052 -4.066718 0
M  V30 47 H -2.717772 -0.931324 -2.925023 0
M  V30 48 H -2.442081 -0.706612 -4.652911 0
M  V30 49 H 1.992584 2.164594 -0.710502 0
M  V30 50 H 0.551932 3.182780 -0.947637 0
M  V30 51 H 0.191393 3.260496 1.276976 0
M  V30 52 H 1.740849 2.453891 1.548823 0
M  V30 END ATOM
M  V30 BEGIN BOND
M  V30 1 1 1 2
M  V30 2 1 2 3
M  V30 3 1 2 4
M  V30 4 1 4 5
M  V30 5 2 5 6
M  V30 6 1 5 7
M  V30 7 1 7 8
M  V30 8 1 8 9
M  V30 9 1 9 10
M  V30 10 1 10 11
M  V30 11 1 11 12
M  V30 12 1 12 13
M  V30 13 2 13 14
M  V30 14 1 14 15
M  V30 15 2 15 16
M  V30 16 1 16 17
M  V30 17 2 17 18
M  V30 18 1 18 19
M  V30 19 2 19 20
M  V30 20 1 19 21
M  V30 21 1 21 22
M  V30 22 1 21 23
M  V30 23 2 23 24
M  V30 24 1 11 25
M  V30 25 1 25 26
M  V30 26 1 26 8
M  V30 27 1 24 13
M  V30 28 1 23 16
M  V30 29 1 1 27
M  V30 30 1 1 28
M  V30 31 1 1 29
M  V30 32 1 2 30
M  V30 33 1 3 31
M  V30 34 1 3 32
M  V30 35 1 3 33
M  V30 36 1 4 34
M  V30 37 1 7 35
M  V30 38 1 8 36 CFG=1
M  V30 39 1 9 37
M  V30 40 1 9 38
M  V30 41 1 10 39
M  V30 42 1 10 40
M  V30 43 1 11 41 CFG=3
M  V30 44 1 12 42
M  V30 45 1 15 43
M  V30 46 1 17 44
M  V30 47 1 18 45
M  V30 48 1 22 46
M  V30 49 1 22 47
M  V30 50 1 22 48
M  V30 51 1 25 49
M  V30 52 1 25 50
M  V30 53 1 26 51
M  V30 54 1 26 52
M  V30 END BOND
M  V30 END CTAB
M  END
>  <Dataset>  (297) 
ChEMBL_Kinases

>  <Ligand_Instance>  (297) 
nan

>  <PDB_ID>  (297) 
nan

>  <Standardized_SMILES>  (297) 
CC(C)NC(=O)N[C@H]1CC[C@H](Nc2ncc3ccc(=O)n(C)c3n2)CC1

>  <Name>  (297) 
nan

>  <Pocket>  (297) 
nan

>  <ATP_Site>  (297) 
nan

>  <Peripheral>  (297) 
nan

>  <Num_H_Atoms_ProtBoundConf>  (297) 
nan

>  <Num_Resolved_Atoms>  (297) 
nan

>  <Num_Not_Resolved_Atoms>  (297) 
nan

$$$$
CHEMBL3577875
     RDKit          3D

  0  0  0  0  0  0  0  0  0  0999 V3000
M  V30 BEGIN CTAB
M  V30 COUNTS 49 51 0 0 0
M  V30 BEGIN ATOM
M  V30 1 C 1.206783 -6.557567 2.593684 0
M  V30 2 C 0.152074 -5.637264 2.048928 0
M  V30 3 C -1.141330 -6.377800 1.757255 0
M  V30 4 N 0.621026 -5.071286 0.810636 0
M  V30 5 C 0.795960 -3.653064 0.683196 0
M  V30 6 O 0.521429 -2.958763 1.692421 0
M  V30 7 N 1.257239 -2.973291 -0.500925 0
M  V30 8 C 1.384932 -1.571228 -0.492626 0 CFG=1
M  V30 9 C 2.714625 -1.025317 -0.883866 0
M  V30 10 C 2.716567 0.436998 -1.103246 0
M  V30 11 C 1.455686 1.170379 -0.762332 0 CFG=2
M  V30 12 N 1.458895 1.665742 0.609160 0
M  V30 13 C 0.407091 2.396144 1.217481 0
M  V30 14 N 0.482067 2.828004 2.510532 0
M  V30 15 C -0.571423 3.522152 3.015641 0
M  V30 16 C -1.702445 3.801917 2.272497 0
M  V30 17 C -2.778486 4.505789 2.773676 0
M  V30 18 C -3.883394 4.753764 1.977069 0
M  V30 19 C -3.864046 4.270399 0.668118 0
M  V30 20 O -4.829592 4.456980 -0.111217 0
M  V30 21 N -2.811063 3.583934 0.184156 0
M  V30 22 C -1.740573 3.341799 0.950711 0
M  V30 23 N -0.683250 2.655163 0.471570 0
M  V30 24 C 0.191775 0.428375 -1.087011 0
M  V30 25 C 0.418579 -0.999199 -1.519254 0
M  V30 26 H 1.093693 -7.554398 2.083198 0
M  V30 27 H 1.130508 -6.665508 3.700875 0
M  V30 28 H 2.181937 -6.152790 2.284675 0
M  V30 29 H -0.015110 -4.808407 2.776951 0
M  V30 30 H -1.380273 -7.119029 2.553540 0
M  V30 31 H -1.019083 -6.907973 0.800326 0
M  V30 32 H -1.942433 -5.620883 1.655389 0
M  V30 33 H 0.848936 -5.633862 -0.023288 0
M  V30 34 H 1.476003 -3.588684 -1.322545 0
M  V30 35 H 1.084362 -1.181769 0.504712 0
M  V30 36 H 3.460032 -1.350249 -0.120527 0
M  V30 37 H 3.007318 -1.551735 -1.824609 0
M  V30 38 H 3.061055 0.686324 -2.133743 0
M  V30 39 H 3.523726 0.881013 -0.462040 0
M  V30 40 H 1.434894 2.085909 -1.396282 0
M  V30 41 H 2.323412 1.458084 1.192685 0
M  V30 42 H -0.511302 3.869142 4.054605 0
M  V30 43 H -2.749714 4.867531 3.811413 0
M  V30 44 H -4.740287 5.295986 2.325435 0
M  V30 45 H -2.828171 3.229392 -0.817675 0
M  V30 46 H -0.517117 0.380671 -0.233286 0
M  V30 47 H -0.398897 0.888308 -1.927442 0
M  V30 48 H -0.537761 -1.544579 -1.455579 0
M  V30 49 H 0.828048 -1.062705 -2.557441 0
M  V30 END ATOM
M  V30 BEGIN BOND
M  V30 1 1 1 2
M  V30 2 1 2 3
M  V30 3 1 2 4
M  V30 4 1 4 5
M  V30 5 2 5 6
M  V30 6 1 5 7
M  V30 7 1 7 8
M  V30 8 1 8 9
M  V30 9 1 9 10
M  V30 10 1 10 11
M  V30 11 1 11 12
M  V30 12 1 12 13
M  V30 13 2 13 14
M  V30 14 1 14 15
M  V30 15 2 15 16
M  V30 16 1 16 17
M  V30 17 2 17 18
M  V30 18 1 18 19
M  V30 19 2 19 20
M  V30 20 1 19 21
M  V30 21 1 21 22
M  V30 22 2 22 23
M  V30 23 1 11 24
M  V30 24 1 24 25
M  V30 25 1 25 8
M  V30 26 1 23 13
M  V30 27 1 22 16
M  V30 28 1 1 26
M  V30 29 1 1 27
M  V30 30 1 1 28
M  V30 31 1 2 29
M  V30 32 1 3 30
M  V30 33 1 3 31
M  V30 34 1 3 32
M  V30 35 1 4 33
M  V30 36 1 7 34
M  V30 37 1 8 35 CFG=1
M  V30 38 1 9 36
M  V30 39 1 9 37
M  V30 40 1 10 38
M  V30 41 1 10 39
M  V30 42 1 11 40 CFG=3
M  V30 43 1 12 41
M  V30 44 1 15 42
M  V30 45 1 17 43
M  V30 46 1 18 44
M  V30 47 1 21 45
M  V30 48 1 24 46
M  V30 49 1 24 47
M  V30 50 1 25 48
M  V30 51 1 25 49
M  V30 END BOND
M  V30 END CTAB
M  END
>  <Dataset>  (298) 
ChEMBL_Kinases

>  <Ligand_Instance>  (298) 
nan

>  <PDB_ID>  (298) 
nan

>  <Standardized_SMILES>  (298) 
CC(C)NC(=O)N[C@H]1CC[C@H](Nc2ncc3ccc(=O)[nH]c3n2)CC1

>  <Name>  (298) 
nan

>  <Pocket>  (298) 
nan

>  <ATP_Site>  (298) 
nan

>  <Peripheral>  (298) 
nan

>  <Num_H_Atoms_ProtBoundConf>  (298) 
nan

>  <Num_Resolved_Atoms>  (298) 
nan

>  <Num_Not_Resolved_Atoms>  (298) 
nan

$$$$
CHEMBL3577873
     RDKit          3D

  0  0  0  0  0  0  0  0  0  0999 V3000
M  V30 BEGIN CTAB
M  V30 COUNTS 52 54 0 0 0
M  V30 BEGIN ATOM
M  V30 1 C 0.882148 -5.771571 1.697733 0
M  V30 2 C -0.298340 -5.678134 0.763974 0
M  V30 3 N -0.352919 -4.436594 0.047992 0
M  V30 4 C 0.719050 -4.079252 -0.795250 0
M  V30 5 O 1.761043 -4.748873 -1.002237 0
M  V30 6 N 0.776505 -2.878717 -1.552193 0
M  V30 7 C 1.948409 -2.650001 -2.376660 0
M  V30 8 C 2.651175 -1.344047 -2.035919 0
M  V30 9 C 1.716630 -0.604862 -1.088945 0
M  V30 10 N 2.231485 0.665137 -0.692532 0
M  V30 11 C 1.632727 1.603324 0.198570 0
M  V30 12 N 2.236555 2.793258 0.491269 0
M  V30 13 C 1.661885 3.667376 1.334852 0
M  V30 14 C 0.448263 3.373430 1.919633 0
M  V30 15 C -0.146659 4.264574 2.785234 0
M  V30 16 C -1.377128 3.902509 3.342313 0
M  V30 17 C -1.921799 2.680729 2.995269 0
M  V30 18 O -3.027558 2.468064 3.558940 0
M  V30 19 N -1.366349 1.806839 2.163673 0
M  V30 20 C -2.014748 0.565319 1.869246 0
M  V30 21 C -3.425118 0.866616 1.403034 0
M  V30 22 C -2.057167 -0.397909 3.039397 0
M  V30 23 C -0.176501 2.176952 1.636182 0
M  V30 24 N 0.450105 1.345556 0.784438 0
M  V30 25 C 0.323765 -0.537112 -1.709012 0
M  V30 26 C -0.287288 -1.908657 -1.513653 0
M  V30 27 H 1.220492 -6.829020 1.846328 0
M  V30 28 H 1.714800 -5.168516 1.296634 0
M  V30 29 H 0.644102 -5.356334 2.702061 0
M  V30 30 H -1.216403 -5.920053 1.310310 0
M  V30 31 H -0.158458 -6.502511 0.021942 0
M  V30 32 H -1.166030 -3.798963 0.140169 0
M  V30 33 H 2.633864 -3.504774 -2.357021 0
M  V30 34 H 1.569486 -2.518866 -3.423804 0
M  V30 35 H 2.905651 -0.755793 -2.934943 0
M  V30 36 H 3.560990 -1.581451 -1.439399 0
M  V30 37 H 1.621289 -1.244867 -0.185364 0
M  V30 38 H 3.169169 0.943700 -1.109689 0
M  V30 39 H 2.149292 4.606553 1.559192 0
M  V30 40 H 0.295159 5.214654 3.043809 0
M  V30 41 H -1.836150 4.609779 4.021145 0
M  V30 42 H -1.534006 0.011701 1.039514 0
M  V30 43 H -3.762930 0.083897 0.693505 0
M  V30 44 H -3.453710 1.884280 1.003160 0
M  V30 45 H -4.142284 0.854634 2.272480 0
M  V30 46 H -1.188521 -0.281121 3.716104 0
M  V30 47 H -2.078869 -1.453203 2.672765 0
M  V30 48 H -3.013965 -0.242321 3.583417 0
M  V30 49 H 0.490191 -0.325358 -2.794197 0
M  V30 50 H -0.221385 0.264170 -1.210845 0
M  V30 51 H -0.741023 -1.909450 -0.497854 0
M  V30 52 H -1.084581 -2.121262 -2.251080 0
M  V30 END ATOM
M  V30 BEGIN BOND
M  V30 1 1 1 2
M  V30 2 1 2 3
M  V30 3 1 3 4
M  V30 4 2 4 5
M  V30 5 1 4 6
M  V30 6 1 6 7
M  V30 7 1 7 8
M  V30 8 1 8 9
M  V30 9 1 9 10
M  V30 10 1 10 11
M  V30 11 2 11 12
M  V30 12 1 12 13
M  V30 13 2 13 14
M  V30 14 1 14 15
M  V30 15 2 15 16
M  V30 16 1 16 17
M  V30 17 2 17 18
M  V30 18 1 17 19
M  V30 19 1 19 20
M  V30 20 1 20 21
M  V30 21 1 20 22
M  V30 22 1 19 23
M  V30 23 2 23 24
M  V30 24 1 9 25
M  V30 25 1 25 26
M  V30 26 1 26 6
M  V30 27 1 24 11
M  V30 28 1 23 14
M  V30 29 1 1 27
M  V30 30 1 1 28
M  V30 31 1 1 29
M  V30 32 1 2 30
M  V30 33 1 2 31
M  V30 34 1 3 32
M  V30 35 1 7 33
M  V30 36 1 7 34
M  V30 37 1 8 35
M  V30 38 1 8 36
M  V30 39 1 9 37
M  V30 40 1 10 38
M  V30 41 1 13 39
M  V30 42 1 15 40
M  V30 43 1 16 41
M  V30 44 1 20 42
M  V30 45 1 21 43
M  V30 46 1 21 44
M  V30 47 1 21 45
M  V30 48 1 22 46
M  V30 49 1 22 47
M  V30 50 1 22 48
M  V30 51 1 25 49
M  V30 52 1 25 50
M  V30 53 1 26 51
M  V30 54 1 26 52
M  V30 END BOND
M  V30 END CTAB
M  END
>  <Dataset>  (299) 
ChEMBL_Kinases

>  <Ligand_Instance>  (299) 
nan

>  <PDB_ID>  (299) 
nan

>  <Standardized_SMILES>  (299) 
CCNC(=O)N1CCC(Nc2ncc3ccc(=O)n(C(C)C)c3n2)CC1

>  <Name>  (299) 
nan

>  <Pocket>  (299) 
nan

>  <ATP_Site>  (299) 
nan

>  <Peripheral>  (299) 
nan

>  <Num_H_Atoms_ProtBoundConf>  (299) 
nan

>  <Num_Resolved_Atoms>  (299) 
nan

>  <Num_Not_Resolved_Atoms>  (299) 
nan

$$$$
CHEMBL3577872
     RDKit          3D

  0  0  0  0  0  0  0  0  0  0999 V3000
M  V30 BEGIN CTAB
M  V30 COUNTS 53 55 0 0 0
M  V30 BEGIN ATOM
M  V30 1 C 0.461025 -6.355730 0.571120 0
M  V30 2 C -0.401821 -5.316698 -0.116697 0
M  V30 3 C -1.544035 -4.961011 0.792164 0
M  V30 4 C 0.381534 -4.163460 -0.583816 0
M  V30 5 O 1.308156 -4.843664 -0.075307 0
M  V30 6 N 1.126904 -3.051008 -1.036139 0
M  V30 7 C 2.563306 -2.967910 -0.838197 0
M  V30 8 C 2.956983 -1.580810 -0.400306 0
M  V30 9 C 1.818113 -0.740653 0.091813 0
M  V30 10 N 2.304269 0.648252 0.121892 0
M  V30 11 C 1.490379 1.736748 0.562414 0
M  V30 12 N 1.963444 3.017370 0.575301 0
M  V30 13 C 1.199455 4.039181 0.992687 0
M  V30 14 C -0.089604 3.844544 1.424871 0
M  V30 15 C -0.779607 4.967834 1.831027 0
M  V30 16 C -2.074406 4.761828 2.264541 0
M  V30 17 C -2.553223 3.468451 2.251934 0
M  V30 18 O -3.733804 3.230230 2.640110 0
M  V30 19 N -1.836996 2.379691 1.841280 0
M  V30 20 C -2.406072 1.049349 1.856223 0
M  V30 21 C -2.801227 0.572622 0.463095 0
M  V30 22 C -1.545676 0.027898 2.527947 0
M  V30 23 C -0.571700 2.545825 1.412600 0
M  V30 24 N 0.225575 1.540645 0.985627 0
M  V30 25 C 0.643051 -0.723733 -0.852911 0
M  V30 26 C 0.516733 -1.928250 -1.720116 0
M  V30 27 H -0.205593 -7.189401 0.885178 0
M  V30 28 H 1.253258 -6.767057 -0.070020 0
M  V30 29 H 0.897662 -5.916994 1.490094 0
M  V30 30 H -0.845284 -5.823708 -1.012448 0
M  V30 31 H -2.542927 -5.206563 0.335365 0
M  V30 32 H -1.481646 -3.882989 1.053495 0
M  V30 33 H -1.511521 -5.561287 1.724118 0
M  V30 34 H 3.036184 -3.153179 -1.824534 0
M  V30 35 H 2.923399 -3.751425 -0.148923 0
M  V30 36 H 3.666328 -1.687796 0.452140 0
M  V30 37 H 3.524967 -1.018540 -1.185548 0
M  V30 38 H 1.560982 -1.006885 1.132695 0
M  V30 39 H 3.290317 0.903806 -0.185610 0
M  V30 40 H 1.667652 5.023377 0.965232 0
M  V30 41 H -0.341461 5.942780 1.812875 0
M  V30 42 H -2.702396 5.574178 2.604302 0
M  V30 43 H -3.392114 1.131758 2.402964 0
M  V30 44 H -2.612870 -0.498384 0.309956 0
M  V30 45 H -3.861785 0.763863 0.226158 0
M  V30 46 H -2.195903 1.126457 -0.299470 0
M  V30 47 H -2.088129 -0.378544 3.418862 0
M  V30 48 H -1.355953 -0.878922 1.889612 0
M  V30 49 H -0.589083 0.456576 2.933110 0
M  V30 50 H 0.658646 0.169881 -1.543910 0
M  V30 51 H -0.279013 -0.658761 -0.240426 0
M  V30 52 H -0.565064 -2.118295 -1.943017 0
M  V30 53 H 1.056660 -1.805471 -2.697805 0
M  V30 END ATOM
M  V30 BEGIN BOND
M  V30 1 1 1 2
M  V30 2 1 2 3
M  V30 3 1 2 4
M  V30 4 2 4 5
M  V30 5 1 4 6
M  V30 6 1 6 7
M  V30 7 1 7 8
M  V30 8 1 8 9
M  V30 9 1 9 10
M  V30 10 1 10 11
M  V30 11 2 11 12
M  V30 12 1 12 13
M  V30 13 2 13 14
M  V30 14 1 14 15
M  V30 15 2 15 16
M  V30 16 1 16 17
M  V30 17 2 17 18
M  V30 18 1 17 19
M  V30 19 1 19 20
M  V30 20 1 20 21
M  V30 21 1 20 22
M  V30 22 1 19 23
M  V30 23 2 23 24
M  V30 24 1 9 25
M  V30 25 1 25 26
M  V30 26 1 26 6
M  V30 27 1 24 11
M  V30 28 1 23 14
M  V30 29 1 1 27
M  V30 30 1 1 28
M  V30 31 1 1 29
M  V30 32 1 2 30
M  V30 33 1 3 31
M  V30 34 1 3 32
M  V30 35 1 3 33
M  V30 36 1 7 34
M  V30 37 1 7 35
M  V30 38 1 8 36
M  V30 39 1 8 37
M  V30 40 1 9 38
M  V30 41 1 10 39
M  V30 42 1 13 40
M  V30 43 1 15 41
M  V30 44 1 16 42
M  V30 45 1 20 43
M  V30 46 1 21 44
M  V30 47 1 21 45
M  V30 48 1 21 46
M  V30 49 1 22 47
M  V30 50 1 22 48
M  V30 51 1 22 49
M  V30 52 1 25 50
M  V30 53 1 25 51
M  V30 54 1 26 52
M  V30 55 1 26 53
M  V30 END BOND
M  V30 END CTAB
M  END
>  <Dataset>  (300) 
ChEMBL_Kinases

>  <Ligand_Instance>  (300) 
nan

>  <PDB_ID>  (300) 
nan

>  <Standardized_SMILES>  (300) 
CC(C)C(=O)N1CCC(Nc2ncc3ccc(=O)n(C(C)C)c3n2)CC1

>  <Name>  (300) 
nan

>  <Pocket>  (300) 
nan

>  <ATP_Site>  (300) 
nan

>  <Peripheral>  (300) 
nan

>  <Num_H_Atoms_ProtBoundConf>  (300) 
nan

>  <Num_Resolved_Atoms>  (300) 
nan

>  <Num_Not_Resolved_Atoms>  (300) 
nan

$$$$
CHEMBL3577871
     RDKit          3D

  0  0  0  0  0  0  0  0  0  0999 V3000
M  V30 BEGIN CTAB
M  V30 COUNTS 55 57 0 0 0
M  V30 BEGIN ATOM
M  V30 1 C 3.134613 -2.498195 5.411259 0
M  V30 2 C 3.583061 -3.044675 4.082451 0
M  V30 3 N 2.881061 -2.443645 2.964420 0
M  V30 4 C 3.120884 -2.788895 1.589633 0
M  V30 5 O 3.999267 -3.666020 1.432017 0
M  V30 6 N 2.419021 -2.183405 0.514206 0
M  V30 7 C 2.689693 -2.558316 -0.861716 0 CFG=1
M  V30 8 C 1.391109 -3.042862 -1.461282 0
M  V30 9 C 0.373703 -1.939339 -1.351855 0
M  V30 10 C 0.810013 -0.641612 -1.968297 0 CFG=1
M  V30 11 N 0.978849 0.441256 -1.046345 0
M  V30 12 C -0.026231 1.034120 -0.200907 0
M  V30 13 N 0.346934 2.061623 0.615063 0
M  V30 14 C -0.493631 2.684075 1.429465 0
M  V30 15 C -1.796558 2.280623 1.456021 0
M  V30 16 C -2.630259 2.974092 2.330467 0
M  V30 17 C -3.966705 2.564723 2.359652 0
M  V30 18 C -4.326150 1.518084 1.522293 0
M  V30 19 O -5.555366 1.231851 1.630595 0
M  V30 20 N -3.449992 0.906651 0.709163 0
M  V30 21 C -4.044708 -0.135893 -0.055079 0
M  V30 22 C -5.309940 0.425609 -0.719276 0
M  V30 23 C -3.198969 -0.731957 -1.128281 0
M  V30 24 C -2.165665 1.246961 0.633311 0
M  V30 25 N -1.309185 0.633764 -0.177347 0
M  V30 26 C 2.133751 -0.916994 -2.670027 0
M  V30 27 C 3.146118 -1.378776 -1.667855 0
M  V30 28 H 3.162287 -3.283508 6.194690 0
M  V30 29 H 3.715016 -1.603320 5.687123 0
M  V30 30 H 2.036303 -2.260726 5.297097 0
M  V30 31 H 3.463650 -4.143424 3.986217 0
M  V30 32 H 4.670928 -2.789621 3.960440 0
M  V30 33 H 2.147786 -1.706892 3.165494 0
M  V30 34 H 1.728391 -1.479260 0.829005 0
M  V30 35 H 3.478287 -3.341192 -0.901052 0
M  V30 36 H 1.020982 -3.867388 -0.804379 0
M  V30 37 H 1.516638 -3.404279 -2.499708 0
M  V30 38 H 0.069022 -1.851439 -0.289806 0
M  V30 39 H -0.537671 -2.270129 -1.904970 0
M  V30 40 H 0.084375 -0.294739 -2.753905 0
M  V30 41 H 1.952328 0.864265 -0.969283 0
M  V30 42 H -0.035738 3.476325 2.007461 0
M  V30 43 H -2.271028 3.768687 2.940458 0
M  V30 44 H -4.637762 3.085511 3.030183 0
M  V30 45 H -4.341729 -0.940596 0.681924 0
M  V30 46 H -6.194938 -0.041201 -0.234029 0
M  V30 47 H -5.352902 0.154022 -1.807465 0
M  V30 48 H -5.341116 1.531501 -0.685816 0
M  V30 49 H -2.403210 -1.404469 -0.730658 0
M  V30 50 H -2.852650 0.000009 -1.856242 0
M  V30 51 H -3.862081 -1.431543 -1.717712 0
M  V30 52 H 1.977929 -1.604817 -3.509193 0
M  V30 53 H 2.523002 0.037223 -3.095284 0
M  V30 54 H 4.061310 -1.647186 -2.260676 0
M  V30 55 H 3.432953 -0.525595 -1.024418 0
M  V30 END ATOM
M  V30 BEGIN BOND
M  V30 1 1 1 2
M  V30 2 1 2 3
M  V30 3 1 3 4
M  V30 4 2 4 5
M  V30 5 1 4 6
M  V30 6 1 6 7
M  V30 7 1 7 8
M  V30 8 1 8 9
M  V30 9 1 9 10
M  V30 10 1 10 11
M  V30 11 1 11 12
M  V30 12 2 12 13
M  V30 13 1 13 14
M  V30 14 2 14 15
M  V30 15 1 15 16
M  V30 16 2 16 17
M  V30 17 1 17 18
M  V30 18 2 18 19
M  V30 19 1 18 20
M  V30 20 1 20 21
M  V30 21 1 21 22
M  V30 22 1 21 23
M  V30 23 1 20 24
M  V30 24 2 24 25
M  V30 25 1 10 26
M  V30 26 1 26 27
M  V30 27 1 27 7
M  V30 28 1 25 12
M  V30 29 1 24 15
M  V30 30 1 1 28
M  V30 31 1 1 29
M  V30 32 1 1 30
M  V30 33 1 2 31
M  V30 34 1 2 32
M  V30 35 1 3 33
M  V30 36 1 6 34
M  V30 37 1 7 35 CFG=1
M  V30 38 1 8 36
M  V30 39 1 8 37
M  V30 40 1 9 38
M  V30 41 1 9 39
M  V30 42 1 10 40 CFG=3
M  V30 43 1 11 41
M  V30 44 1 14 42
M  V30 45 1 16 43
M  V30 46 1 17 44
M  V30 47 1 21 45
M  V30 48 1 22 46
M  V30 49 1 22 47
M  V30 50 1 22 48
M  V30 51 1 23 49
M  V30 52 1 23 50
M  V30 53 1 23 51
M  V30 54 1 26 52
M  V30 55 1 26 53
M  V30 56 1 27 54
M  V30 57 1 27 55
M  V30 END BOND
M  V30 END CTAB
M  END
>  <Dataset>  (301) 
ChEMBL_Kinases

>  <Ligand_Instance>  (301) 
nan

>  <PDB_ID>  (301) 
nan

>  <Standardized_SMILES>  (301) 
CCNC(=O)N[C@H]1CC[C@@H](Nc2ncc3ccc(=O)n(C(C)C)c3n2)CC1

>  <Name>  (301) 
nan

>  <Pocket>  (301) 
nan

>  <ATP_Site>  (301) 
nan

>  <Peripheral>  (301) 
nan

>  <Num_H_Atoms_ProtBoundConf>  (301) 
nan

>  <Num_Resolved_Atoms>  (301) 
nan

>  <Num_Not_Resolved_Atoms>  (301) 
nan

$$$$
CHEMBL3577870
     RDKit          3D

  0  0  0  0  0  0  0  0  0  0999 V3000
M  V30 BEGIN CTAB
M  V30 COUNTS 56 58 0 0 0
M  V30 BEGIN ATOM
M  V30 1 C 4.162589 -3.204000 5.157192 0
M  V30 2 C 3.300967 -2.430188 4.221640 0
M  V30 3 C 3.449424 -0.951191 4.543529 0
M  V30 4 C 3.665916 -2.626445 2.793477 0
M  V30 5 O 4.500495 -3.258822 2.095187 0
M  V30 6 N 2.793190 -1.855446 1.987148 0
M  V30 7 C 2.836393 -1.786316 0.525027 0 CFG=1
M  V30 8 C 1.603278 -2.386128 -0.090361 0
M  V30 9 C 0.581826 -1.405613 -0.537227 0
M  V30 10 C 1.115221 -0.184094 -1.216134 0 CFG=1
M  V30 11 N 0.788726 1.044350 -0.560660 0
M  V30 12 C -0.560334 1.425725 -0.369561 0
M  V30 13 N -0.918259 2.587608 0.249430 0
M  V30 14 C -2.214542 2.909631 0.409227 0
M  V30 15 C -3.236414 2.098348 -0.035476 0
M  V30 16 C -4.548480 2.474019 0.152992 0
M  V30 17 C -5.507955 1.596177 -0.326718 0
M  V30 18 C -5.125937 0.419780 -0.953261 0
M  V30 19 O -6.083423 -0.301973 -1.349364 0
M  V30 20 N -3.826397 0.108784 -1.107183 0
M  V30 21 C -3.513249 -1.137323 -1.771446 0
M  V30 22 C -4.311156 -2.308636 -1.298622 0
M  V30 23 C -3.779676 -1.001199 -3.271310 0
M  V30 24 C -2.858519 0.927445 -0.659111 0
M  V30 25 N -1.555722 0.623595 -0.809084 0
M  V30 26 C 2.626381 -0.252617 -1.346811 0
M  V30 27 C 3.158885 -0.405106 0.057879 0
M  V30 28 H 4.645026 -4.090425 4.732216 0
M  V30 29 H 4.905774 -2.559939 5.694618 0
M  V30 30 H 3.505255 -3.588958 5.989557 0
M  V30 31 H 2.226351 -2.671238 4.376363 0
M  V30 32 H 2.614189 -0.573982 5.170696 0
M  V30 33 H 3.487768 -0.345605 3.607908 0
M  V30 34 H 4.376448 -0.795752 5.103457 0
M  V30 35 H 1.994848 -1.218509 2.207721 0
M  V30 36 H 3.674745 -2.446120 0.214338 0
M  V30 37 H 1.138730 -3.023460 0.702688 0
M  V30 38 H 1.833457 -3.099567 -0.924075 0
M  V30 39 H -0.079815 -1.114786 0.301989 0
M  V30 40 H -0.076316 -1.930115 -1.272769 0
M  V30 41 H 0.746770 -0.079513 -2.273367 0
M  V30 42 H 1.521212 1.713860 -0.194451 0
M  V30 43 H -2.462604 3.830861 0.900348 0
M  V30 44 H -4.823675 3.399390 0.645997 0
M  V30 45 H -6.542747 1.878103 -0.185903 0
M  V30 46 H -2.433393 -1.396236 -1.681462 0
M  V30 47 H -5.271148 -2.440109 -1.866711 0
M  V30 48 H -3.731894 -3.239550 -1.566639 0
M  V30 49 H -4.462967 -2.359748 -0.203274 0
M  V30 50 H -4.860853 -0.723214 -3.368589 0
M  V30 51 H -3.112651 -0.263698 -3.731346 0
M  V30 52 H -3.597627 -2.007900 -3.716387 0
M  V30 53 H 2.841971 -1.150509 -1.932609 0
M  V30 54 H 2.999398 0.660974 -1.844409 0
M  V30 55 H 2.766510 0.386932 0.727421 0
M  V30 56 H 4.257518 -0.277414 0.019120 0
M  V30 END ATOM
M  V30 BEGIN BOND
M  V30 1 1 1 2
M  V30 2 1 2 3
M  V30 3 1 2 4
M  V30 4 2 4 5
M  V30 5 1 4 6
M  V30 6 1 6 7
M  V30 7 1 7 8
M  V30 8 1 8 9
M  V30 9 1 9 10
M  V30 10 1 10 11
M  V30 11 1 11 12
M  V30 12 2 12 13
M  V30 13 1 13 14
M  V30 14 2 14 15
M  V30 15 1 15 16
M  V30 16 2 16 17
M  V30 17 1 17 18
M  V30 18 2 18 19
M  V30 19 1 18 20
M  V30 20 1 20 21
M  V30 21 1 21 22
M  V30 22 1 21 23
M  V30 23 1 20 24
M  V30 24 2 24 25
M  V30 25 1 10 26
M  V30 26 1 26 27
M  V30 27 1 27 7
M  V30 28 1 25 12
M  V30 29 1 24 15
M  V30 30 1 1 28
M  V30 31 1 1 29
M  V30 32 1 1 30
M  V30 33 1 2 31
M  V30 34 1 3 32
M  V30 35 1 3 33
M  V30 36 1 3 34
M  V30 37 1 6 35
M  V30 38 1 7 36 CFG=3
M  V30 39 1 8 37
M  V30 40 1 8 38
M  V30 41 1 9 39
M  V30 42 1 9 40
M  V30 43 1 10 41 CFG=3
M  V30 44 1 11 42
M  V30 45 1 14 43
M  V30 46 1 16 44
M  V30 47 1 17 45
M  V30 48 1 21 46
M  V30 49 1 22 47
M  V30 50 1 22 48
M  V30 51 1 22 49
M  V30 52 1 23 50
M  V30 53 1 23 51
M  V30 54 1 23 52
M  V30 55 1 26 53
M  V30 56 1 26 54
M  V30 57 1 27 55
M  V30 58 1 27 56
M  V30 END BOND
M  V30 END CTAB
M  END
>  <Dataset>  (302) 
ChEMBL_Kinases

>  <Ligand_Instance>  (302) 
nan

>  <PDB_ID>  (302) 
nan

>  <Standardized_SMILES>  (302) 
CC(C)C(=O)N[C@H]1CC[C@@H](Nc2ncc3ccc(=O)n(C(C)C)c3n2)CC1

>  <Name>  (302) 
nan

>  <Pocket>  (302) 
nan

>  <ATP_Site>  (302) 
nan

>  <Peripheral>  (302) 
nan

>  <Num_H_Atoms_ProtBoundConf>  (302) 
nan

>  <Num_Resolved_Atoms>  (302) 
nan

>  <Num_Not_Resolved_Atoms>  (302) 
nan

$$$$
CHEMBL3577869
     RDKit          3D

  0  0  0  0  0  0  0  0  0  0999 V3000
M  V30 BEGIN CTAB
M  V30 COUNTS 62 65 0 0 0
M  V30 BEGIN ATOM
M  V30 1 C 2.730351 -1.036979 3.149123 0
M  V30 2 C 3.516468 0.225544 3.521579 0
M  V30 3 C 4.601568 -0.225149 4.456478 0
M  V30 4 N 3.970249 0.905486 2.352150 0
M  V30 5 C 5.264337 0.978114 2.018085 0
M  V30 6 O 6.158819 0.458152 2.705004 0
M  V30 7 C 5.708540 1.634505 0.885963 0
M  V30 8 C 4.783529 2.248120 0.052360 0
M  V30 9 C 3.464058 2.144515 0.440613 0
M  V30 10 C 2.550248 2.754364 -0.389116 0
M  V30 11 N 1.252975 2.693258 -0.072983 0
M  V30 12 C 0.814688 2.046191 1.043733 0
M  V30 13 N -0.585036 2.012010 1.327526 0
M  V30 14 C -1.185535 1.360339 2.474242 0 CFG=1
M  V30 15 C -2.678660 1.483035 2.489904 0
M  V30 16 C -3.391244 0.567221 1.545009 0
M  V30 17 C -2.498452 -0.544264 1.042628 0 CFG=2
M  V30 18 N -3.187303 -1.589725 0.370363 0
M  V30 19 C -2.686569 -1.922836 -0.941170 0
M  V30 20 O -1.703089 -1.325732 -1.460573 0
M  V30 21 N -3.270537 -2.961900 -1.756850 0
M  V30 22 C -2.766036 -3.292954 -3.059882 0
M  V30 23 C -3.830018 -3.126288 -4.091508 0
M  V30 24 C -4.298219 -4.529224 -4.372368 0
M  V30 25 C -3.039815 -5.356285 -4.277891 0
M  V30 26 C -2.286476 -4.714835 -3.156968 0
M  V30 27 C -1.808175 -1.067918 2.310583 0
M  V30 28 C -0.691623 -0.058127 2.553440 0
M  V30 29 N 1.698378 1.447239 1.860354 0
M  V30 30 C 3.023792 1.477248 1.589505 0
M  V30 31 H 2.007637 -1.182386 3.954666 0
M  V30 32 H 2.315142 -0.919905 2.136693 0
M  V30 33 H 3.399726 -1.930711 3.167546 0
M  V30 34 H 2.878389 0.926299 4.095964 0
M  V30 35 H 5.242038 0.571328 4.847893 0
M  V30 36 H 5.155571 -1.129210 4.088818 0
M  V30 37 H 4.057834 -0.622861 5.365659 0
M  V30 38 H 6.748907 1.697196 0.610167 0
M  V30 39 H 5.070789 2.772184 -0.840542 0
M  V30 40 H 2.752174 3.297765 -1.298835 0
M  V30 41 H -1.245976 2.486405 0.673535 0
M  V30 42 H -0.797118 1.876422 3.376217 0
M  V30 43 H -3.087910 1.334904 3.510306 0
M  V30 44 H -2.924108 2.526013 2.207880 0
M  V30 45 H -4.257362 0.073102 2.033432 0
M  V30 46 H -3.799324 1.098122 0.659669 0
M  V30 47 H -1.720816 -0.145558 0.397302 0
M  V30 48 H -4.005864 -2.123749 0.737898 0
M  V30 49 H -4.099265 -3.475597 -1.346893 0
M  V30 50 H -1.895918 -2.597457 -3.247226 0
M  V30 51 H -4.664349 -2.477229 -3.749936 0
M  V30 52 H -3.398181 -2.755083 -5.063986 0
M  V30 53 H -4.775439 -4.612518 -5.372795 0
M  V30 54 H -5.038792 -4.802231 -3.577887 0
M  V30 55 H -2.505108 -5.329305 -5.241739 0
M  V30 56 H -3.280653 -6.418417 -3.980352 0
M  V30 57 H -2.374855 -5.283712 -2.209121 0
M  V30 58 H -1.200399 -4.726042 -3.424843 0
M  V30 59 H -2.514152 -1.033211 3.164908 0
M  V30 60 H -1.338311 -2.055023 2.154051 0
M  V30 61 H 0.040256 -0.247422 1.740693 0
M  V30 62 H -0.176959 -0.297477 3.505230 0
M  V30 END ATOM
M  V30 BEGIN BOND
M  V30 1 1 1 2
M  V30 2 1 2 3
M  V30 3 1 2 4
M  V30 4 1 4 5
M  V30 5 2 5 6
M  V30 6 1 5 7
M  V30 7 2 7 8
M  V30 8 1 8 9
M  V30 9 2 9 10
M  V30 10 1 10 11
M  V30 11 2 11 12
M  V30 12 1 12 13
M  V30 13 1 13 14
M  V30 14 1 14 15
M  V30 15 1 15 16
M  V30 16 1 16 17
M  V30 17 1 17 18
M  V30 18 1 18 19
M  V30 19 2 19 20
M  V30 20 1 19 21
M  V30 21 1 21 22
M  V30 22 1 22 23
M  V30 23 1 23 24
M  V30 24 1 24 25
M  V30 25 1 25 26
M  V30 26 1 17 27
M  V30 27 1 27 28
M  V30 28 1 12 29
M  V30 29 2 29 30
M  V30 30 1 30 4
M  V30 31 1 30 9
M  V30 32 1 28 14
M  V30 33 1 26 22
M  V30 34 1 1 31
M  V30 35 1 1 32
M  V30 36 1 1 33
M  V30 37 1 2 34
M  V30 38 1 3 35
M  V30 39 1 3 36
M  V30 40 1 3 37
M  V30 41 1 7 38
M  V30 42 1 8 39
M  V30 43 1 10 40
M  V30 44 1 13 41
M  V30 45 1 14 42 CFG=1
M  V30 46 1 15 43
M  V30 47 1 15 44
M  V30 48 1 16 45
M  V30 49 1 16 46
M  V30 50 1 17 47 CFG=3
M  V30 51 1 18 48
M  V30 52 1 21 49
M  V30 53 1 22 50
M  V30 54 1 23 51
M  V30 55 1 23 52
M  V30 56 1 24 53
M  V30 57 1 24 54
M  V30 58 1 25 55
M  V30 59 1 25 56
M  V30 60 1 26 57
M  V30 61 1 26 58
M  V30 62 1 27 59
M  V30 63 1 27 60
M  V30 64 1 28 61
M  V30 65 1 28 62
M  V30 END BOND
M  V30 END CTAB
M  END
>  <Dataset>  (303) 
ChEMBL_Kinases

>  <Ligand_Instance>  (303) 
nan

>  <PDB_ID>  (303) 
nan

>  <Standardized_SMILES>  (303) 
CC(C)n1c(=O)ccc2cnc(N[C@H]3CC[C@H](NC(=O)NC4CCCC4)CC3)nc21

>  <Name>  (303) 
nan

>  <Pocket>  (303) 
nan

>  <ATP_Site>  (303) 
nan

>  <Peripheral>  (303) 
nan

>  <Num_H_Atoms_ProtBoundConf>  (303) 
nan

>  <Num_Resolved_Atoms>  (303) 
nan

>  <Num_Not_Resolved_Atoms>  (303) 
nan

$$$$
CHEMBL3577868
     RDKit          3D

  0  0  0  0  0  0  0  0  0  0999 V3000
M  V30 BEGIN CTAB
M  V30 COUNTS 58 60 0 0 0
M  V30 BEGIN ATOM
M  V30 1 C 2.004242 -2.417665 6.936956 0
M  V30 2 C 2.657952 -1.258063 6.218281 0
M  V30 3 C 3.974801 -0.872794 6.856764 0
M  V30 4 N 2.927571 -1.576313 4.828269 0
M  V30 5 C 2.277020 -0.739849 3.861184 0
M  V30 6 O 1.524098 0.206500 4.119872 0
M  V30 7 N 2.529212 -1.036441 2.485413 0
M  V30 8 C 1.944084 -0.280520 1.410863 0 CFG=1
M  V30 9 C 2.928819 0.518267 0.597709 0
M  V30 10 C 2.128282 1.561332 -0.168421 0
M  V30 11 C 0.908125 0.967283 -0.818193 0 CFG=2
M  V30 12 N -0.322985 1.291519 -0.164138 0
M  V30 13 C -1.640388 0.914633 -0.490105 0
M  V30 14 N -2.738125 1.293360 0.219640 0
M  V30 15 C -3.948408 0.863820 -0.197888 0
M  V30 16 C -4.045079 0.063426 -1.316469 0
M  V30 17 C -5.329535 -0.316119 -1.651476 0
M  V30 18 C -5.473561 -1.128858 -2.780177 0
M  V30 19 C -4.314963 -1.473164 -3.450750 0
M  V30 20 O -4.492375 -2.197933 -4.449433 0
M  V30 21 N -3.087936 -1.100371 -3.116218 0
M  V30 22 C -1.903892 -1.472662 -3.830241 0
M  V30 23 C -1.447558 -2.886896 -3.466377 0
M  V30 24 C -2.231766 -1.482687 -5.305418 0
M  V30 25 C -2.921893 -0.311552 -2.024898 0
M  V30 26 N -1.708291 0.123073 -1.600743 0
M  V30 27 C 1.159833 -0.524205 -0.927898 0
M  V30 28 C 1.077226 -1.063220 0.492307 0
M  V30 29 H 2.127615 -2.364613 8.018643 0
M  V30 30 H 2.410134 -3.346628 6.485105 0
M  V30 31 H 0.925392 -2.384118 6.682180 0
M  V30 32 H 1.974463 -0.398401 6.269594 0
M  V30 33 H 4.694495 -0.430425 6.137369 0
M  V30 34 H 4.479541 -1.710015 7.347167 0
M  V30 35 H 3.778476 -0.059233 7.612571 0
M  V30 36 H 3.553550 -2.362150 4.560537 0
M  V30 37 H 3.156738 -1.823680 2.167076 0
M  V30 38 H 1.319179 0.502238 1.931983 0
M  V30 39 H 3.579392 1.081077 1.304802 0
M  V30 40 H 3.595406 -0.084051 -0.035098 0
M  V30 41 H 2.781911 2.016354 -0.937603 0
M  V30 42 H 1.874592 2.363309 0.575251 0
M  V30 43 H 0.832726 1.361927 -1.862291 0
M  V30 44 H -0.226246 1.908869 0.695505 0
M  V30 45 H -4.764168 1.202760 0.410989 0
M  V30 46 H -6.202690 -0.007555 -1.076290 0
M  V30 47 H -6.455957 -1.450989 -3.081571 0
M  V30 48 H -1.057514 -0.785173 -3.678181 0
M  V30 49 H -2.073002 -3.667602 -3.913422 0
M  V30 50 H -1.541890 -2.988634 -2.354199 0
M  V30 51 H -0.402299 -3.054337 -3.795936 0
M  V30 52 H -2.528413 -2.496427 -5.679391 0
M  V30 53 H -3.033009 -0.769516 -5.586003 0
M  V30 54 H -1.320451 -1.228135 -5.905731 0
M  V30 55 H 0.465457 -1.024165 -1.605946 0
M  V30 56 H 2.159158 -0.628656 -1.377293 0
M  V30 57 H 1.210179 -2.161692 0.530883 0
M  V30 58 H -0.002662 -0.912089 0.778151 0
M  V30 END ATOM
M  V30 BEGIN BOND
M  V30 1 1 1 2
M  V30 2 1 2 3
M  V30 3 1 2 4
M  V30 4 1 4 5
M  V30 5 2 5 6
M  V30 6 1 5 7
M  V30 7 1 7 8
M  V30 8 1 8 9
M  V30 9 1 9 10
M  V30 10 1 10 11
M  V30 11 1 11 12
M  V30 12 1 12 13
M  V30 13 2 13 14
M  V30 14 1 14 15
M  V30 15 2 15 16
M  V30 16 1 16 17
M  V30 17 2 17 18
M  V30 18 1 18 19
M  V30 19 2 19 20
M  V30 20 1 19 21
M  V30 21 1 21 22
M  V30 22 1 22 23
M  V30 23 1 22 24
M  V30 24 1 21 25
M  V30 25 2 25 26
M  V30 26 1 11 27
M  V30 27 1 27 28
M  V30 28 1 28 8
M  V30 29 1 26 13
M  V30 30 1 25 16
M  V30 31 1 1 29
M  V30 32 1 1 30
M  V30 33 1 1 31
M  V30 34 1 2 32
M  V30 35 1 3 33
M  V30 36 1 3 34
M  V30 37 1 3 35
M  V30 38 1 4 36
M  V30 39 1 7 37
M  V30 40 1 8 38 CFG=1
M  V30 41 1 9 39
M  V30 42 1 9 40
M  V30 43 1 10 41
M  V30 44 1 10 42
M  V30 45 1 11 43 CFG=3
M  V30 46 1 12 44
M  V30 47 1 15 45
M  V30 48 1 17 46
M  V30 49 1 18 47
M  V30 50 1 22 48
M  V30 51 1 23 49
M  V30 52 1 23 50
M  V30 53 1 23 51
M  V30 54 1 24 52
M  V30 55 1 24 53
M  V30 56 1 24 54
M  V30 57 1 27 55
M  V30 58 1 27 56
M  V30 59 1 28 57
M  V30 60 1 28 58
M  V30 END BOND
M  V30 END CTAB
M  END
>  <Dataset>  (304) 
ChEMBL_Kinases

>  <Ligand_Instance>  (304) 
nan

>  <PDB_ID>  (304) 
nan

>  <Standardized_SMILES>  (304) 
CC(C)NC(=O)N[C@H]1CC[C@H](Nc2ncc3ccc(=O)n(C(C)C)c3n2)CC1

>  <Name>  (304) 
nan

>  <Pocket>  (304) 
nan

>  <ATP_Site>  (304) 
nan

>  <Peripheral>  (304) 
nan

>  <Num_H_Atoms_ProtBoundConf>  (304) 
nan

>  <Num_Resolved_Atoms>  (304) 
nan

>  <Num_Not_Resolved_Atoms>  (304) 
nan

$$$$
CHEMBL4853326
     RDKit          3D

  0  0  0  0  0  0  0  0  0  0999 V3000
M  V30 BEGIN CTAB
M  V30 COUNTS 45 48 0 0 0
M  V30 BEGIN ATOM
M  V30 1 C -2.995154 -5.123793 2.273993 0
M  V30 2 N -2.352426 -4.375998 1.182878 0
M  V30 3 C -1.804577 -5.086833 0.106774 0
M  V30 4 O -1.750885 -6.297115 -0.122270 0
M  V30 5 C -1.201781 -4.184280 -0.894732 0
M  V30 6 C -1.055602 -2.822163 -1.013733 0
M  V30 7 C -0.419667 -2.328086 -2.119927 0
M  V30 8 N -0.219476 -0.936779 -2.334262 0
M  V30 9 N -0.580351 -0.175118 -3.353534 0
M  V30 10 C -0.173061 1.108327 -3.124457 0
M  V30 11 C 0.471926 1.141368 -1.902145 0
M  V30 12 C 1.086085 2.137724 -1.153060 0
M  V30 13 C 1.653444 1.820361 0.071065 0
M  V30 14 N 2.305141 2.782208 0.906943 0
M  V30 15 C 1.663946 2.875971 2.175821 0
M  V30 16 C 2.543063 2.554047 3.213025 0
M  V30 17 C 2.093830 2.589823 4.531703 0
M  V30 18 C 0.792929 2.938012 4.837833 0
M  V30 19 C -0.042561 3.248138 3.792115 0
M  V30 20 C 0.363993 3.224427 2.474231 0
M  V30 21 Cl -0.613158 3.598465 1.088749 0
M  V30 22 C 1.630113 0.519194 0.585701 0
M  V30 23 O 2.186897 0.190184 1.794563 0
M  V30 24 C 2.107223 -1.173819 2.228186 0
M  V30 25 C 1.002634 -0.417076 -0.214754 0
M  V30 26 C 0.421438 -0.160604 -1.439230 0
M  V30 27 C 0.060065 -3.244509 -3.094083 0
M  V30 28 S -0.397331 -4.895377 -2.438815 0
M  V30 29 H -2.433639 -4.846338 3.208603 0
M  V30 30 H -3.032902 -6.197279 2.099515 0
M  V30 31 H -4.006827 -4.668146 2.419905 0
M  V30 32 H -2.354387 -3.346480 1.297994 0
M  V30 33 H -1.459384 -2.229333 -0.213132 0
M  V30 34 H -0.317460 1.962242 -3.768379 0
M  V30 35 H 1.126937 3.137995 -1.504751 0
M  V30 36 H 3.134413 3.334253 0.619635 0
M  V30 37 H 3.588317 2.262649 3.134067 0
M  V30 38 H 2.735444 2.348641 5.378132 0
M  V30 39 H 0.441287 2.966434 5.864116 0
M  V30 40 H -1.090289 3.534443 3.954270 0
M  V30 41 H 2.567759 -1.851388 1.484842 0
M  V30 42 H 1.033335 -1.451205 2.295251 0
M  V30 43 H 2.580900 -1.351300 3.193185 0
M  V30 44 H 0.980064 -1.436570 0.180248 0
M  V30 45 H 0.558572 -3.048323 -3.981931 0
M  V30 END ATOM
M  V30 BEGIN BOND
M  V30 1 1 1 2
M  V30 2 1 2 3
M  V30 3 2 3 4
M  V30 4 1 3 5
M  V30 5 2 5 6
M  V30 6 1 6 7
M  V30 7 1 7 8
M  V30 8 1 8 9
M  V30 9 2 9 10
M  V30 10 1 10 11
M  V30 11 2 11 12
M  V30 12 1 12 13
M  V30 13 1 13 14
M  V30 14 1 14 15
M  V30 15 2 15 16
M  V30 16 1 16 17
M  V30 17 2 17 18
M  V30 18 1 18 19
M  V30 19 2 19 20
M  V30 20 1 20 21
M  V30 21 2 13 22
M  V30 22 1 22 23
M  V30 23 1 23 24
M  V30 24 1 22 25
M  V30 25 2 25 26
M  V30 26 2 7 27
M  V30 27 1 27 28
M  V30 28 1 28 5
M  V30 29 1 26 8
M  V30 30 1 26 11
M  V30 31 1 20 15
M  V30 32 1 1 29
M  V30 33 1 1 30
M  V30 34 1 1 31
M  V30 35 1 2 32
M  V30 36 1 6 33
M  V30 37 1 10 34
M  V30 38 1 12 35
M  V30 39 1 14 36
M  V30 40 1 16 37
M  V30 41 1 17 38
M  V30 42 1 18 39
M  V30 43 1 19 40
M  V30 44 1 24 41
M  V30 45 1 24 42
M  V30 46 1 24 43
M  V30 47 1 25 44
M  V30 48 1 27 45
M  V30 END BOND
M  V30 END CTAB
M  END
>  <Dataset>  (305) 
ChEMBL_Kinases

>  <Ligand_Instance>  (305) 
nan

>  <PDB_ID>  (305) 
nan

>  <Standardized_SMILES>  (305) 
CNC(=O)c1cc(-n2ncc3cc(Nc4ccccc4Cl)c(OC)cc32)cs1

>  <Name>  (305) 
nan

>  <Pocket>  (305) 
nan

>  <ATP_Site>  (305) 
nan

>  <Peripheral>  (305) 
nan

>  <Num_H_Atoms_ProtBoundConf>  (305) 
nan

>  <Num_Resolved_Atoms>  (305) 
nan

>  <Num_Not_Resolved_Atoms>  (305) 
nan

$$$$
CHEMBL3577866
     RDKit          3D

  0  0  0  0  0  0  0  0  0  0999 V3000
M  V30 BEGIN CTAB
M  V30 COUNTS 56 58 0 0 0
M  V30 BEGIN ATOM
M  V30 1 C 3.748408 -3.754585 4.835557 0
M  V30 2 C 2.643069 -2.761772 5.079470 0
M  V30 3 C 1.310537 -3.442409 5.344672 0
M  V30 4 C 2.480066 -1.943395 3.859322 0
M  V30 5 O 2.630128 -0.677172 3.857765 0
M  V30 6 N 2.141290 -2.633966 2.655435 0
M  V30 7 C 1.951128 -1.958670 1.387742 0 CFG=1
M  V30 8 C 2.925299 -2.389649 0.338802 0
M  V30 9 C 2.927658 -1.335953 -0.751826 0
M  V30 10 C 1.543294 -0.736364 -0.975742 0 CFG=2
M  V30 11 N 1.376943 0.557827 -0.430317 0
M  V30 12 C 0.203514 1.341025 -0.492660 0
M  V30 13 N 0.157156 2.576119 0.069417 0
M  V30 14 C -0.922645 3.370513 0.046423 0
M  V30 15 C -2.044734 2.897734 -0.586160 0
M  V30 16 C -3.141912 3.738418 -0.593857 0
M  V30 17 C -4.278665 3.280744 -1.224799 0
M  V30 18 C -4.231046 2.021570 -1.797731 0
M  V30 19 O -5.315542 1.678336 -2.355875 0
M  V30 20 N -3.142506 1.244806 -1.763217 0
M  V30 21 C -3.220845 -0.033027 -2.391179 0
M  V30 22 C -4.377539 -0.878654 -1.914047 0
M  V30 23 C -3.340710 0.054102 -3.902229 0
M  V30 24 C -2.007980 1.643626 -1.160679 0
M  V30 25 N -0.894574 0.874787 -1.113389 0
M  V30 26 C 0.532393 -1.776083 -0.592358 0
M  V30 27 C 0.570619 -2.238657 0.814668 0
M  V30 28 H 4.552916 -3.220326 4.260937 0
M  V30 29 H 4.132062 -4.174799 5.779682 0
M  V30 30 H 3.362494 -4.540039 4.146633 0
M  V30 31 H 2.921291 -2.098090 5.933369 0
M  V30 32 H 0.521382 -2.677915 5.088145 0
M  V30 33 H 1.238183 -3.722646 6.401997 0
M  V30 34 H 1.215989 -4.277230 4.626242 0
M  V30 35 H 2.006008 -3.665198 2.595417 0
M  V30 36 H 2.123329 -0.888610 1.599562 0
M  V30 37 H 3.958997 -2.504589 0.719300 0
M  V30 38 H 2.553998 -3.329851 -0.166081 0
M  V30 39 H 3.340856 -1.781999 -1.677625 0
M  V30 40 H 3.635097 -0.542326 -0.396048 0
M  V30 41 H 1.442242 -0.631330 -2.089415 0
M  V30 42 H 2.224974 0.953988 0.065449 0
M  V30 43 H -0.797244 4.310950 0.533274 0
M  V30 44 H -3.100236 4.709854 -0.123098 0
M  V30 45 H -5.148078 3.918460 -1.244227 0
M  V30 46 H -2.316338 -0.606805 -2.193542 0
M  V30 47 H -5.335944 -0.658651 -2.401773 0
M  V30 48 H -4.139836 -1.932218 -2.230501 0
M  V30 49 H -4.434233 -0.935816 -0.797121 0
M  V30 50 H -2.355847 0.309482 -4.313408 0
M  V30 51 H -4.126874 0.765496 -4.149554 0
M  V30 52 H -3.651123 -0.953455 -4.234287 0
M  V30 53 H -0.436120 -1.455792 -0.967724 0
M  V30 54 H 0.798925 -2.665779 -1.237656 0
M  V30 55 H -0.250072 -1.867673 1.459306 0
M  V30 56 H 0.463899 -3.362208 0.892383 0
M  V30 END ATOM
M  V30 BEGIN BOND
M  V30 1 1 1 2
M  V30 2 1 2 3
M  V30 3 1 2 4
M  V30 4 2 4 5
M  V30 5 1 4 6
M  V30 6 1 6 7
M  V30 7 1 7 8
M  V30 8 1 8 9
M  V30 9 1 9 10
M  V30 10 1 10 11
M  V30 11 1 11 12
M  V30 12 2 12 13
M  V30 13 1 13 14
M  V30 14 2 14 15
M  V30 15 1 15 16
M  V30 16 2 16 17
M  V30 17 1 17 18
M  V30 18 2 18 19
M  V30 19 1 18 20
M  V30 20 1 20 21
M  V30 21 1 21 22
M  V30 22 1 21 23
M  V30 23 1 20 24
M  V30 24 2 24 25
M  V30 25 1 10 26
M  V30 26 1 26 27
M  V30 27 1 27 7
M  V30 28 1 25 12
M  V30 29 1 24 15
M  V30 30 1 1 28
M  V30 31 1 1 29
M  V30 32 1 1 30
M  V30 33 1 2 31
M  V30 34 1 3 32
M  V30 35 1 3 33
M  V30 36 1 3 34
M  V30 37 1 6 35
M  V30 38 1 7 36 CFG=1
M  V30 39 1 8 37
M  V30 40 1 8 38
M  V30 41 1 9 39
M  V30 42 1 9 40
M  V30 43 1 10 41 CFG=3
M  V30 44 1 11 42
M  V30 45 1 14 43
M  V30 46 1 16 44
M  V30 47 1 17 45
M  V30 48 1 21 46
M  V30 49 1 22 47
M  V30 50 1 22 48
M  V30 51 1 22 49
M  V30 52 1 23 50
M  V30 53 1 23 51
M  V30 54 1 23 52
M  V30 55 1 26 53
M  V30 56 1 26 54
M  V30 57 1 27 55
M  V30 58 1 27 56
M  V30 END BOND
M  V30 END CTAB
M  END
>  <Dataset>  (306) 
ChEMBL_Kinases

>  <Ligand_Instance>  (306) 
nan

>  <PDB_ID>  (306) 
nan

>  <Standardized_SMILES>  (306) 
CC(C)C(=O)N[C@H]1CC[C@H](Nc2ncc3ccc(=O)n(C(C)C)c3n2)CC1

>  <Name>  (306) 
nan

>  <Pocket>  (306) 
nan

>  <ATP_Site>  (306) 
nan

>  <Peripheral>  (306) 
nan

>  <Num_H_Atoms_ProtBoundConf>  (306) 
nan

>  <Num_Resolved_Atoms>  (306) 
nan

>  <Num_Not_Resolved_Atoms>  (306) 
nan

$$$$
CHEMBL3577862
     RDKit          3D

  0  0  0  0  0  0  0  0  0  0999 V3000
M  V30 BEGIN CTAB
M  V30 COUNTS 41 43 0 0 0
M  V30 BEGIN ATOM
M  V30 1 C 2.375050 -1.830842 2.289627 0
M  V30 2 C 1.198259 -2.195244 1.453192 0
M  V30 3 C 0.796221 -3.611947 1.837396 0
M  V30 4 N 1.408524 -2.174964 0.036321 0
M  V30 5 C 2.087915 -3.183531 -0.546364 0
M  V30 6 O 2.544218 -4.147776 0.129770 0
M  V30 7 C 2.340236 -3.249090 -1.912675 0
M  V30 8 C 1.844155 -2.197624 -2.659476 0
M  V30 9 C 1.153082 -1.180513 -2.033973 0
M  V30 10 C 0.675135 -0.150080 -2.818102 0
M  V30 11 N -0.001662 0.851518 -2.225770 0
M  V30 12 C -0.242739 0.907995 -0.897299 0
M  V30 13 N -0.964626 1.983808 -0.291796 0
M  V30 14 C -1.220381 2.043154 1.118877 0
M  V30 15 C 0.034025 2.066229 1.968951 0
M  V30 16 C -0.151980 1.394733 3.288645 0
M  V30 17 O -1.377707 1.554538 3.870876 0
M  V30 18 C -2.478319 1.391798 3.076138 0
M  V30 19 C -2.084924 0.948988 1.659125 0
M  V30 20 N 0.231794 -0.106741 -0.149895 0
M  V30 21 C 0.917516 -1.141949 -0.674122 0
M  V30 22 H 2.938292 -2.718989 2.691351 0
M  V30 23 H 3.113893 -1.211334 1.767294 0
M  V30 24 H 2.017497 -1.314610 3.226192 0
M  V30 25 H 0.324659 -1.556024 1.740556 0
M  V30 26 H -0.023236 -3.606415 2.610644 0
M  V30 27 H 0.371281 -4.186718 0.989813 0
M  V30 28 H 1.647561 -4.180225 2.287920 0
M  V30 29 H 2.890824 -4.078902 -2.338445 0
M  V30 30 H 2.028141 -2.224809 -3.732507 0
M  V30 31 H 0.839451 -0.144664 -3.887022 0
M  V30 32 H -1.304264 2.744058 -0.951491 0
M  V30 33 H -1.743348 2.997386 1.337530 0
M  V30 34 H 0.370177 3.115629 2.158886 0
M  V30 35 H 0.862504 1.554747 1.432862 0
M  V30 36 H 0.158528 0.310014 3.239742 0
M  V30 37 H 0.592107 1.834639 4.000026 0
M  V30 38 H -3.060215 0.528066 3.493413 0
M  V30 39 H -3.142588 2.274074 3.064035 0
M  V30 40 H -1.442621 0.063997 1.843857 0
M  V30 41 H -2.969603 0.731568 1.060977 0
M  V30 END ATOM
M  V30 BEGIN BOND
M  V30 1 1 1 2
M  V30 2 1 2 3
M  V30 3 1 2 4
M  V30 4 1 4 5
M  V30 5 2 5 6
M  V30 6 1 5 7
M  V30 7 2 7 8
M  V30 8 1 8 9
M  V30 9 2 9 10
M  V30 10 1 10 11
M  V30 11 2 11 12
M  V30 12 1 12 13
M  V30 13 1 13 14
M  V30 14 1 14 15
M  V30 15 1 15 16
M  V30 16 1 16 17
M  V30 17 1 17 18
M  V30 18 1 18 19
M  V30 19 1 12 20
M  V30 20 2 20 21
M  V30 21 1 21 4
M  V30 22 1 21 9
M  V30 23 1 19 14
M  V30 24 1 1 22
M  V30 25 1 1 23
M  V30 26 1 1 24
M  V30 27 1 2 25
M  V30 28 1 3 26
M  V30 29 1 3 27
M  V30 30 1 3 28
M  V30 31 1 7 29
M  V30 32 1 8 30
M  V30 33 1 10 31
M  V30 34 1 13 32
M  V30 35 1 14 33
M  V30 36 1 15 34
M  V30 37 1 15 35
M  V30 38 1 16 36
M  V30 39 1 16 37
M  V30 40 1 18 38
M  V30 41 1 18 39
M  V30 42 1 19 40
M  V30 43 1 19 41
M  V30 END BOND
M  V30 END CTAB
M  END
>  <Dataset>  (307) 
ChEMBL_Kinases

>  <Ligand_Instance>  (307) 
nan

>  <PDB_ID>  (307) 
nan

>  <Standardized_SMILES>  (307) 
CC(C)n1c(=O)ccc2cnc(NC3CCOCC3)nc21

>  <Name>  (307) 
nan

>  <Pocket>  (307) 
nan

>  <ATP_Site>  (307) 
nan

>  <Peripheral>  (307) 
nan

>  <Num_H_Atoms_ProtBoundConf>  (307) 
nan

>  <Num_Resolved_Atoms>  (307) 
nan

>  <Num_Not_Resolved_Atoms>  (307) 
nan

$$$$
CHEMBL3577855
     RDKit          3D

  0  0  0  0  0  0  0  0  0  0999 V3000
M  V30 BEGIN CTAB
M  V30 COUNTS 44 46 0 0 0
M  V30 BEGIN ATOM
M  V30 1 C -2.211495 -3.243836 0.487638 0
M  V30 2 C -0.936136 -3.867114 0.028038 0
M  V30 3 C 0.012234 -3.929657 1.203752 0
M  V30 4 N -0.338147 -3.277640 -1.138158 0
M  V30 5 C -0.091091 -3.956842 -2.258101 0
M  V30 6 O -0.401870 -5.187405 -2.292507 0
M  V30 7 C 0.486722 -3.399860 -3.392256 0
M  V30 8 C 0.827081 -2.061338 -3.360907 0
M  V30 9 C 0.563638 -1.362676 -2.184331 0
M  V30 10 C 0.882984 -0.036246 -2.106474 0
M  V30 11 N 0.634357 0.651705 -0.976750 0
M  V30 12 C 0.072903 0.082411 0.105851 0
M  V30 13 N -0.199068 0.765863 1.294552 0
M  V30 14 C 0.079840 2.165234 1.548971 0 CFG=1
M  V30 15 C -0.367973 2.629502 2.908810 0
M  V30 16 C 0.629054 2.570563 3.999760 0
M  V30 17 C 1.886521 1.874549 3.500009 0 CFG=2
M  V30 18 O 2.821036 1.667239 4.492109 0
M  V30 19 C 2.375562 2.781959 2.386877 0
M  V30 20 C 1.474664 2.588573 1.199866 0
M  V30 21 N -0.229863 -1.225487 -0.002841 0
M  V30 22 C -0.011992 -1.963202 -1.086117 0
M  V30 23 H -2.976790 -3.196298 -0.315578 0
M  V30 24 H -2.101338 -2.278237 1.022825 0
M  V30 25 H -2.638957 -3.937153 1.251393 0
M  V30 26 H -1.166067 -4.925477 -0.224192 0
M  V30 27 H -0.208427 -4.842164 1.832376 0
M  V30 28 H 1.072290 -4.043571 0.903320 0
M  V30 29 H -0.158454 -3.069889 1.887436 0
M  V30 30 H 0.645093 -4.042347 -4.254631 0
M  V30 31 H 1.281838 -1.607731 -4.242732 0
M  V30 32 H 1.335949 0.482766 -2.938575 0
M  V30 33 H -0.641090 0.264548 2.095583 0
M  V30 34 H -0.595742 2.708269 0.838680 0
M  V30 35 H -0.841761 3.640174 2.901919 0
M  V30 36 H -1.214678 1.942436 3.203458 0
M  V30 37 H 0.289032 2.069463 4.929911 0
M  V30 38 H 0.895723 3.613966 4.334639 0
M  V30 39 H 1.554626 0.888140 3.130642 0
M  V30 40 H 3.715930 1.592755 4.070268 0
M  V30 41 H 3.441704 2.618573 2.147774 0
M  V30 42 H 2.281983 3.823127 2.756524 0
M  V30 43 H 1.976910 1.827476 0.569640 0
M  V30 44 H 1.491151 3.534063 0.619115 0
M  V30 END ATOM
M  V30 BEGIN BOND
M  V30 1 1 1 2
M  V30 2 1 2 3
M  V30 3 1 2 4
M  V30 4 1 4 5
M  V30 5 2 5 6
M  V30 6 1 5 7
M  V30 7 2 7 8
M  V30 8 1 8 9
M  V30 9 2 9 10
M  V30 10 1 10 11
M  V30 11 2 11 12
M  V30 12 1 12 13
M  V30 13 1 13 14
M  V30 14 1 14 15
M  V30 15 1 15 16
M  V30 16 1 16 17
M  V30 17 1 17 18
M  V30 18 1 17 19
M  V30 19 1 19 20
M  V30 20 1 12 21
M  V30 21 2 21 22
M  V30 22 1 22 4
M  V30 23 1 22 9
M  V30 24 1 20 14
M  V30 25 1 1 23
M  V30 26 1 1 24
M  V30 27 1 1 25
M  V30 28 1 2 26
M  V30 29 1 3 27
M  V30 30 1 3 28
M  V30 31 1 3 29
M  V30 32 1 7 30
M  V30 33 1 8 31
M  V30 34 1 10 32
M  V30 35 1 13 33
M  V30 36 1 14 34 CFG=3
M  V30 37 1 15 35
M  V30 38 1 15 36
M  V30 39 1 16 37
M  V30 40 1 16 38
M  V30 41 1 17 39 CFG=3
M  V30 42 1 18 40
M  V30 43 1 19 41
M  V30 44 1 19 42
M  V30 45 1 20 43
M  V30 46 1 20 44
M  V30 END BOND
M  V30 END CTAB
M  END
>  <Dataset>  (308) 
ChEMBL_Kinases

>  <Ligand_Instance>  (308) 
nan

>  <PDB_ID>  (308) 
nan

>  <Standardized_SMILES>  (308) 
CC(C)n1c(=O)ccc2cnc(N[C@H]3CC[C@H](O)CC3)nc21

>  <Name>  (308) 
nan

>  <Pocket>  (308) 
nan

>  <ATP_Site>  (308) 
nan

>  <Peripheral>  (308) 
nan

>  <Num_H_Atoms_ProtBoundConf>  (308) 
nan

>  <Num_Resolved_Atoms>  (308) 
nan

>  <Num_Not_Resolved_Atoms>  (308) 
nan

$$$$
CHEMBL3577645
     RDKit          3D

  0  0  0  0  0  0  0  0  0  0999 V3000
M  V30 BEGIN CTAB
M  V30 COUNTS 63 67 0 0 0
M  V30 BEGIN ATOM
M  V30 1 C 8.022716 3.197899 4.405523 0
M  V30 2 O 6.743536 3.129993 4.952746 0
M  V30 3 C 5.561507 2.921503 4.287512 0
M  V30 4 C 5.520046 2.742705 2.895651 0
M  V30 5 C 4.258226 2.539550 2.335118 0
M  V30 6 C 3.079672 2.508694 3.088729 0
M  V30 7 N 2.008889 2.292691 2.184036 0
M  V30 8 C 1.218106 3.266950 1.518416 0
M  V30 9 O 1.276187 4.498566 1.593467 0
M  V30 10 C 0.251096 2.536044 0.666184 0
M  V30 11 C -0.701529 2.993776 -0.170453 0
M  V30 12 C -1.474629 1.929616 -0.849745 0
M  V30 13 C -1.883826 0.866333 -0.032363 0
M  V30 14 C -2.584777 -0.190681 -0.606164 0
M  V30 15 C -2.868986 -0.179326 -1.974331 0
M  V30 16 O -3.580045 -1.269289 -2.526433 0
M  V30 17 C -3.941237 -2.295101 -1.591516 0
M  V30 18 C -4.659304 -3.394963 -2.278481 0
M  V30 19 O -4.908005 -4.213682 -1.321450 0
M  V30 20 N -5.088394 -3.721613 -3.607582 0
M  V30 21 C -5.731545 -4.987877 -3.489057 0
M  V30 22 C -7.082281 -5.071956 -3.246067 0
M  V30 23 C -7.600043 -6.367893 -3.147516 0
M  V30 24 C -6.744563 -7.447885 -3.296000 0
M  V30 25 Cl -7.489073 -9.045020 -3.156967 0
M  V30 26 C -5.390513 -7.336967 -3.539530 0
M  V30 27 C -4.878721 -6.067996 -3.637278 0
M  V30 28 C -2.470381 0.863952 -2.781793 0
M  V30 29 C -1.775220 1.907354 -2.200651 0
M  V30 30 N 0.562196 1.171271 0.909528 0
M  V30 31 C 1.530028 1.033297 1.745420 0
M  V30 32 C 1.921753 -0.332445 2.043633 0
M  V30 33 C 1.848774 -1.333584 1.103284 0
M  V30 34 C 2.198836 -2.667621 1.285369 0
M  V30 35 C 2.668886 -3.031062 2.538507 0
M  V30 36 C 2.771385 -2.068730 3.544046 0
M  V30 37 C 2.398577 -0.793560 3.246874 0
M  V30 38 C 3.175396 2.688783 4.451754 0
M  V30 39 C 4.406485 2.892327 5.033812 0
M  V30 40 H 8.644968 3.877660 5.061708 0
M  V30 41 H 8.539354 2.240567 4.259191 0
M  V30 42 H 7.965838 3.718823 3.403275 0
M  V30 43 H 6.461908 2.779285 2.401013 0
M  V30 44 H 4.399539 2.417161 1.247954 0
M  V30 45 H -0.776933 4.085183 -0.237447 0
M  V30 46 H -1.721669 0.766515 1.046092 0
M  V30 47 H -2.905199 -1.021725 0.042513 0
M  V30 48 H -4.579719 -1.804433 -0.817795 0
M  V30 49 H -2.997333 -2.698476 -1.117946 0
M  V30 50 H -4.781558 -2.921162 -4.199409 0
M  V30 51 H -7.668425 -4.175988 -3.144926 0
M  V30 52 H -8.659749 -6.488196 -2.956970 0
M  V30 53 H -4.856488 -8.257653 -3.629975 0
M  V30 54 H -3.817716 -5.991493 -3.828951 0
M  V30 55 H -2.676648 0.901682 -3.840485 0
M  V30 56 H -1.411450 2.783014 -2.735352 0
M  V30 57 H 1.475355 -1.055743 0.103218 0
M  V30 58 H 2.080436 -3.349162 0.428785 0
M  V30 59 H 2.919698 -4.078895 2.611634 0
M  V30 60 H 3.139580 -2.400724 4.491167 0
M  V30 61 H 2.494932 -0.077941 4.070507 0
M  V30 62 H 2.183826 2.638544 4.883998 0
M  V30 63 H 4.322761 3.016542 6.102259 0
M  V30 END ATOM
M  V30 BEGIN BOND
M  V30 1 1 1 2
M  V30 2 1 2 3
M  V30 3 2 3 4
M  V30 4 1 4 5
M  V30 5 2 5 6
M  V30 6 1 6 7
M  V30 7 1 7 8
M  V30 8 2 8 9
M  V30 9 1 8 10
M  V30 10 2 10 11
M  V30 11 1 11 12
M  V30 12 2 12 13
M  V30 13 1 13 14
M  V30 14 2 14 15
M  V30 15 1 15 16
M  V30 16 1 16 17
M  V30 17 1 17 18
M  V30 18 2 18 19
M  V30 19 1 18 20
M  V30 20 1 20 21
M  V30 21 2 21 22
M  V30 22 1 22 23
M  V30 23 2 23 24
M  V30 24 1 24 25
M  V30 25 1 24 26
M  V30 26 2 26 27
M  V30 27 1 15 28
M  V30 28 2 28 29
M  V30 29 1 10 30
M  V30 30 2 30 31
M  V30 31 1 31 32
M  V30 32 2 32 33
M  V30 33 1 33 34
M  V30 34 2 34 35
M  V30 35 1 35 36
M  V30 36 2 36 37
M  V30 37 1 6 38
M  V30 38 2 38 39
M  V30 39 1 39 3
M  V30 40 1 31 7
M  V30 41 1 37 32
M  V30 42 1 29 12
M  V30 43 1 27 21
M  V30 44 1 1 40
M  V30 45 1 1 41
M  V30 46 1 1 42
M  V30 47 1 4 43
M  V30 48 1 5 44
M  V30 49 1 11 45
M  V30 50 1 13 46
M  V30 51 1 14 47
M  V30 52 1 17 48
M  V30 53 1 17 49
M  V30 54 1 20 50
M  V30 55 1 22 51
M  V30 56 1 23 52
M  V30 57 1 26 53
M  V30 58 1 27 54
M  V30 59 1 28 55
M  V30 60 1 29 56
M  V30 61 1 33 57
M  V30 62 1 34 58
M  V30 63 1 35 59
M  V30 64 1 36 60
M  V30 65 1 37 61
M  V30 66 1 38 62
M  V30 67 1 39 63
M  V30 END BOND
M  V30 END CTAB
M  END
>  <Dataset>  (309) 
ChEMBL_Kinases

>  <Ligand_Instance>  (309) 
nan

>  <PDB_ID>  (309) 
nan

>  <Standardized_SMILES>  (309) 
COc1ccc(N2C(=O)/C(=C/c3ccc(OCC(=O)Nc4ccc(Cl)cc4)cc3)N=C2c2ccccc2)cc1

>  <Name>  (309) 
nan

>  <Pocket>  (309) 
nan

>  <ATP_Site>  (309) 
nan

>  <Peripheral>  (309) 
nan

>  <Num_H_Atoms_ProtBoundConf>  (309) 
nan

>  <Num_Resolved_Atoms>  (309) 
nan

>  <Num_Not_Resolved_Atoms>  (309) 
nan

$$$$
CHEMBL3577644
     RDKit          3D

  0  0  0  0  0  0  0  0  0  0999 V3000
M  V30 BEGIN CTAB
M  V30 COUNTS 63 67 0 0 0
M  V30 BEGIN ATOM
M  V30 1 C 8.288571 3.357960 3.947911 0
M  V30 2 O 7.071024 3.286277 4.640026 0
M  V30 3 C 5.860768 3.001847 4.064243 0
M  V30 4 C 5.752297 2.756566 2.703698 0
M  V30 5 C 4.493360 2.469384 2.159278 0
M  V30 6 C 3.345736 2.425303 2.961285 0
M  V30 7 N 2.233494 2.122264 2.133403 0
M  V30 8 C 1.379274 3.073937 1.492979 0
M  V30 9 O 1.446813 4.324125 1.551081 0
M  V30 10 C 0.392090 2.302897 0.742595 0
M  V30 11 C -0.620338 2.733185 -0.030646 0
M  V30 12 C -1.486820 1.726806 -0.685949 0
M  V30 13 C -1.851425 0.589129 0.043029 0
M  V30 14 C -2.653134 -0.363162 -0.572716 0
M  V30 15 C -3.093364 -0.201099 -1.889469 0
M  V30 16 O -3.905575 -1.220782 -2.436125 0
M  V30 17 C -4.187752 -2.316613 -1.575393 0
M  V30 18 C -5.036782 -3.311692 -2.256670 0
M  V30 19 O -5.237965 -4.255772 -1.412041 0
M  V30 20 N -5.658551 -3.483759 -3.544334 0
M  V30 21 C -6.308489 -4.749902 -3.355237 0
M  V30 22 C -7.586084 -4.828177 -2.846287 0
M  V30 23 C -8.098571 -6.103069 -2.705607 0
M  V30 24 C -7.327908 -7.181276 -3.069882 0
M  V30 25 C -6.050038 -7.115805 -3.579974 0
M  V30 26 Cl -5.153385 -8.552396 -4.014884 0
M  V30 27 C -5.555912 -5.847087 -3.713749 0
M  V30 28 C -2.737384 0.910257 -2.599851 0
M  V30 29 C -1.929287 1.876047 -1.989703 0
M  V30 30 N 0.731258 0.945732 0.991853 0
M  V30 31 C 1.754376 0.835545 1.764612 0
M  V30 32 C 2.240546 -0.482989 2.113735 0
M  V30 33 C 2.129976 -1.493425 1.166654 0
M  V30 34 C 2.541665 -2.826144 1.323880 0
M  V30 35 C 3.109435 -3.125505 2.559379 0
M  V30 36 C 3.233273 -2.131497 3.530779 0
M  V30 37 C 2.804901 -0.863630 3.287410 0
M  V30 38 C 3.480181 2.672821 4.312069 0
M  V30 39 C 4.722165 2.954065 4.836026 0
M  V30 40 H 9.020948 3.956322 4.539829 0
M  V30 41 H 8.722926 2.382532 3.701782 0
M  V30 42 H 8.214631 3.927489 2.976114 0
M  V30 43 H 6.665642 2.804678 2.142797 0
M  V30 44 H 4.580012 2.301436 1.080362 0
M  V30 45 H -0.738334 3.823711 -0.130011 0
M  V30 46 H -1.543771 0.410946 1.072325 0
M  V30 47 H -2.909274 -1.229680 0.035845 0
M  V30 48 H -4.682319 -1.894859 -0.674720 0
M  V30 49 H -3.240507 -2.805447 -1.206116 0
M  V30 50 H -5.404165 -2.647969 -4.101002 0
M  V30 51 H -8.061394 -3.895899 -2.607360 0
M  V30 52 H -9.099154 -6.172831 -2.305649 0
M  V30 53 H -7.813201 -8.140218 -2.923310 0
M  V30 54 H -4.536632 -5.746250 -4.118926 0
M  V30 55 H -3.069072 1.049454 -3.618959 0
M  V30 56 H -1.634120 2.775306 -2.549902 0
M  V30 57 H 1.682512 -1.248571 0.196290 0
M  V30 58 H 2.399721 -3.514377 0.511211 0
M  V30 59 H 3.429827 -4.164235 2.682451 0
M  V30 60 H 3.688458 -2.415807 4.491213 0
M  V30 61 H 2.918480 -0.134830 4.059840 0
M  V30 62 H 2.521679 2.605002 4.796056 0
M  V30 63 H 4.699204 3.131165 5.922725 0
M  V30 END ATOM
M  V30 BEGIN BOND
M  V30 1 1 1 2
M  V30 2 1 2 3
M  V30 3 2 3 4
M  V30 4 1 4 5
M  V30 5 2 5 6
M  V30 6 1 6 7
M  V30 7 1 7 8
M  V30 8 2 8 9
M  V30 9 1 8 10
M  V30 10 2 10 11
M  V30 11 1 11 12
M  V30 12 2 12 13
M  V30 13 1 13 14
M  V30 14 2 14 15
M  V30 15 1 15 16
M  V30 16 1 16 17
M  V30 17 1 17 18
M  V30 18 2 18 19
M  V30 19 1 18 20
M  V30 20 1 20 21
M  V30 21 2 21 22
M  V30 22 1 22 23
M  V30 23 2 23 24
M  V30 24 1 24 25
M  V30 25 1 25 26
M  V30 26 2 25 27
M  V30 27 1 15 28
M  V30 28 2 28 29
M  V30 29 1 10 30
M  V30 30 2 30 31
M  V30 31 1 31 32
M  V30 32 2 32 33
M  V30 33 1 33 34
M  V30 34 2 34 35
M  V30 35 1 35 36
M  V30 36 2 36 37
M  V30 37 1 6 38
M  V30 38 2 38 39
M  V30 39 1 39 3
M  V30 40 1 31 7
M  V30 41 1 37 32
M  V30 42 1 29 12
M  V30 43 1 27 21
M  V30 44 1 1 40
M  V30 45 1 1 41
M  V30 46 1 1 42
M  V30 47 1 4 43
M  V30 48 1 5 44
M  V30 49 1 11 45
M  V30 50 1 13 46
M  V30 51 1 14 47
M  V30 52 1 17 48
M  V30 53 1 17 49
M  V30 54 1 20 50
M  V30 55 1 22 51
M  V30 56 1 23 52
M  V30 57 1 24 53
M  V30 58 1 27 54
M  V30 59 1 28 55
M  V30 60 1 29 56
M  V30 61 1 33 57
M  V30 62 1 34 58
M  V30 63 1 35 59
M  V30 64 1 36 60
M  V30 65 1 37 61
M  V30 66 1 38 62
M  V30 67 1 39 63
M  V30 END BOND
M  V30 END CTAB
M  END
>  <Dataset>  (310) 
ChEMBL_Kinases

>  <Ligand_Instance>  (310) 
nan

>  <PDB_ID>  (310) 
nan

>  <Standardized_SMILES>  (310) 
COc1ccc(N2C(=O)/C(=C/c3ccc(OCC(=O)Nc4cccc(Cl)c4)cc3)N=C2c2ccccc2)cc1

>  <Name>  (310) 
nan

>  <Pocket>  (310) 
nan

>  <ATP_Site>  (310) 
nan

>  <Peripheral>  (310) 
nan

>  <Num_H_Atoms_ProtBoundConf>  (310) 
nan

>  <Num_Resolved_Atoms>  (310) 
nan

>  <Num_Not_Resolved_Atoms>  (310) 
nan

$$$$
CHEMBL3577643
     RDKit          3D

  0  0  0  0  0  0  0  0  0  0999 V3000
M  V30 BEGIN CTAB
M  V30 COUNTS 63 67 0 0 0
M  V30 BEGIN ATOM
M  V30 1 C 8.283005 3.417858 3.784037 0
M  V30 2 O 7.088099 3.471752 4.560141 0
M  V30 3 C 5.852172 3.163914 4.002840 0
M  V30 4 C 5.797267 2.797636 2.652487 0
M  V30 5 C 4.550582 2.488938 2.101193 0
M  V30 6 C 3.375007 2.538267 2.861155 0
M  V30 7 N 2.263284 2.188911 2.054618 0
M  V30 8 C 1.416591 3.087958 1.300720 0
M  V30 9 O 1.525227 4.318448 1.246395 0
M  V30 10 C 0.394579 2.271277 0.604681 0
M  V30 11 C -0.589182 2.692917 -0.208840 0
M  V30 12 C -1.445397 1.614235 -0.743936 0
M  V30 13 C -1.833551 0.582770 0.081523 0
M  V30 14 C -2.622815 -0.427369 -0.473926 0
M  V30 15 C -2.995520 -0.379108 -1.813897 0
M  V30 16 O -3.776733 -1.458596 -2.210109 0
M  V30 17 C -4.143889 -2.490523 -1.323256 0
M  V30 18 C -4.958137 -3.488453 -2.056407 0
M  V30 19 O -5.382778 -4.500333 -1.411538 0
M  V30 20 N -5.411343 -3.581904 -3.427734 0
M  V30 21 C -6.146267 -4.807896 -3.428953 0
M  V30 22 C -7.515866 -4.793435 -3.143229 0
M  V30 23 C -8.188285 -5.995498 -3.149307 0
M  V30 24 C -7.443489 -7.123757 -3.440756 0
M  V30 25 C -6.094758 -7.190799 -3.728675 0
M  V30 26 C -5.467909 -5.971755 -3.710564 0
M  V30 27 Cl -3.734070 -5.933403 -4.063733 0
M  V30 28 C -2.614756 0.646635 -2.647569 0
M  V30 29 C -1.823253 1.654162 -2.080412 0
M  V30 30 N 0.709109 0.942049 0.996582 0
M  V30 31 C 1.726527 0.901733 1.785328 0
M  V30 32 C 2.141978 -0.404007 2.241148 0
M  V30 33 C 2.020905 -1.529654 1.456246 0
M  V30 34 C 2.370968 -2.828254 1.760602 0
M  V30 35 C 2.911416 -2.998383 3.020273 0
M  V30 36 C 3.086335 -1.935430 3.910163 0
M  V30 37 C 2.687423 -0.671111 3.472905 0
M  V30 38 C 3.478505 2.905274 4.190312 0
M  V30 39 C 4.697278 3.212055 4.748116 0
M  V30 40 H 8.304033 4.201668 3.016063 0
M  V30 41 H 9.136541 3.593344 4.464392 0
M  V30 42 H 8.418999 2.413462 3.332397 0
M  V30 43 H 6.723290 2.771080 2.098554 0
M  V30 44 H 4.644342 2.218687 1.037029 0
M  V30 45 H -0.657883 3.749561 -0.388605 0
M  V30 46 H -1.577290 0.502235 1.127197 0
M  V30 47 H -2.919864 -1.238603 0.205436 0
M  V30 48 H -4.799683 -2.113319 -0.490248 0
M  V30 49 H -3.273093 -3.012442 -0.892535 0
M  V30 50 H -5.061968 -2.737675 -3.974130 0
M  V30 51 H -8.021896 -3.864747 -2.926730 0
M  V30 52 H -9.244037 -6.079340 -2.940391 0
M  V30 53 H -7.997588 -8.070024 -3.440457 0
M  V30 54 H -5.641289 -8.140926 -3.936970 0
M  V30 55 H -2.928301 0.636549 -3.667200 0
M  V30 56 H -1.529975 2.457487 -2.749368 0
M  V30 57 H 1.592874 -1.386503 0.460615 0
M  V30 58 H 2.220975 -3.625996 1.047685 0
M  V30 59 H 3.212681 -3.993319 3.336908 0
M  V30 60 H 3.512273 -2.116720 4.882474 0
M  V30 61 H 2.836651 0.118058 4.191125 0
M  V30 62 H 2.510350 2.906853 4.665614 0
M  V30 63 H 4.696135 3.490940 5.792813 0
M  V30 END ATOM
M  V30 BEGIN BOND
M  V30 1 1 1 2
M  V30 2 1 2 3
M  V30 3 2 3 4
M  V30 4 1 4 5
M  V30 5 2 5 6
M  V30 6 1 6 7
M  V30 7 1 7 8
M  V30 8 2 8 9
M  V30 9 1 8 10
M  V30 10 2 10 11
M  V30 11 1 11 12
M  V30 12 2 12 13
M  V30 13 1 13 14
M  V30 14 2 14 15
M  V30 15 1 15 16
M  V30 16 1 16 17
M  V30 17 1 17 18
M  V30 18 2 18 19
M  V30 19 1 18 20
M  V30 20 1 20 21
M  V30 21 2 21 22
M  V30 22 1 22 23
M  V30 23 2 23 24
M  V30 24 1 24 25
M  V30 25 2 25 26
M  V30 26 1 26 27
M  V30 27 1 15 28
M  V30 28 2 28 29
M  V30 29 1 10 30
M  V30 30 2 30 31
M  V30 31 1 31 32
M  V30 32 2 32 33
M  V30 33 1 33 34
M  V30 34 2 34 35
M  V30 35 1 35 36
M  V30 36 2 36 37
M  V30 37 1 6 38
M  V30 38 2 38 39
M  V30 39 1 39 3
M  V30 40 1 31 7
M  V30 41 1 37 32
M  V30 42 1 29 12
M  V30 43 1 26 21
M  V30 44 1 1 40
M  V30 45 1 1 41
M  V30 46 1 1 42
M  V30 47 1 4 43
M  V30 48 1 5 44
M  V30 49 1 11 45
M  V30 50 1 13 46
M  V30 51 1 14 47
M  V30 52 1 17 48
M  V30 53 1 17 49
M  V30 54 1 20 50
M  V30 55 1 22 51
M  V30 56 1 23 52
M  V30 57 1 24 53
M  V30 58 1 25 54
M  V30 59 1 28 55
M  V30 60 1 29 56
M  V30 61 1 33 57
M  V30 62 1 34 58
M  V30 63 1 35 59
M  V30 64 1 36 60
M  V30 65 1 37 61
M  V30 66 1 38 62
M  V30 67 1 39 63
M  V30 END BOND
M  V30 END CTAB
M  END
>  <Dataset>  (311) 
ChEMBL_Kinases

>  <Ligand_Instance>  (311) 
nan

>  <PDB_ID>  (311) 
nan

>  <Standardized_SMILES>  (311) 
COc1ccc(N2C(=O)/C(=C/c3ccc(OCC(=O)Nc4ccccc4Cl)cc3)N=C2c2ccccc2)cc1

>  <Name>  (311) 
nan

>  <Pocket>  (311) 
nan

>  <ATP_Site>  (311) 
nan

>  <Peripheral>  (311) 
nan

>  <Num_H_Atoms_ProtBoundConf>  (311) 
nan

>  <Num_Resolved_Atoms>  (311) 
nan

>  <Num_Not_Resolved_Atoms>  (311) 
nan

$$$$
CHEMBL3577642
     RDKit          3D

  0  0  0  0  0  0  0  0  0  0999 V3000
M  V30 BEGIN CTAB
M  V30 COUNTS 67 71 0 0 0
M  V30 BEGIN ATOM
M  V30 1 C 6.070191 -5.240241 -1.940977 0
M  V30 2 O 6.394635 -4.878655 -0.602877 0
M  V30 3 C 6.524443 -3.560772 -0.214780 0
M  V30 4 C 6.355774 -2.490485 -1.070601 0
M  V30 5 C 6.504035 -1.179171 -0.600249 0
M  V30 6 C 6.820881 -1.025067 0.736739 0
M  V30 7 N 6.975712 0.307258 1.259043 0
M  V30 8 C 5.655563 0.675546 1.702240 0
M  V30 9 O 4.913354 -0.335005 1.443028 0
M  V30 10 C 5.374868 2.014840 2.323136 0
M  V30 11 O 4.006279 2.098623 2.655539 0
M  V30 12 C 3.020923 2.006094 1.685460 0
M  V30 13 C 1.761755 2.107398 2.287381 0
M  V30 14 C 0.590485 2.045737 1.540190 0
M  V30 15 C 0.657721 1.882379 0.183551 0
M  V30 16 C -0.442593 1.785986 -0.770563 0
M  V30 17 C -1.568876 1.123063 -0.469591 0
M  V30 18 N -1.711060 0.495988 0.798653 0
M  V30 19 C -2.880893 -0.077219 0.846248 0
M  V30 20 C -3.291869 -0.799720 2.040323 0
M  V30 21 C -4.538358 -0.895317 2.565466 0
M  V30 22 C -4.878146 -1.597999 3.699155 0
M  V30 23 C -3.883785 -2.274952 4.382760 0
M  V30 24 C -2.582973 -2.236809 3.925195 0
M  V30 25 C -2.338239 -1.509883 2.785475 0
M  V30 26 N -3.597958 0.118791 -0.365133 0
M  V30 27 C -4.891474 -0.335683 -0.735337 0
M  V30 28 C -4.939110 -1.605313 -1.326113 0
M  V30 29 C -6.150623 -2.155086 -1.739612 0
M  V30 30 C -7.339203 -1.470814 -1.582102 0
M  V30 31 O -8.581616 -1.954521 -1.969233 0
M  V30 32 C -9.778462 -1.184074 -1.772955 0
M  V30 33 C -7.291597 -0.220706 -1.000318 0
M  V30 34 C -6.094162 0.326559 -0.589721 0
M  V30 35 C -2.784762 0.900647 -1.266348 0
M  V30 36 O -2.955131 1.327777 -2.415067 0
M  V30 37 C 1.903700 1.782987 -0.407037 0
M  V30 38 C 3.073379 1.842308 0.318086 0
M  V30 39 C 6.994176 -2.090296 1.610950 0
M  V30 40 C 6.845191 -3.383076 1.134576 0
M  V30 41 H 5.587813 -6.253250 -1.952603 0
M  V30 42 H 6.980688 -5.277425 -2.544391 0
M  V30 43 H 5.300643 -4.543631 -2.321061 0
M  V30 44 H 6.104009 -2.680400 -2.123779 0
M  V30 45 H 6.372231 -0.337004 -1.267855 0
M  V30 46 H 7.780909 0.996818 1.370990 0
M  V30 47 H 5.973234 2.044272 3.257989 0
M  V30 48 H 5.713999 2.838093 1.674161 0
M  V30 49 H 1.541086 2.238867 3.347074 0
M  V30 50 H -0.404761 2.117194 1.940659 0
M  V30 51 H -0.388693 2.244181 -1.749355 0
M  V30 52 H -5.333797 -0.389139 2.075688 0
M  V30 53 H -5.900452 -1.622676 4.051713 0
M  V30 54 H -4.076522 -2.847739 5.279980 0
M  V30 55 H -1.780309 -2.752154 4.430182 0
M  V30 56 H -1.291356 -1.498837 2.445571 0
M  V30 57 H -4.074474 -2.257813 -1.511579 0
M  V30 58 H -6.231741 -3.128281 -2.197322 0
M  V30 59 H -9.981772 -1.052760 -0.685756 0
M  V30 60 H -9.532725 -0.168095 -2.166275 0
M  V30 61 H -10.609332 -1.577367 -2.359794 0
M  V30 62 H -8.129765 0.433555 -0.811327 0
M  V30 63 H -5.954088 1.309232 -0.118532 0
M  V30 64 H 2.112280 1.651332 -1.473054 0
M  V30 65 H 4.086803 1.782157 -0.039221 0
M  V30 66 H 7.245825 -1.914031 2.661190 0
M  V30 67 H 6.978852 -4.196434 1.806900 0
M  V30 END ATOM
M  V30 BEGIN BOND
M  V30 1 1 1 2
M  V30 2 1 2 3
M  V30 3 2 3 4
M  V30 4 1 4 5
M  V30 5 2 5 6
M  V30 6 1 6 7
M  V30 7 1 7 8
M  V30 8 2 8 9
M  V30 9 1 8 10
M  V30 10 1 10 11
M  V30 11 1 11 12
M  V30 12 2 12 13
M  V30 13 1 13 14
M  V30 14 2 14 15
M  V30 15 1 15 16
M  V30 16 2 16 17
M  V30 17 1 17 18
M  V30 18 2 18 19
M  V30 19 1 19 20
M  V30 20 2 20 21
M  V30 21 1 21 22
M  V30 22 2 22 23
M  V30 23 1 23 24
M  V30 24 2 24 25
M  V30 25 1 19 26
M  V30 26 1 26 27
M  V30 27 2 27 28
M  V30 28 1 28 29
M  V30 29 2 29 30
M  V30 30 1 30 31
M  V30 31 1 31 32
M  V30 32 1 30 33
M  V30 33 2 33 34
M  V30 34 1 26 35
M  V30 35 2 35 36
M  V30 36 1 15 37
M  V30 37 2 37 38
M  V30 38 1 6 39
M  V30 39 2 39 40
M  V30 40 1 40 3
M  V30 41 1 38 12
M  V30 42 1 35 17
M  V30 43 1 25 20
M  V30 44 1 34 27
M  V30 45 1 1 41
M  V30 46 1 1 42
M  V30 47 1 1 43
M  V30 48 1 4 44
M  V30 49 1 5 45
M  V30 50 1 7 46
M  V30 51 1 10 47
M  V30 52 1 10 48
M  V30 53 1 13 49
M  V30 54 1 14 50
M  V30 55 1 16 51
M  V30 56 1 21 52
M  V30 57 1 22 53
M  V30 58 1 23 54
M  V30 59 1 24 55
M  V30 60 1 25 56
M  V30 61 1 28 57
M  V30 62 1 29 58
M  V30 63 1 32 59
M  V30 64 1 32 60
M  V30 65 1 32 61
M  V30 66 1 33 62
M  V30 67 1 34 63
M  V30 68 1 37 64
M  V30 69 1 38 65
M  V30 70 1 39 66
M  V30 71 1 40 67
M  V30 END BOND
M  V30 END CTAB
M  END
>  <Dataset>  (312) 
ChEMBL_Kinases

>  <Ligand_Instance>  (312) 
nan

>  <PDB_ID>  (312) 
nan

>  <Standardized_SMILES>  (312) 
COc1ccc(NC(=O)COc2ccc(/C=C3\N=C(c4ccccc4)N(c4ccc(OC)cc4)C3=O)cc2)cc1

>  <Name>  (312) 
nan

>  <Pocket>  (312) 
nan

>  <ATP_Site>  (312) 
nan

>  <Peripheral>  (312) 
nan

>  <Num_H_Atoms_ProtBoundConf>  (312) 
nan

>  <Num_Resolved_Atoms>  (312) 
nan

>  <Num_Not_Resolved_Atoms>  (312) 
nan

$$$$
CHEMBL3577641
     RDKit          3D

  0  0  0  0  0  0  0  0  0  0999 V3000
M  V30 BEGIN CTAB
M  V30 COUNTS 67 71 0 0 0
M  V30 BEGIN ATOM
M  V30 1 C 8.383024 -3.272342 2.411293 0
M  V30 2 O 7.414898 -2.573117 1.922457 0
M  V30 3 C 6.424226 -1.882742 1.432393 0
M  V30 4 C 6.706740 -0.617689 0.959232 0
M  V30 5 C 5.632981 0.137136 0.429643 0
M  V30 6 C 4.331305 -0.393266 0.389130 0
M  V30 7 N 3.088800 0.087170 -0.061139 0
M  V30 8 C 2.795377 0.026121 -1.447558 0
M  V30 9 O 3.390622 -0.316464 -2.528263 0
M  V30 10 C 1.485585 0.448872 -1.846697 0
M  V30 11 C 0.490991 0.767772 -2.646200 0
M  V30 12 C -0.923582 1.222423 -2.385791 0
M  V30 13 C -1.345195 0.552283 -1.271251 0
M  V30 14 C -2.614471 0.846983 -0.813307 0
M  V30 15 C -3.424032 1.819465 -1.508851 0
M  V30 16 O -4.686269 2.121270 -1.038095 0
M  V30 17 C -5.213013 1.556215 0.093654 0
M  V30 18 C -5.499209 0.090940 0.161631 0
M  V30 19 O -5.869067 -0.912856 0.736622 0
M  V30 20 N -5.265056 -0.729307 -1.029021 0
M  V30 21 C -5.618518 -2.022597 -0.519549 0
M  V30 22 C -6.738993 -2.852176 -0.332981 0
M  V30 23 C -6.433594 -3.996988 0.241071 0
M  V30 24 C -5.322148 -4.584891 0.695853 0
M  V30 25 C -4.181791 -3.824469 0.540446 0
M  V30 26 O -2.931980 -4.277696 0.958873 0
M  V30 27 C -1.822408 -3.395032 0.735740 0
M  V30 28 C -4.364917 -2.536515 -0.076188 0
M  V30 29 C -2.882169 2.432931 -2.638148 0
M  V30 30 C -1.573924 2.123926 -3.098433 0
M  V30 31 N 1.020691 0.787234 -0.514664 0
M  V30 32 C 1.868000 0.596035 0.418687 0
M  V30 33 C 1.677297 0.827874 1.885708 0
M  V30 34 C 0.254853 1.028818 2.101436 0
M  V30 35 C 0.151273 1.190895 3.521954 0
M  V30 36 C 1.013861 1.194053 4.557091 0
M  V30 37 C 2.288637 0.988281 4.104654 0
M  V30 38 C 2.667342 0.805573 2.792683 0
M  V30 39 C 4.175184 -1.700878 0.911291 0
M  V30 40 C 5.196460 -2.491383 1.446819 0
M  V30 41 H 9.007329 -3.904178 1.683723 0
M  V30 42 H 8.095697 -3.944205 3.271069 0
M  V30 43 H 9.197058 -2.621558 2.880075 0
M  V30 44 H 7.655737 -0.138758 0.966234 0
M  V30 45 H 5.653606 1.119386 0.021443 0
M  V30 46 H 0.978403 0.613072 -3.636302 0
M  V30 47 H -0.973746 -0.219246 -0.585470 0
M  V30 48 H -3.099931 0.459278 0.048589 0
M  V30 49 H -4.474250 1.709751 0.970271 0
M  V30 50 H -6.108912 2.115875 0.478546 0
M  V30 51 H -4.906410 -0.436467 -2.000191 0
M  V30 52 H -7.557860 -2.315759 -0.713724 0
M  V30 53 H -7.341425 -4.619538 0.377478 0
M  V30 54 H -5.231200 -5.554588 1.156323 0
M  V30 55 H -1.796062 -3.177338 -0.381191 0
M  V30 56 H -0.864077 -3.864205 1.044945 0
M  V30 57 H -2.060392 -2.458133 1.220313 0
M  V30 58 H -3.402250 -2.004896 -0.138588 0
M  V30 59 H -3.463342 3.171192 -3.185407 0
M  V30 60 H -1.108687 2.561585 -3.933953 0
M  V30 61 H -0.550895 1.073156 1.427512 0
M  V30 62 H -0.938501 1.329678 3.774709 0
M  V30 63 H 0.601671 1.349497 5.541053 0
M  V30 64 H 3.082805 0.986320 4.865043 0
M  V30 65 H 3.707547 0.672095 2.496787 0
M  V30 66 H 3.178098 -2.191267 0.931880 0
M  V30 67 H 4.982939 -3.482827 1.831382 0
M  V30 END ATOM
M  V30 BEGIN BOND
M  V30 1 1 1 2
M  V30 2 1 2 3
M  V30 3 2 3 4
M  V30 4 1 4 5
M  V30 5 2 5 6
M  V30 6 1 6 7
M  V30 7 1 7 8
M  V30 8 2 8 9
M  V30 9 1 8 10
M  V30 10 2 10 11
M  V30 11 1 11 12
M  V30 12 2 12 13
M  V30 13 1 13 14
M  V30 14 2 14 15
M  V30 15 1 15 16
M  V30 16 1 16 17
M  V30 17 1 17 18
M  V30 18 2 18 19
M  V30 19 1 18 20
M  V30 20 1 20 21
M  V30 21 2 21 22
M  V30 22 1 22 23
M  V30 23 2 23 24
M  V30 24 1 24 25
M  V30 25 1 25 26
M  V30 26 1 26 27
M  V30 27 2 25 28
M  V30 28 1 15 29
M  V30 29 2 29 30
M  V30 30 1 10 31
M  V30 31 2 31 32
M  V30 32 1 32 33
M  V30 33 2 33 34
M  V30 34 1 34 35
M  V30 35 2 35 36
M  V30 36 1 36 37
M  V30 37 2 37 38
M  V30 38 1 6 39
M  V30 39 2 39 40
M  V30 40 1 40 3
M  V30 41 1 32 7
M  V30 42 1 38 33
M  V30 43 1 30 12
M  V30 44 1 28 21
M  V30 45 1 1 41
M  V30 46 1 1 42
M  V30 47 1 1 43
M  V30 48 1 4 44
M  V30 49 1 5 45
M  V30 50 1 11 46
M  V30 51 1 13 47
M  V30 52 1 14 48
M  V30 53 1 17 49
M  V30 54 1 17 50
M  V30 55 1 20 51
M  V30 56 1 22 52
M  V30 57 1 23 53
M  V30 58 1 24 54
M  V30 59 1 27 55
M  V30 60 1 27 56
M  V30 61 1 27 57
M  V30 62 1 28 58
M  V30 63 1 29 59
M  V30 64 1 30 60
M  V30 65 1 34 61
M  V30 66 1 35 62
M  V30 67 1 36 63
M  V30 68 1 37 64
M  V30 69 1 38 65
M  V30 70 1 39 66
M  V30 71 1 40 67
M  V30 END BOND
M  V30 END CTAB
M  END
>  <Dataset>  (313) 
ChEMBL_Kinases

>  <Ligand_Instance>  (313) 
nan

>  <PDB_ID>  (313) 
nan

>  <Standardized_SMILES>  (313) 
COc1ccc(N2C(=O)/C(=C/c3ccc(OCC(=O)Nc4cccc(OC)c4)cc3)N=C2c2ccccc2)cc1

>  <Name>  (313) 
nan

>  <Pocket>  (313) 
nan

>  <ATP_Site>  (313) 
nan

>  <Peripheral>  (313) 
nan

>  <Num_H_Atoms_ProtBoundConf>  (313) 
nan

>  <Num_Resolved_Atoms>  (313) 
nan

>  <Num_Not_Resolved_Atoms>  (313) 
nan

$$$$
CHEMBL3577640
     RDKit          3D

  0  0  0  0  0  0  0  0  0  0999 V3000
M  V30 BEGIN CTAB
M  V30 COUNTS 67 71 0 0 0
M  V30 BEGIN ATOM
M  V30 1 C 9.260169 -1.497453 -0.174240 0
M  V30 2 O 8.432838 -1.270167 -1.287807 0
M  V30 3 C 7.110430 -0.934081 -1.248379 0
M  V30 4 C 6.454568 -0.781449 -0.065255 0
M  V30 5 C 5.128221 -0.445296 -0.065535 0
M  V30 6 C 4.333717 -0.232563 -1.167332 0
M  V30 7 N 2.962643 0.062492 -1.250240 0
M  V30 8 C 2.302986 0.595479 -2.422731 0
M  V30 9 O 2.696634 0.923628 -3.543840 0
M  V30 10 C 0.899846 0.711250 -2.045158 0
M  V30 11 C -0.173519 1.146084 -2.724014 0
M  V30 12 C -1.542294 1.206235 -2.215219 0
M  V30 13 C -1.864273 1.385831 -0.892057 0
M  V30 14 C -3.188691 1.421758 -0.527223 0
M  V30 15 C -4.249694 1.286387 -1.429606 0
M  V30 16 O -5.622198 1.310803 -1.117776 0
M  V30 17 C -6.036844 1.448150 0.245668 0
M  V30 18 C -5.640964 0.301505 1.063064 0
M  V30 19 O -6.002511 0.463808 2.239064 0
M  V30 20 N -4.957006 -0.886293 0.733074 0
M  V30 21 C -4.544689 -2.004914 1.469773 0
M  V30 22 C -3.986757 -3.007629 0.680147 0
M  V30 23 C -3.533097 -4.165060 1.256749 0
M  V30 24 C -3.603778 -4.392362 2.613271 0
M  V30 25 C -4.149849 -3.420941 3.423913 0
M  V30 26 C -4.590364 -2.279025 2.808330 0
M  V30 27 O -5.127949 -1.319256 3.620345 0
M  V30 28 C -5.279693 -1.369590 5.005737 0
M  V30 29 C -3.888860 1.108912 -2.748274 0
M  V30 30 C -2.550841 1.064353 -3.169561 0
M  V30 31 N 0.841082 0.254933 -0.725165 0
M  V30 32 C 1.978495 -0.117736 -0.250013 0
M  V30 33 C 1.963469 -0.608941 1.103327 0
M  V30 34 C 2.497050 -1.777365 1.631424 0
M  V30 35 C 2.451555 -2.187275 2.946499 0
M  V30 36 C 1.811530 -1.362544 3.848005 0
M  V30 37 C 1.239146 -0.174703 3.452362 0
M  V30 38 C 1.335691 0.154700 2.105274 0
M  V30 39 C 5.040743 -0.397547 -2.354368 0
M  V30 40 C 6.377382 -0.735099 -2.389010 0
M  V30 41 H 9.013691 -2.509828 0.267260 0
M  V30 42 H 10.333747 -1.511482 -0.459573 0
M  V30 43 H 9.039096 -0.771781 0.631826 0
M  V30 44 H 6.986494 -0.929105 0.866702 0
M  V30 45 H 4.673687 -0.312041 0.894916 0
M  V30 46 H 0.055922 1.471073 -3.742719 0
M  V30 47 H -1.087926 1.496875 -0.163094 0
M  V30 48 H -3.501858 1.562422 0.515222 0
M  V30 49 H -5.595285 2.395771 0.684417 0
M  V30 50 H -7.124805 1.632243 0.227711 0
M  V30 51 H -4.791537 -0.819488 -0.291090 0
M  V30 52 H -3.869648 -2.964560 -0.402964 0
M  V30 53 H -3.100235 -4.948206 0.669485 0
M  V30 54 H -3.239888 -5.309473 3.040460 0
M  V30 55 H -4.232134 -3.540409 4.490167 0
M  V30 56 H -6.019994 -2.168039 5.233247 0
M  V30 57 H -5.694690 -0.412405 5.363973 0
M  V30 58 H -4.292318 -1.608545 5.456705 0
M  V30 59 H -4.636349 0.997096 -3.535347 0
M  V30 60 H -2.303736 0.922988 -4.214754 0
M  V30 61 H 2.995276 -2.399607 0.876188 0
M  V30 62 H 2.912461 -3.116347 3.204773 0
M  V30 63 H 1.740425 -1.617891 4.880068 0
M  V30 64 H 0.718580 0.535200 4.084099 0
M  V30 65 H 0.888387 1.094850 1.763790 0
M  V30 66 H 4.628126 -0.284801 -3.353063 0
M  V30 67 H 6.930946 -0.863746 -3.316855 0
M  V30 END ATOM
M  V30 BEGIN BOND
M  V30 1 1 1 2
M  V30 2 1 2 3
M  V30 3 2 3 4
M  V30 4 1 4 5
M  V30 5 2 5 6
M  V30 6 1 6 7
M  V30 7 1 7 8
M  V30 8 2 8 9
M  V30 9 1 8 10
M  V30 10 2 10 11
M  V30 11 1 11 12
M  V30 12 2 12 13
M  V30 13 1 13 14
M  V30 14 2 14 15
M  V30 15 1 15 16
M  V30 16 1 16 17
M  V30 17 1 17 18
M  V30 18 2 18 19
M  V30 19 1 18 20
M  V30 20 1 20 21
M  V30 21 2 21 22
M  V30 22 1 22 23
M  V30 23 2 23 24
M  V30 24 1 24 25
M  V30 25 2 25 26
M  V30 26 1 26 27
M  V30 27 1 27 28
M  V30 28 1 15 29
M  V30 29 2 29 30
M  V30 30 1 10 31
M  V30 31 2 31 32
M  V30 32 1 32 33
M  V30 33 2 33 34
M  V30 34 1 34 35
M  V30 35 2 35 36
M  V30 36 1 36 37
M  V30 37 2 37 38
M  V30 38 1 6 39
M  V30 39 2 39 40
M  V30 40 1 40 3
M  V30 41 1 32 7
M  V30 42 1 38 33
M  V30 43 1 30 12
M  V30 44 1 26 21
M  V30 45 1 1 41
M  V30 46 1 1 42
M  V30 47 1 1 43
M  V30 48 1 4 44
M  V30 49 1 5 45
M  V30 50 1 11 46
M  V30 51 1 13 47
M  V30 52 1 14 48
M  V30 53 1 17 49
M  V30 54 1 17 50
M  V30 55 1 20 51
M  V30 56 1 22 52
M  V30 57 1 23 53
M  V30 58 1 24 54
M  V30 59 1 25 55
M  V30 60 1 28 56
M  V30 61 1 28 57
M  V30 62 1 28 58
M  V30 63 1 29 59
M  V30 64 1 30 60
M  V30 65 1 34 61
M  V30 66 1 35 62
M  V30 67 1 36 63
M  V30 68 1 37 64
M  V30 69 1 38 65
M  V30 70 1 39 66
M  V30 71 1 40 67
M  V30 END BOND
M  V30 END CTAB
M  END
>  <Dataset>  (314) 
ChEMBL_Kinases

>  <Ligand_Instance>  (314) 
nan

>  <PDB_ID>  (314) 
nan

>  <Standardized_SMILES>  (314) 
COc1ccc(N2C(=O)/C(=C/c3ccc(OCC(=O)Nc4ccccc4OC)cc3)N=C2c2ccccc2)cc1

>  <Name>  (314) 
nan

>  <Pocket>  (314) 
nan

>  <ATP_Site>  (314) 
nan

>  <Peripheral>  (314) 
nan

>  <Num_H_Atoms_ProtBoundConf>  (314) 
nan

>  <Num_Resolved_Atoms>  (314) 
nan

>  <Num_Not_Resolved_Atoms>  (314) 
nan

$$$$
CHEMBL3577639
     RDKit          3D

  0  0  0  0  0  0  0  0  0  0999 V3000
M  V30 BEGIN CTAB
M  V30 COUNTS 66 70 0 0 0
M  V30 BEGIN ATOM
M  V30 1 C 7.697683 4.338975 -3.247386 0
M  V30 2 O 6.361625 4.204843 -3.683638 0
M  V30 3 C 5.400366 3.581396 -2.898375 0
M  V30 4 C 4.183339 3.585395 -3.558571 0
M  V30 5 C 3.060926 3.012014 -2.963919 0
M  V30 6 C 3.181775 2.443158 -1.712428 0
M  V30 7 N 2.179694 1.811515 -0.921312 0
M  V30 8 C 1.948358 0.402492 -1.110850 0
M  V30 9 O 2.484448 -0.430483 -1.885966 0
M  V30 10 C 0.873895 0.098176 -0.141379 0
M  V30 11 C 0.371186 -1.123153 -0.000621 0
M  V30 12 C -0.699164 -1.337632 0.990219 0
M  V30 13 C -0.594051 -2.530504 1.675526 0
M  V30 14 C -1.556026 -2.810257 2.621204 0
M  V30 15 C -2.597636 -1.953901 2.897164 0
M  V30 16 O -3.672777 -1.972730 3.766647 0
M  V30 17 C -3.945912 -3.019827 4.663956 0
M  V30 18 C -4.204063 -4.323619 4.044451 0
M  V30 19 O -4.430657 -5.175992 4.972853 0
M  V30 20 N -4.243347 -4.764458 2.717114 0
M  V30 21 C -4.426986 -5.804203 1.800603 0
M  V30 22 C -5.606605 -6.184719 1.194345 0
M  V30 23 C -5.592638 -7.250240 0.319762 0
M  V30 24 C -4.414784 -7.891826 0.083233 0
M  V30 25 C -4.430017 -9.042881 -0.869204 0
M  V30 26 C -3.202034 -7.572769 0.646934 0
M  V30 27 C -3.240108 -6.486844 1.532327 0
M  V30 28 C -2.670349 -0.752527 2.180129 0
M  V30 29 C -1.713091 -0.427573 1.209775 0
M  V30 30 N 0.562095 1.287747 0.518775 0
M  V30 31 C 1.291138 2.267801 0.090592 0
M  V30 32 C 1.238386 3.633197 0.568725 0
M  V30 33 C 1.399648 4.803709 -0.127942 0
M  V30 34 C 1.338553 6.058458 0.434730 0
M  V30 35 C 1.101277 6.184206 1.783940 0
M  V30 36 C 0.930970 5.027310 2.532960 0
M  V30 37 C 0.997254 3.765077 1.940446 0
M  V30 38 C 4.401846 2.442597 -1.057941 0
M  V30 39 C 5.520055 3.016557 -1.656439 0
M  V30 40 H 8.344503 4.381051 -4.172288 0
M  V30 41 H 7.873857 5.273436 -2.679988 0
M  V30 42 H 8.024218 3.479881 -2.618353 0
M  V30 43 H 3.931712 3.991490 -4.540499 0
M  V30 44 H 2.059380 2.946008 -3.363600 0
M  V30 45 H 0.735431 -1.971020 -0.604870 0
M  V30 46 H 0.125163 -3.313010 1.608004 0
M  V30 47 H -1.652439 -3.689355 3.266039 0
M  V30 48 H -3.166727 -3.093765 5.462215 0
M  V30 49 H -4.910364 -2.737162 5.184034 0
M  V30 50 H -4.070421 -4.002986 2.042432 0
M  V30 51 H -6.474596 -5.599646 1.460706 0
M  V30 52 H -6.529530 -7.536097 -0.148125 0
M  V30 53 H -5.355340 -9.052906 -1.480099 0
M  V30 54 H -3.507983 -8.982259 -1.471653 0
M  V30 55 H -4.378566 -9.973476 -0.247905 0
M  V30 56 H -2.276075 -8.096462 0.445769 0
M  V30 57 H -2.264056 -6.247171 1.971685 0
M  V30 58 H -3.408817 0.063548 2.241192 0
M  V30 59 H -1.691810 0.467236 0.616084 0
M  V30 60 H 1.580639 4.690409 -1.180159 0
M  V30 61 H 1.487623 6.910556 -0.247256 0
M  V30 62 H 1.061760 7.183726 2.182750 0
M  V30 63 H 0.748832 5.204502 3.583592 0
M  V30 64 H 0.853525 2.910420 2.594193 0
M  V30 65 H 4.612800 2.021913 -0.066836 0
M  V30 66 H 6.519793 3.088355 -1.270262 0
M  V30 END ATOM
M  V30 BEGIN BOND
M  V30 1 1 1 2
M  V30 2 1 2 3
M  V30 3 2 3 4
M  V30 4 1 4 5
M  V30 5 2 5 6
M  V30 6 1 6 7
M  V30 7 1 7 8
M  V30 8 2 8 9
M  V30 9 1 8 10
M  V30 10 2 10 11
M  V30 11 1 11 12
M  V30 12 2 12 13
M  V30 13 1 13 14
M  V30 14 2 14 15
M  V30 15 1 15 16
M  V30 16 1 16 17
M  V30 17 1 17 18
M  V30 18 2 18 19
M  V30 19 1 18 20
M  V30 20 1 20 21
M  V30 21 2 21 22
M  V30 22 1 22 23
M  V30 23 2 23 24
M  V30 24 1 24 25
M  V30 25 1 24 26
M  V30 26 2 26 27
M  V30 27 1 15 28
M  V30 28 2 28 29
M  V30 29 1 10 30
M  V30 30 2 30 31
M  V30 31 1 31 32
M  V30 32 2 32 33
M  V30 33 1 33 34
M  V30 34 2 34 35
M  V30 35 1 35 36
M  V30 36 2 36 37
M  V30 37 1 6 38
M  V30 38 2 38 39
M  V30 39 1 39 3
M  V30 40 1 31 7
M  V30 41 1 37 32
M  V30 42 1 29 12
M  V30 43 1 27 21
M  V30 44 1 1 40
M  V30 45 1 1 41
M  V30 46 1 1 42
M  V30 47 1 4 43
M  V30 48 1 5 44
M  V30 49 1 11 45
M  V30 50 1 13 46
M  V30 51 1 14 47
M  V30 52 1 17 48
M  V30 53 1 17 49
M  V30 54 1 20 50
M  V30 55 1 22 51
M  V30 56 1 23 52
M  V30 57 1 25 53
M  V30 58 1 25 54
M  V30 59 1 25 55
M  V30 60 1 26 56
M  V30 61 1 27 57
M  V30 62 1 28 58
M  V30 63 1 29 59
M  V30 64 1 33 60
M  V30 65 1 34 61
M  V30 66 1 35 62
M  V30 67 1 36 63
M  V30 68 1 37 64
M  V30 69 1 38 65
M  V30 70 1 39 66
M  V30 END BOND
M  V30 END CTAB
M  END
>  <Dataset>  (315) 
ChEMBL_Kinases

>  <Ligand_Instance>  (315) 
nan

>  <PDB_ID>  (315) 
nan

>  <Standardized_SMILES>  (315) 
COc1ccc(N2C(=O)/C(=C/c3ccc(OCC(=O)Nc4ccc(C)cc4)cc3)N=C2c2ccccc2)cc1

>  <Name>  (315) 
nan

>  <Pocket>  (315) 
nan

>  <ATP_Site>  (315) 
nan

>  <Peripheral>  (315) 
nan

>  <Num_H_Atoms_ProtBoundConf>  (315) 
nan

>  <Num_Resolved_Atoms>  (315) 
nan

>  <Num_Not_Resolved_Atoms>  (315) 
nan

$$$$
CHEMBL3577638
     RDKit          3D

  0  0  0  0  0  0  0  0  0  0999 V3000
M  V30 BEGIN CTAB
M  V30 COUNTS 66 70 0 0 0
M  V30 BEGIN ATOM
M  V30 1 C 9.182415 -1.643204 2.982183 0
M  V30 2 O 8.351936 -0.734454 3.681755 0
M  V30 3 C 6.978352 -0.740529 3.478662 0
M  V30 4 C 6.277949 -1.570746 2.630762 0
M  V30 5 C 4.894027 -1.448565 2.541093 0
M  V30 6 C 4.188375 -0.504400 3.288568 0
M  V30 7 N 2.775008 -0.427750 3.170104 0
M  V30 8 C 1.855974 -1.114663 4.009728 0
M  V30 9 O 2.035476 -1.885190 4.981587 0
M  V30 10 C 0.556236 -0.713999 3.474257 0
M  V30 11 C -0.676354 -1.049054 3.889427 0
M  V30 12 C -1.873919 -0.531700 3.201497 0
M  V30 13 C -3.029370 -0.073983 3.797754 0
M  V30 14 C -4.074101 0.367510 2.982211 0
M  V30 15 C -3.967683 0.352438 1.585841 0
M  V30 16 O -5.145340 0.844192 1.054978 0
M  V30 17 C -5.324604 0.921056 -0.339233 0
M  V30 18 C -5.292415 -0.437853 -0.966114 0
M  V30 19 O -5.124124 -1.397389 -0.178209 0
M  V30 20 N -5.435258 -0.681640 -2.344620 0
M  V30 21 C -5.418020 -1.915700 -3.024501 0
M  V30 22 C -5.265446 -3.168876 -2.494498 0
M  V30 23 C -5.253459 -4.336019 -3.202403 0
M  V30 24 C -5.404059 -4.287366 -4.557651 0
M  V30 25 C -5.562415 -3.053166 -5.152165 0
M  V30 26 C -5.724626 -2.969985 -6.620988 0
M  V30 27 C -5.567777 -1.903057 -4.394421 0
M  V30 28 C -2.795022 -0.112762 1.030956 0
M  V30 29 C -1.757242 -0.551138 1.825223 0
M  V30 30 N 0.833219 0.156922 2.386959 0
M  V30 31 C 2.081859 0.330187 2.200765 0
M  V30 32 C 2.488303 1.198570 1.112778 0
M  V30 33 C 1.718361 1.281965 -0.053059 0
M  V30 34 C 2.035748 2.089485 -1.138163 0
M  V30 35 C 3.166757 2.860314 -1.086390 0
M  V30 36 C 3.968240 2.823577 0.034633 0
M  V30 37 C 3.601158 2.003517 1.077659 0
M  V30 38 C 4.945617 0.306320 4.126756 0
M  V30 39 C 6.332148 0.210390 4.240746 0
M  V30 40 H 9.177826 -1.463791 1.875571 0
M  V30 41 H 10.227750 -1.622226 3.387363 0
M  V30 42 H 8.847770 -2.697712 3.105285 0
M  V30 43 H 6.857539 -2.286701 2.070021 0
M  V30 44 H 4.374112 -2.132873 1.850433 0
M  V30 45 H -0.706182 -1.708420 4.741908 0
M  V30 46 H -3.038277 -0.091709 4.865540 0
M  V30 47 H -4.917566 0.698664 3.602634 0
M  V30 48 H -6.204366 1.511512 -0.623538 0
M  V30 49 H -4.436054 1.468077 -0.751336 0
M  V30 50 H -5.567630 0.206614 -2.871443 0
M  V30 51 H -5.143646 -3.272679 -1.441532 0
M  V30 52 H -5.129834 -5.295950 -2.734822 0
M  V30 53 H -5.408637 -5.150807 -5.197852 0
M  V30 54 H -4.949440 -2.302406 -7.083307 0
M  V30 55 H -6.748333 -2.663796 -6.929900 0
M  V30 56 H -5.551759 -3.971717 -7.077314 0
M  V30 57 H -5.697273 -0.957721 -4.928808 0
M  V30 58 H -2.809301 -0.072710 -0.036833 0
M  V30 59 H -0.930059 -0.877901 1.205958 0
M  V30 60 H 0.810760 0.658389 -0.085018 0
M  V30 61 H 1.361244 2.073579 -1.993208 0
M  V30 62 H 3.430708 3.492801 -1.913992 0
M  V30 63 H 4.862562 3.427918 0.085351 0
M  V30 64 H 4.254434 2.007686 1.934983 0
M  V30 65 H 4.317209 1.018601 4.677625 0
M  V30 66 H 6.697305 0.937721 4.949003 0
M  V30 END ATOM
M  V30 BEGIN BOND
M  V30 1 1 1 2
M  V30 2 1 2 3
M  V30 3 2 3 4
M  V30 4 1 4 5
M  V30 5 2 5 6
M  V30 6 1 6 7
M  V30 7 1 7 8
M  V30 8 2 8 9
M  V30 9 1 8 10
M  V30 10 2 10 11
M  V30 11 1 11 12
M  V30 12 2 12 13
M  V30 13 1 13 14
M  V30 14 2 14 15
M  V30 15 1 15 16
M  V30 16 1 16 17
M  V30 17 1 17 18
M  V30 18 2 18 19
M  V30 19 1 18 20
M  V30 20 1 20 21
M  V30 21 2 21 22
M  V30 22 1 22 23
M  V30 23 2 23 24
M  V30 24 1 24 25
M  V30 25 1 25 26
M  V30 26 2 25 27
M  V30 27 1 15 28
M  V30 28 2 28 29
M  V30 29 1 10 30
M  V30 30 2 30 31
M  V30 31 1 31 32
M  V30 32 2 32 33
M  V30 33 1 33 34
M  V30 34 2 34 35
M  V30 35 1 35 36
M  V30 36 2 36 37
M  V30 37 1 6 38
M  V30 38 2 38 39
M  V30 39 1 39 3
M  V30 40 1 31 7
M  V30 41 1 37 32
M  V30 42 1 29 12
M  V30 43 1 27 21
M  V30 44 1 1 40
M  V30 45 1 1 41
M  V30 46 1 1 42
M  V30 47 1 4 43
M  V30 48 1 5 44
M  V30 49 1 11 45
M  V30 50 1 13 46
M  V30 51 1 14 47
M  V30 52 1 17 48
M  V30 53 1 17 49
M  V30 54 1 20 50
M  V30 55 1 22 51
M  V30 56 1 23 52
M  V30 57 1 24 53
M  V30 58 1 26 54
M  V30 59 1 26 55
M  V30 60 1 26 56
M  V30 61 1 27 57
M  V30 62 1 28 58
M  V30 63 1 29 59
M  V30 64 1 33 60
M  V30 65 1 34 61
M  V30 66 1 35 62
M  V30 67 1 36 63
M  V30 68 1 37 64
M  V30 69 1 38 65
M  V30 70 1 39 66
M  V30 END BOND
M  V30 END CTAB
M  END
>  <Dataset>  (316) 
ChEMBL_Kinases

>  <Ligand_Instance>  (316) 
nan

>  <PDB_ID>  (316) 
nan

>  <Standardized_SMILES>  (316) 
COc1ccc(N2C(=O)/C(=C/c3ccc(OCC(=O)Nc4cccc(C)c4)cc3)N=C2c2ccccc2)cc1

>  <Name>  (316) 
nan

>  <Pocket>  (316) 
nan

>  <ATP_Site>  (316) 
nan

>  <Peripheral>  (316) 
nan

>  <Num_H_Atoms_ProtBoundConf>  (316) 
nan

>  <Num_Resolved_Atoms>  (316) 
nan

>  <Num_Not_Resolved_Atoms>  (316) 
nan

$$$$
CHEMBL3577637
     RDKit          3D

  0  0  0  0  0  0  0  0  0  0999 V3000
M  V30 BEGIN CTAB
M  V30 COUNTS 66 70 0 0 0
M  V30 BEGIN ATOM
M  V30 1 C 8.899076 -2.406194 1.962889 0
M  V30 2 O 8.225302 -1.290194 2.516768 0
M  V30 3 C 6.843229 -1.186974 2.515066 0
M  V30 4 C 6.031104 -2.184636 1.962921 0
M  V30 5 C 4.656526 -2.001201 2.003131 0
M  V30 6 C 4.094088 -0.862519 2.573460 0
M  V30 7 N 2.674274 -0.824329 2.544474 0
M  V30 8 C 1.829780 -1.293741 3.616265 0
M  V30 9 O 2.111061 -1.791556 4.728464 0
M  V30 10 C 0.470431 -1.049415 3.098548 0
M  V30 11 C -0.682361 -1.272415 3.700016 0
M  V30 12 C -2.000444 -1.015898 3.143005 0
M  V30 13 C -3.074815 -1.714226 3.636469 0
M  V30 14 C -4.394784 -1.636380 3.253868 0
M  V30 15 C -4.681600 -0.725004 2.223550 0
M  V30 16 O -6.007402 -0.668075 1.868252 0
M  V30 17 C -6.478200 0.167943 0.840212 0
M  V30 18 C -5.832338 -0.315480 -0.426118 0
M  V30 19 O -5.016538 -1.295901 -0.541537 0
M  V30 20 N -6.047392 0.266668 -1.706423 0
M  V30 21 C -5.233522 -0.531921 -2.593986 0
M  V30 22 C -5.871521 -1.654511 -3.093923 0
M  V30 23 C -5.111674 -2.415926 -3.933744 0
M  V30 24 C -3.807836 -2.073697 -4.247312 0
M  V30 25 C -3.182733 -0.936795 -3.732512 0
M  V30 26 C -3.944622 -0.158162 -2.879688 0
M  V30 27 C -3.311311 1.058852 -2.319544 0
M  V30 28 C -3.634499 0.005063 1.688381 0
M  V30 29 C -2.330855 -0.134228 2.133302 0
M  V30 30 N 0.626923 -0.485572 1.828382 0
M  V30 31 C 1.869047 -0.351672 1.502702 0
M  V30 32 C 2.169203 0.227054 0.214798 0
M  V30 33 C 1.353204 -0.015953 -0.899601 0
M  V30 34 C 1.597779 0.530422 -2.149091 0
M  V30 35 C 2.686014 1.355644 -2.338307 0
M  V30 36 C 3.517572 1.630516 -1.293059 0
M  V30 37 C 3.227230 1.060264 -0.072946 0
M  V30 38 C 4.921788 0.128509 3.123162 0
M  V30 39 C 6.310191 -0.051389 3.085259 0
M  V30 40 H 8.792680 -2.432859 0.839014 0
M  V30 41 H 9.992094 -2.267785 2.120730 0
M  V30 42 H 8.545006 -3.378927 2.338428 0
M  V30 43 H 6.547778 -3.030287 1.543439 0
M  V30 44 H 4.073632 -2.791565 1.566735 0
M  V30 45 H -0.605811 -1.682868 4.694405 0
M  V30 46 H -2.881036 -2.428533 4.439643 0
M  V30 47 H -5.160233 -2.236136 3.714095 0
M  V30 48 H -7.581893 0.110120 0.764039 0
M  V30 49 H -6.224731 1.236518 1.021692 0
M  V30 50 H -6.701313 1.101947 -1.771968 0
M  V30 51 H -6.866502 -1.952669 -2.879870 0
M  V30 52 H -5.519577 -3.332026 -4.388756 0
M  V30 53 H -3.242466 -2.714968 -4.921410 0
M  V30 54 H -2.167023 -0.759021 -4.039268 0
M  V30 55 H -4.023672 1.709031 -1.773413 0
M  V30 56 H -2.745040 1.595587 -3.118645 0
M  V30 57 H -2.536552 0.707516 -1.604833 0
M  V30 58 H -3.874076 0.702759 0.900437 0
M  V30 59 H -1.524626 0.447221 1.702248 0
M  V30 60 H 0.483469 -0.653437 -0.827615 0
M  V30 61 H 0.928031 0.304982 -2.985506 0
M  V30 62 H 2.815651 1.745756 -3.334870 0
M  V30 63 H 4.374977 2.275672 -1.424645 0
M  V30 64 H 3.913648 1.308762 0.721241 0
M  V30 65 H 4.425869 0.985953 3.550222 0
M  V30 66 H 6.849118 0.767985 3.536113 0
M  V30 END ATOM
M  V30 BEGIN BOND
M  V30 1 1 1 2
M  V30 2 1 2 3
M  V30 3 2 3 4
M  V30 4 1 4 5
M  V30 5 2 5 6
M  V30 6 1 6 7
M  V30 7 1 7 8
M  V30 8 2 8 9
M  V30 9 1 8 10
M  V30 10 2 10 11
M  V30 11 1 11 12
M  V30 12 2 12 13
M  V30 13 1 13 14
M  V30 14 2 14 15
M  V30 15 1 15 16
M  V30 16 1 16 17
M  V30 17 1 17 18
M  V30 18 2 18 19
M  V30 19 1 18 20
M  V30 20 1 20 21
M  V30 21 2 21 22
M  V30 22 1 22 23
M  V30 23 2 23 24
M  V30 24 1 24 25
M  V30 25 2 25 26
M  V30 26 1 26 27
M  V30 27 1 15 28
M  V30 28 2 28 29
M  V30 29 1 10 30
M  V30 30 2 30 31
M  V30 31 1 31 32
M  V30 32 2 32 33
M  V30 33 1 33 34
M  V30 34 2 34 35
M  V30 35 1 35 36
M  V30 36 2 36 37
M  V30 37 1 6 38
M  V30 38 2 38 39
M  V30 39 1 39 3
M  V30 40 1 31 7
M  V30 41 1 37 32
M  V30 42 1 29 12
M  V30 43 1 26 21
M  V30 44 1 1 40
M  V30 45 1 1 41
M  V30 46 1 1 42
M  V30 47 1 4 43
M  V30 48 1 5 44
M  V30 49 1 11 45
M  V30 50 1 13 46
M  V30 51 1 14 47
M  V30 52 1 17 48
M  V30 53 1 17 49
M  V30 54 1 20 50
M  V30 55 1 22 51
M  V30 56 1 23 52
M  V30 57 1 24 53
M  V30 58 1 25 54
M  V30 59 1 27 55
M  V30 60 1 27 56
M  V30 61 1 27 57
M  V30 62 1 28 58
M  V30 63 1 29 59
M  V30 64 1 33 60
M  V30 65 1 34 61
M  V30 66 1 35 62
M  V30 67 1 36 63
M  V30 68 1 37 64
M  V30 69 1 38 65
M  V30 70 1 39 66
M  V30 END BOND
M  V30 END CTAB
M  END
>  <Dataset>  (317) 
ChEMBL_Kinases

>  <Ligand_Instance>  (317) 
nan

>  <PDB_ID>  (317) 
nan

>  <Standardized_SMILES>  (317) 
COc1ccc(N2C(=O)/C(=C/c3ccc(OCC(=O)Nc4ccccc4C)cc3)N=C2c2ccccc2)cc1

>  <Name>  (317) 
nan

>  <Pocket>  (317) 
nan

>  <ATP_Site>  (317) 
nan

>  <Peripheral>  (317) 
nan

>  <Num_H_Atoms_ProtBoundConf>  (317) 
nan

>  <Num_Resolved_Atoms>  (317) 
nan

>  <Num_Not_Resolved_Atoms>  (317) 
nan

$$$$
CHEMBL3577867
     RDKit          3D

  0  0  0  0  0  0  0  0  0  0999 V3000
M  V30 BEGIN CTAB
M  V30 COUNTS 55 57 0 0 0
M  V30 BEGIN ATOM
M  V30 1 C 3.960904 -3.330798 6.459889 0
M  V30 2 C 3.245759 -2.409218 5.475827 0
M  V30 3 N 3.395996 -2.952934 4.117111 0
M  V30 4 C 2.815424 -2.266901 3.040142 0
M  V30 5 O 2.178444 -1.204584 3.242599 0
M  V30 6 N 2.882189 -2.677788 1.680370 0
M  V30 7 C 2.275390 -1.947456 0.612536 0 CFG=1
M  V30 8 C 3.360659 -1.437362 -0.307911 0
M  V30 9 C 2.748263 -0.638752 -1.384664 0
M  V30 10 C 1.279862 -0.376542 -1.319674 0 CFG=2
M  V30 11 N 1.074716 0.713653 -0.385198 0
M  V30 12 C -0.175712 1.350877 -0.043719 0
M  V30 13 N -0.304721 2.370665 0.856316 0
M  V30 14 C -1.537146 2.866385 1.063504 0
M  V30 15 C -2.680631 2.421570 0.434748 0
M  V30 16 C -3.930953 2.944879 0.663307 0
M  V30 17 C -5.012238 2.406640 -0.038199 0
M  V30 18 C -4.720750 1.378482 -0.913818 0
M  V30 19 O -5.732351 0.929764 -1.520350 0
M  V30 20 N -3.511659 0.865385 -1.141280 0
M  V30 21 C -3.300361 -0.204120 -2.070548 0
M  V30 22 C -4.128231 0.071419 -3.310482 0
M  V30 23 C -3.768455 -1.543036 -1.515060 0
M  V30 24 C -2.467255 1.392425 -0.457148 0
M  V30 25 N -1.252754 0.873611 -0.688804 0
M  V30 26 C 0.447593 -1.532837 -0.894978 0
M  V30 27 C 1.263102 -2.636534 -0.217716 0
M  V30 28 H 4.832630 -3.813060 6.017993 0
M  V30 29 H 4.187997 -2.735753 7.367370 0
M  V30 30 H 3.181627 -4.065003 6.797751 0
M  V30 31 H 3.776224 -1.436060 5.529026 0
M  V30 32 H 2.202973 -2.240713 5.743757 0
M  V30 33 H 3.921869 -3.842605 3.892028 0
M  V30 34 H 3.417607 -3.576622 1.486860 0
M  V30 35 H 1.787335 -1.060602 1.072526 0
M  V30 36 H 3.975190 -2.278550 -0.714415 0
M  V30 37 H 4.075084 -0.774535 0.272342 0
M  V30 38 H 2.928051 -1.187803 -2.360557 0
M  V30 39 H 3.333100 0.302408 -1.513392 0
M  V30 40 H 0.933154 -0.035620 -2.316117 0
M  V30 41 H 1.885349 1.149216 0.149282 0
M  V30 42 H -1.617457 3.672288 1.779059 0
M  V30 43 H -4.049340 3.755747 1.375757 0
M  V30 44 H -6.009707 2.793714 0.116451 0
M  V30 45 H -2.249797 -0.289961 -2.406767 0
M  V30 46 H -5.101918 -0.472205 -3.280251 0
M  V30 47 H -4.371144 1.164109 -3.405658 0
M  V30 48 H -3.568314 -0.213820 -4.245919 0
M  V30 49 H -4.795247 -1.354599 -1.093321 0
M  V30 50 H -3.867548 -2.301652 -2.295963 0
M  V30 51 H -3.138136 -1.850639 -0.645734 0
M  V30 52 H -0.345002 -1.235100 -0.183573 0
M  V30 53 H -0.057650 -2.019838 -1.750674 0
M  V30 54 H 0.509198 -3.241159 0.325189 0
M  V30 55 H 1.763869 -3.179416 -1.042600 0
M  V30 END ATOM
M  V30 BEGIN BOND
M  V30 1 1 1 2
M  V30 2 1 2 3
M  V30 3 1 3 4
M  V30 4 2 4 5
M  V30 5 1 4 6
M  V30 6 1 6 7
M  V30 7 1 7 8
M  V30 8 1 8 9
M  V30 9 1 9 10
M  V30 10 1 10 11
M  V30 11 1 11 12
M  V30 12 2 12 13
M  V30 13 1 13 14
M  V30 14 2 14 15
M  V30 15 1 15 16
M  V30 16 2 16 17
M  V30 17 1 17 18
M  V30 18 2 18 19
M  V30 19 1 18 20
M  V30 20 1 20 21
M  V30 21 1 21 22
M  V30 22 1 21 23
M  V30 23 1 20 24
M  V30 24 2 24 25
M  V30 25 1 10 26
M  V30 26 1 26 27
M  V30 27 1 27 7
M  V30 28 1 25 12
M  V30 29 1 24 15
M  V30 30 1 1 28
M  V30 31 1 1 29
M  V30 32 1 1 30
M  V30 33 1 2 31
M  V30 34 1 2 32
M  V30 35 1 3 33
M  V30 36 1 6 34
M  V30 37 1 7 35 CFG=1
M  V30 38 1 8 36
M  V30 39 1 8 37
M  V30 40 1 9 38
M  V30 41 1 9 39
M  V30 42 1 10 40 CFG=3
M  V30 43 1 11 41
M  V30 44 1 14 42
M  V30 45 1 16 43
M  V30 46 1 17 44
M  V30 47 1 21 45
M  V30 48 1 22 46
M  V30 49 1 22 47
M  V30 50 1 22 48
M  V30 51 1 23 49
M  V30 52 1 23 50
M  V30 53 1 23 51
M  V30 54 1 26 52
M  V30 55 1 26 53
M  V30 56 1 27 54
M  V30 57 1 27 55
M  V30 END BOND
M  V30 END CTAB
M  END
>  <Dataset>  (318) 
ChEMBL_Kinases

>  <Ligand_Instance>  (318) 
nan

>  <PDB_ID>  (318) 
nan

>  <Standardized_SMILES>  (318) 
CCNC(=O)N[C@H]1CC[C@H](Nc2ncc3ccc(=O)n(C(C)C)c3n2)CC1

>  <Name>  (318) 
nan

>  <Pocket>  (318) 
nan

>  <ATP_Site>  (318) 
nan

>  <Peripheral>  (318) 
nan

>  <Num_H_Atoms_ProtBoundConf>  (318) 
nan

>  <Num_Resolved_Atoms>  (318) 
nan

>  <Num_Not_Resolved_Atoms>  (318) 
nan

$$$$
CHEMBL3594177
     RDKit          3D

  0  0  0  0  0  0  0  0  0  0999 V3000
M  V30 BEGIN CTAB
M  V30 COUNTS 59 62 0 0 0
M  V30 BEGIN ATOM
M  V30 1 C 0.960776 -4.504430 6.533852 0
M  V30 2 N 0.857836 -3.504987 5.487060 0
M  V30 3 C -0.151279 -3.795023 4.508443 0
M  V30 4 C -0.002571 -2.826148 3.369832 0
M  V30 5 C 0.969205 -1.753058 3.862514 0 CFG=2
M  V30 6 C 2.084946 -1.594911 2.860981 0
M  V30 7 C 2.277479 -0.516850 1.999548 0
M  V30 8 C 3.406310 -0.736221 1.231598 0
M  V30 9 N 3.955346 0.124165 0.206646 0
M  V30 10 C 3.154577 1.315862 0.032073 0
M  V30 11 C 3.330360 2.581337 0.548669 0
M  V30 12 C 2.393343 3.531800 0.232723 0
M  V30 13 N 1.358107 3.240564 -0.540264 0
M  V30 14 C 1.154426 2.022203 -1.060249 0
M  V30 15 N 0.059122 1.598073 -1.897036 0
M  V30 16 C 0.349860 1.875115 -3.283058 0
M  V30 17 C -1.068783 0.988440 -1.216210 0
M  V30 18 C -1.213091 -0.471518 -1.475528 0 CFG=1
M  V30 19 C -2.393204 -1.048203 -0.744386 0
M  V30 20 C -3.689559 -0.969904 -1.458180 0
M  V30 21 C -3.662394 -0.362048 -2.822043 0 CFG=2
M  V30 22 N -4.836345 -0.891004 -3.521966 0
M  V30 23 C -2.471790 -0.649049 -3.652957 0
M  V30 24 C -1.208076 -0.901061 -2.891514 0
M  V30 25 N 2.068346 1.085482 -0.756272 0
M  V30 26 N 3.876869 -1.948569 1.646185 0
M  V30 27 N 3.096329 -2.435128 2.594678 0
M  V30 28 C 1.483105 -2.273320 5.125541 0
M  V30 29 O 2.351799 -1.823689 5.907484 0
M  V30 30 H 1.097835 -5.527469 6.150486 0
M  V30 31 H 0.011159 -4.473534 7.135914 0
M  V30 32 H 1.806164 -4.298116 7.219522 0
M  V30 33 H -0.069737 -4.833142 4.083385 0
M  V30 34 H -1.193401 -3.664038 4.912913 0
M  V30 35 H -0.960943 -2.392888 3.045789 0
M  V30 36 H 0.403309 -3.334233 2.448922 0
M  V30 37 H 0.398911 -0.822764 3.903672 0
M  V30 38 H 1.622754 0.318001 1.982014 0
M  V30 39 H 4.827578 -0.219086 -0.253369 0
M  V30 40 H 4.217245 2.657047 1.156294 0
M  V30 41 H 2.561352 4.509503 0.654314 0
M  V30 42 H 1.227600 1.276036 -3.654434 0
M  V30 43 H 0.677723 2.948264 -3.381337 0
M  V30 44 H -0.500271 1.766800 -3.966502 0
M  V30 45 H -1.984886 1.571462 -1.502088 0
M  V30 46 H -1.001093 1.120980 -0.118769 0
M  V30 47 H -0.310272 -0.954442 -0.988957 0
M  V30 48 H -2.158948 -2.116209 -0.460883 0
M  V30 49 H -2.499718 -0.539767 0.249578 0
M  V30 50 H -4.157066 -1.996424 -1.484467 0
M  V30 51 H -4.438547 -0.363107 -0.869109 0
M  V30 52 H -3.841149 0.752905 -2.778272 0
M  V30 53 H -5.672292 -0.605213 -2.956301 0
M  V30 54 H -4.763652 -1.949768 -3.434765 0
M  V30 55 H -2.286560 0.222754 -4.320538 0
M  V30 56 H -2.701693 -1.486676 -4.361798 0
M  V30 57 H -1.089767 -2.027365 -2.883387 0
M  V30 58 H -0.299755 -0.550939 -3.417953 0
M  V30 59 H 3.255938 -3.361426 3.071505 0
M  V30 END ATOM
M  V30 BEGIN BOND
M  V30 1 1 1 2
M  V30 2 1 2 3
M  V30 3 1 3 4
M  V30 4 1 4 5
M  V30 5 1 5 6
M  V30 6 2 6 7
M  V30 7 1 7 8
M  V30 8 1 8 9
M  V30 9 1 9 10
M  V30 10 2 10 11
M  V30 11 1 11 12
M  V30 12 2 12 13
M  V30 13 1 13 14
M  V30 14 1 14 15
M  V30 15 1 15 16
M  V30 16 1 15 17
M  V30 17 1 17 18
M  V30 18 1 18 19
M  V30 19 1 19 20
M  V30 20 1 20 21
M  V30 21 1 21 22
M  V30 22 1 21 23
M  V30 23 1 23 24
M  V30 24 2 14 25
M  V30 25 2 8 26
M  V30 26 1 26 27
M  V30 27 1 5 28
M  V30 28 2 28 29
M  V30 29 1 28 2
M  V30 30 1 27 6
M  V30 31 1 25 10
M  V30 32 1 24 18
M  V30 33 1 1 30
M  V30 34 1 1 31
M  V30 35 1 1 32
M  V30 36 1 3 33
M  V30 37 1 3 34
M  V30 38 1 4 35
M  V30 39 1 4 36
M  V30 40 1 5 37 CFG=1
M  V30 41 1 7 38
M  V30 42 1 9 39
M  V30 43 1 11 40
M  V30 44 1 12 41
M  V30 45 1 16 42
M  V30 46 1 16 43
M  V30 47 1 16 44
M  V30 48 1 17 45
M  V30 49 1 17 46
M  V30 50 1 18 47 CFG=1
M  V30 51 1 19 48
M  V30 52 1 19 49
M  V30 53 1 20 50
M  V30 54 1 20 51
M  V30 55 1 21 52 CFG=1
M  V30 56 1 22 53
M  V30 57 1 22 54
M  V30 58 1 23 55
M  V30 59 1 23 56
M  V30 60 1 24 57
M  V30 61 1 24 58
M  V30 62 1 27 59
M  V30 END BOND
M  V30 END CTAB
M  END
>  <Dataset>  (319) 
ChEMBL_Kinases

>  <Ligand_Instance>  (319) 
nan

>  <PDB_ID>  (319) 
nan

>  <Standardized_SMILES>  (319) 
CN1CC[C@H](c2cc(Nc3ccnc(N(C)C[C@H]4CC[C@H](N)CC4)n3)n[nH]2)C1=O

>  <Name>  (319) 
nan

>  <Pocket>  (319) 
nan

>  <ATP_Site>  (319) 
nan

>  <Peripheral>  (319) 
nan

>  <Num_H_Atoms_ProtBoundConf>  (319) 
nan

>  <Num_Resolved_Atoms>  (319) 
nan

>  <Num_Not_Resolved_Atoms>  (319) 
nan

$$$$
CHEMBL3593825
     RDKit          3D

  0  0  0  0  0  0  0  0  0  0999 V3000
M  V30 BEGIN CTAB
M  V30 COUNTS 53 56 0 0 0
M  V30 BEGIN ATOM
M  V30 1 C -1.142126 0.274832 3.792879 0
M  V30 2 O 0.228341 0.057334 3.904872 0
M  V30 3 C 0.513424 -1.274242 4.185559 0
M  V30 4 C 1.974216 -1.522701 4.296123 0
M  V30 5 C 2.508962 -0.632381 5.417508 0
M  V30 6 C 2.716585 -1.361330 3.030799 0
M  V30 7 C 2.447746 -0.331295 2.135515 0
M  V30 8 C 3.340366 -0.534217 1.113398 0
M  V30 9 N 3.492759 0.182280 -0.073399 0
M  V30 10 C 2.718325 1.267001 -0.573135 0
M  V30 11 C 2.915283 2.615915 -0.873318 0
M  V30 12 C 1.863131 3.320101 -1.357739 0
M  V30 13 N 0.699175 2.725609 -1.531387 0
M  V30 14 C 0.433143 1.430662 -1.264214 0
M  V30 15 N -0.859685 0.826640 -1.515844 0
M  V30 16 C -1.796041 1.698741 -2.196793 0
M  V30 17 C -0.909125 -0.521896 -0.986923 0
M  V30 18 C -1.972779 -1.367653 -1.516238 0
M  V30 19 C -2.640216 -1.271578 -2.715380 0
M  V30 20 C -3.589582 -2.169880 -3.110680 0
M  V30 21 C -3.898888 -3.225473 -2.277825 0
M  V30 22 N -4.773386 -4.231916 -2.446844 0
M  V30 23 C -4.675567 -5.002147 -1.332724 0
M  V30 24 N -3.764711 -4.485990 -0.496306 0
M  V30 25 C -3.262988 -3.373846 -1.063580 0
M  V30 26 C -2.312123 -2.445818 -0.698958 0
M  V30 27 Cl -1.565003 -2.717871 0.862197 0
M  V30 28 N 1.500544 0.741888 -0.778570 0
M  V30 29 N 4.098768 -1.602854 1.357332 0
M  V30 30 N 3.724006 -2.125795 2.540677 0
M  V30 31 H -1.550460 -0.346061 2.968316 0
M  V30 32 H -1.391299 1.350934 3.716288 0
M  V30 33 H -1.591163 -0.070183 4.769370 0
M  V30 34 H 0.030374 -1.523280 5.145991 0
M  V30 35 H 0.016459 -1.961246 3.440101 0
M  V30 36 H 2.151838 -2.559938 4.673805 0
M  V30 37 H 3.399264 -1.115986 5.872004 0
M  V30 38 H 1.715142 -0.479478 6.171355 0
M  V30 39 H 2.736004 0.355962 4.953926 0
M  V30 40 H 1.725459 0.490906 2.138860 0
M  V30 41 H 4.195116 0.064032 -0.820897 0
M  V30 42 H 3.951253 2.839710 -0.637610 0
M  V30 43 H 2.112388 4.334513 -1.555976 0
M  V30 44 H -1.502205 1.750791 -3.263422 0
M  V30 45 H -1.651398 2.735402 -1.762523 0
M  V30 46 H -2.852299 1.469454 -2.006035 0
M  V30 47 H 0.058177 -1.041346 -1.106821 0
M  V30 48 H -1.049656 -0.411855 0.145419 0
M  V30 49 H -2.356298 -0.434456 -3.331966 0
M  V30 50 H -4.084214 -2.055555 -4.051977 0
M  V30 51 H -5.428031 -4.465931 -3.229747 0
M  V30 52 H -5.173814 -5.918066 -1.015413 0
M  V30 53 H 4.112878 -2.964426 3.027555 0
M  V30 END ATOM
M  V30 BEGIN BOND
M  V30 1 1 1 2
M  V30 2 1 2 3
M  V30 3 1 3 4
M  V30 4 1 4 5
M  V30 5 1 4 6
M  V30 6 2 6 7
M  V30 7 1 7 8
M  V30 8 1 8 9
M  V30 9 1 9 10
M  V30 10 2 10 11
M  V30 11 1 11 12
M  V30 12 2 12 13
M  V30 13 1 13 14
M  V30 14 1 14 15
M  V30 15 1 15 16
M  V30 16 1 15 17
M  V30 17 1 17 18
M  V30 18 2 18 19
M  V30 19 1 19 20
M  V30 20 2 20 21
M  V30 21 1 21 22
M  V30 22 1 22 23
M  V30 23 2 23 24
M  V30 24 1 24 25
M  V30 25 2 25 26
M  V30 26 1 26 27
M  V30 27 2 14 28
M  V30 28 2 8 29
M  V30 29 1 29 30
M  V30 30 1 30 6
M  V30 31 1 28 10
M  V30 32 1 26 18
M  V30 33 1 25 21
M  V30 34 1 1 31
M  V30 35 1 1 32
M  V30 36 1 1 33
M  V30 37 1 3 34
M  V30 38 1 3 35
M  V30 39 1 4 36
M  V30 40 1 5 37
M  V30 41 1 5 38
M  V30 42 1 5 39
M  V30 43 1 7 40
M  V30 44 1 9 41
M  V30 45 1 11 42
M  V30 46 1 12 43
M  V30 47 1 16 44
M  V30 48 1 16 45
M  V30 49 1 16 46
M  V30 50 1 17 47
M  V30 51 1 17 48
M  V30 52 1 19 49
M  V30 53 1 20 50
M  V30 54 1 22 51
M  V30 55 1 23 52
M  V30 56 1 30 53
M  V30 END BOND
M  V30 END CTAB
M  END
>  <Dataset>  (320) 
ChEMBL_Kinases

>  <Ligand_Instance>  (320) 
nan

>  <PDB_ID>  (320) 
nan

>  <Standardized_SMILES>  (320) 
COCC(C)c1cc(Nc2ccnc(N(C)Cc3ccc4[nH]cnc4c3Cl)n2)n[nH]1

>  <Name>  (320) 
nan

>  <Pocket>  (320) 
nan

>  <ATP_Site>  (320) 
nan

>  <Peripheral>  (320) 
nan

>  <Num_H_Atoms_ProtBoundConf>  (320) 
nan

>  <Num_Resolved_Atoms>  (320) 
nan

>  <Num_Not_Resolved_Atoms>  (320) 
nan

$$$$
CHEMBL3593824
     RDKit          3D

  0  0  0  0  0  0  0  0  0  0999 V3000
M  V30 BEGIN CTAB
M  V30 COUNTS 52 56 0 0 0
M  V30 BEGIN ATOM
M  V30 1 C 2.676946 1.382825 3.863703 0
M  V30 2 N 1.839823 0.796957 2.818872 0
M  V30 3 C 2.501598 0.571095 1.575100 0
M  V30 4 C 3.050349 1.752916 0.908327 0
M  V30 5 C 4.411540 2.031366 0.973221 0
M  V30 6 C 4.969870 3.154384 0.350940 0
M  V30 7 C 4.163481 4.023776 -0.352834 0
M  V30 8 N 4.464882 5.145237 -1.023087 0
M  V30 9 C 3.307222 5.599399 -1.523869 0
M  V30 10 N 2.291623 4.793614 -1.185959 0
M  V30 11 C 2.789181 3.789539 -0.447939 0
M  V30 12 C 2.315779 2.665991 0.189484 0
M  V30 13 Cl 0.587343 2.433566 0.022275 0
M  V30 14 C 0.480063 0.506681 3.178214 0
M  V30 15 N 0.160245 0.652747 4.501758 0
M  V30 16 C -1.151823 0.362503 4.753864 0
M  V30 17 C -2.088194 -0.029956 3.844995 0
M  V30 18 C -1.710551 -0.161788 2.512322 0
M  V30 19 N -2.456485 -0.530971 1.382045 0
M  V30 20 C -2.667021 -1.697710 0.628504 0
M  V30 21 C -2.180276 -2.973299 0.724863 0
M  V30 22 C -2.782662 -3.611230 -0.332908 0
M  V30 23 C -2.633223 -5.033808 -0.749832 0
M  V30 24 C -3.948758 -5.696379 -0.989601 0
M  V30 25 C -3.531622 -6.823444 -1.939810 0
M  V30 26 C -2.592890 -6.102467 -2.848024 0
M  V30 27 O -2.270034 -6.145536 -4.021334 0
M  V30 28 C -1.885944 -5.066902 -2.074483 0
M  V30 29 N -3.579256 -2.783974 -1.022847 0
M  V30 30 N -3.502805 -1.623481 -0.432042 0
M  V30 31 N -0.416723 0.124534 2.270711 0
M  V30 32 H 2.656732 0.677431 4.714919 0
M  V30 33 H 3.692828 1.613148 3.545878 0
M  V30 34 H 2.123732 2.289391 4.215021 0
M  V30 35 H 3.365836 -0.143608 1.736367 0
M  V30 36 H 1.805676 0.012456 0.884417 0
M  V30 37 H 5.059104 1.354109 1.524546 0
M  V30 38 H 6.047480 3.351655 0.415935 0
M  V30 39 H 5.369220 5.641308 -1.182702 0
M  V30 40 H 3.031009 6.465857 -2.134566 0
M  V30 41 H -1.519909 0.447903 5.791030 0
M  V30 42 H -3.119390 -0.257372 4.030044 0
M  V30 43 H -2.871942 0.401882 1.221054 0
M  V30 44 H -1.495425 -3.333981 1.469194 0
M  V30 45 H -2.043137 -5.644545 -0.053563 0
M  V30 46 H -4.386212 -6.127209 -0.076002 0
M  V30 47 H -4.624204 -5.003028 -1.514728 0
M  V30 48 H -3.007175 -7.602761 -1.360157 0
M  V30 49 H -4.436292 -7.167562 -2.460616 0
M  V30 50 H -1.896789 -4.062384 -2.549713 0
M  V30 51 H -0.829721 -5.354934 -1.921687 0
M  V30 52 H -4.168759 -2.960482 -1.865610 0
M  V30 END ATOM
M  V30 BEGIN BOND
M  V30 1 1 1 2
M  V30 2 1 2 3
M  V30 3 1 3 4
M  V30 4 2 4 5
M  V30 5 1 5 6
M  V30 6 2 6 7
M  V30 7 1 7 8
M  V30 8 1 8 9
M  V30 9 2 9 10
M  V30 10 1 10 11
M  V30 11 2 11 12
M  V30 12 1 12 13
M  V30 13 1 2 14
M  V30 14 2 14 15
M  V30 15 1 15 16
M  V30 16 2 16 17
M  V30 17 1 17 18
M  V30 18 1 18 19
M  V30 19 1 19 20
M  V30 20 1 20 21
M  V30 21 2 21 22
M  V30 22 1 22 23
M  V30 23 1 23 24
M  V30 24 1 24 25
M  V30 25 1 25 26
M  V30 26 2 26 27
M  V30 27 1 26 28
M  V30 28 1 22 29
M  V30 29 1 29 30
M  V30 30 2 18 31
M  V30 31 1 12 4
M  V30 32 1 31 14
M  V30 33 1 11 7
M  V30 34 2 30 20
M  V30 35 1 28 23
M  V30 36 1 1 32
M  V30 37 1 1 33
M  V30 38 1 1 34
M  V30 39 1 3 35
M  V30 40 1 3 36
M  V30 41 1 5 37
M  V30 42 1 6 38
M  V30 43 1 8 39
M  V30 44 1 9 40
M  V30 45 1 16 41
M  V30 46 1 17 42
M  V30 47 1 19 43
M  V30 48 1 21 44
M  V30 49 1 23 45
M  V30 50 1 24 46
M  V30 51 1 24 47
M  V30 52 1 25 48
M  V30 53 1 25 49
M  V30 54 1 28 50
M  V30 55 1 28 51
M  V30 56 1 29 52
M  V30 END BOND
M  V30 END CTAB
M  END
>  <Dataset>  (321) 
ChEMBL_Kinases

>  <Ligand_Instance>  (321) 
nan

>  <PDB_ID>  (321) 
nan

>  <Standardized_SMILES>  (321) 
CN(Cc1ccc2[nH]cnc2c1Cl)c1nccc(Nc2cc(C3CCC(=O)C3)[nH]n2)n1

>  <Name>  (321) 
nan

>  <Pocket>  (321) 
nan

>  <ATP_Site>  (321) 
nan

>  <Peripheral>  (321) 
nan

>  <Num_H_Atoms_ProtBoundConf>  (321) 
nan

>  <Num_Resolved_Atoms>  (321) 
nan

>  <Num_Not_Resolved_Atoms>  (321) 
nan

$$$$
CHEMBL3593823
     RDKit          3D

  0  0  0  0  0  0  0  0  0  0999 V3000
M  V30 BEGIN CTAB
M  V30 COUNTS 48 52 0 0 0
M  V30 BEGIN ATOM
M  V30 1 Cl -1.255676 -2.340766 2.697970 0
M  V30 2 C -1.329424 -3.360911 1.258522 0
M  V30 3 C -0.421558 -3.362606 0.185465 0
M  V30 4 C 0.631366 -2.390877 0.512903 0
M  V30 5 N 1.630536 -2.163791 -0.495624 0
M  V30 6 C 1.516194 -1.413331 -1.693900 0
M  V30 7 N 1.248978 -1.491147 -3.001916 0
M  V30 8 C 1.283979 -0.363578 -3.777740 0
M  V30 9 C 1.596277 0.860139 -3.208795 0
M  V30 10 C 1.871288 0.954410 -1.863244 0
M  V30 11 N 2.184896 2.285309 -1.430388 0
M  V30 12 C 1.607609 2.757587 -0.217207 0
M  V30 13 C 0.709933 2.093278 0.604906 0
M  V30 14 C 0.349532 2.878626 1.703081 0
M  V30 15 C -0.611771 2.370151 2.700534 0
M  V30 16 C -0.303142 2.969838 4.079942 0
M  V30 17 C 1.118307 2.409260 4.235790 0
M  V30 18 C 0.981133 1.064563 3.558940 0
M  V30 19 O -0.278470 1.027262 2.982190 0
M  V30 20 N 1.050948 4.004023 1.508055 0
M  V30 21 N 1.775471 3.939924 0.407319 0
M  V30 22 N 1.813452 -0.205289 -1.181366 0
M  V30 23 C -0.687431 -4.246961 -0.851831 0
M  V30 24 C -1.787294 -5.069501 -0.807510 0
M  V30 25 C -2.670622 -5.065193 0.245451 0
M  V30 26 N -3.772195 -5.811006 0.435945 0
M  V30 27 C -4.257732 -5.416293 1.625082 0
M  V30 28 N -3.467100 -4.456352 2.138945 0
M  V30 29 C -2.440427 -4.193054 1.302641 0
M  V30 30 H 0.129756 -1.402236 0.756197 0
M  V30 31 H 1.131184 -2.713238 1.471764 0
M  V30 32 H 2.596257 -2.590895 -0.362254 0
M  V30 33 H 1.044205 -0.588996 -4.805124 0
M  V30 34 H 1.606338 1.703496 -3.880099 0
M  V30 35 H 2.814513 2.875450 -1.985912 0
M  V30 36 H 0.363747 1.080601 0.366654 0
M  V30 37 H -1.654726 2.457555 2.417626 0
M  V30 38 H -0.334967 4.061125 4.078143 0
M  V30 39 H -0.963191 2.493236 4.809812 0
M  V30 40 H 1.421713 2.348461 5.279155 0
M  V30 41 H 1.773381 3.050126 3.612462 0
M  V30 42 H 1.804283 0.879494 2.849440 0
M  V30 43 H 1.077701 0.275941 4.339786 0
M  V30 44 H 0.967288 4.798850 2.202245 0
M  V30 45 H 0.095946 -4.125712 -1.592574 0
M  V30 46 H -1.875261 -5.707777 -1.682804 0
M  V30 47 H -4.202411 -6.544417 -0.165150 0
M  V30 48 H -5.138790 -5.781991 2.131201 0
M  V30 END ATOM
M  V30 BEGIN BOND
M  V30 1 1 1 2
M  V30 2 2 2 3
M  V30 3 1 3 4
M  V30 4 1 4 5
M  V30 5 1 5 6
M  V30 6 2 6 7
M  V30 7 1 7 8
M  V30 8 2 8 9
M  V30 9 1 9 10
M  V30 10 1 10 11
M  V30 11 1 11 12
M  V30 12 1 12 13
M  V30 13 2 13 14
M  V30 14 1 14 15
M  V30 15 1 15 16
M  V30 16 1 16 17
M  V30 17 1 17 18
M  V30 18 1 18 19
M  V30 19 1 14 20
M  V30 20 1 20 21
M  V30 21 2 10 22
M  V30 22 1 3 23
M  V30 23 2 23 24
M  V30 24 1 24 25
M  V30 25 1 25 26
M  V30 26 1 26 27
M  V30 27 2 27 28
M  V30 28 1 28 29
M  V30 29 1 29 2
M  V30 30 1 22 6
M  V30 31 2 29 25
M  V30 32 2 21 12
M  V30 33 1 19 15
M  V30 34 1 4 30
M  V30 35 1 4 31
M  V30 36 1 5 32
M  V30 37 1 8 33
M  V30 38 1 9 34
M  V30 39 1 11 35
M  V30 40 1 13 36
M  V30 41 1 15 37
M  V30 42 1 16 38
M  V30 43 1 16 39
M  V30 44 1 17 40
M  V30 45 1 17 41
M  V30 46 1 18 42
M  V30 47 1 18 43
M  V30 48 1 20 44
M  V30 49 1 23 45
M  V30 50 1 24 46
M  V30 51 1 26 47
M  V30 52 1 27 48
M  V30 END BOND
M  V30 END CTAB
M  END
>  <Dataset>  (322) 
ChEMBL_Kinases

>  <Ligand_Instance>  (322) 
nan

>  <PDB_ID>  (322) 
nan

>  <Standardized_SMILES>  (322) 
Clc1c(CNc2nccc(Nc3cc(C4CCCO4)[nH]n3)n2)ccc2[nH]cnc12

>  <Name>  (322) 
nan

>  <Pocket>  (322) 
nan

>  <ATP_Site>  (322) 
nan

>  <Peripheral>  (322) 
nan

>  <Num_H_Atoms_ProtBoundConf>  (322) 
nan

>  <Num_Resolved_Atoms>  (322) 
nan

>  <Num_Not_Resolved_Atoms>  (322) 
nan

$$$$
CHEMBL4853125
     RDKit          3D

  0  0  0  0  0  0  0  0  0  0999 V3000
M  V30 BEGIN CTAB
M  V30 COUNTS 55 57 0 0 0
M  V30 BEGIN ATOM
M  V30 1 C 1.394848 -6.180348 -0.661277 0
M  V30 2 O 1.152807 -5.577358 -1.900741 0
M  V30 3 C 1.510152 -4.255651 -1.763850 0 CFG=1
M  V30 4 C 2.627384 -3.852978 -2.696992 0
M  V30 5 C 2.698888 -2.377695 -2.928969 0
M  V30 6 C 2.022938 -1.535985 -1.911905 0 CFG=2
M  V30 7 N 2.880201 -1.165407 -0.784836 0
M  V30 8 C 2.422515 -0.364713 0.292935 0
M  V30 9 N 3.173055 -0.009764 1.331265 0
M  V30 10 C 2.750335 0.737836 2.339861 0
M  V30 11 C 1.440356 1.127996 2.225535 0
M  V30 12 C 0.938652 1.963349 3.298947 0
M  V30 13 N 1.790768 2.302891 4.402696 0
M  V30 14 O 0.082317 2.640806 3.885776 0
M  V30 15 C 0.584184 0.816229 1.198798 0
M  V30 16 N -0.757036 1.180119 1.053391 0
M  V30 17 C -1.926893 1.833066 1.534947 0 CFG=2
M  V30 18 C -2.476450 1.169939 2.781329 0
M  V30 19 C -3.585222 0.196346 2.510212 0
M  V30 20 C -4.724788 0.806885 1.762211 0
M  V30 21 C -4.327777 2.175820 1.236926 0 CFG=1
M  V30 22 O -4.268060 3.049665 2.313115 0
M  V30 23 C -3.010223 2.064470 0.514413 0
M  V30 24 N 1.162296 0.053360 0.255348 0
M  V30 25 C 0.716572 -2.017828 -1.398157 0
M  V30 26 C 0.338279 -3.333437 -2.085423 0
M  V30 27 H 1.136757 -7.255411 -0.667877 0
M  V30 28 H 2.499948 -6.046280 -0.477419 0
M  V30 29 H 0.890287 -5.664663 0.171560 0
M  V30 30 H 1.870197 -4.101341 -0.724805 0
M  V30 31 H 2.409281 -4.339479 -3.678149 0
M  V30 32 H 3.586893 -4.303210 -2.361290 0
M  V30 33 H 3.789234 -2.099624 -2.920183 0
M  V30 34 H 2.345648 -2.101241 -3.952957 0
M  V30 35 H 1.815138 -0.543588 -2.411943 0
M  V30 36 H 3.870361 -1.480629 -0.733176 0
M  V30 37 H 3.382486 1.002770 3.157180 0
M  V30 38 H 1.950226 1.821462 5.332350 0
M  V30 39 H 2.454391 3.106550 4.525559 0
M  V30 40 H -1.167740 0.805221 0.159408 0
M  V30 41 H -1.641545 2.876092 1.874454 0
M  V30 42 H -1.625346 0.562813 3.183838 0
M  V30 43 H -2.717470 1.880269 3.589271 0
M  V30 44 H -3.186537 -0.700243 1.993352 0
M  V30 45 H -3.975728 -0.118552 3.496035 0
M  V30 46 H -5.648518 0.948609 2.362616 0
M  V30 47 H -5.005443 0.125785 0.926854 0
M  V30 48 H -5.140280 2.503066 0.533409 0
M  V30 49 H -4.993542 2.856859 2.960312 0
M  V30 50 H -2.864536 3.033113 -0.012336 0
M  V30 51 H -3.084206 1.253586 -0.229397 0
M  V30 52 H 0.784167 -2.268023 -0.317097 0
M  V30 53 H -0.138491 -1.341583 -1.575376 0
M  V30 54 H -0.623300 -3.700305 -1.733487 0
M  V30 55 H 0.362653 -3.100573 -3.169012 0
M  V30 END ATOM
M  V30 BEGIN BOND
M  V30 1 1 1 2
M  V30 2 1 2 3
M  V30 3 1 3 4
M  V30 4 1 4 5
M  V30 5 1 5 6
M  V30 6 1 6 7
M  V30 7 1 7 8
M  V30 8 2 8 9
M  V30 9 1 9 10
M  V30 10 2 10 11
M  V30 11 1 11 12
M  V30 12 1 12 13
M  V30 13 2 12 14
M  V30 14 1 11 15
M  V30 15 1 15 16
M  V30 16 1 16 17
M  V30 17 1 17 18
M  V30 18 1 18 19
M  V30 19 1 19 20
M  V30 20 1 20 21
M  V30 21 1 21 22
M  V30 22 1 21 23
M  V30 23 2 15 24
M  V30 24 1 6 25
M  V30 25 1 25 26
M  V30 26 1 26 3
M  V30 27 1 24 8
M  V30 28 1 23 17
M  V30 29 1 1 27
M  V30 30 1 1 28
M  V30 31 1 1 29
M  V30 32 1 3 30 CFG=1
M  V30 33 1 4 31
M  V30 34 1 4 32
M  V30 35 1 5 33
M  V30 36 1 5 34
M  V30 37 1 6 35 CFG=3
M  V30 38 1 7 36
M  V30 39 1 10 37
M  V30 40 1 13 38
M  V30 41 1 13 39
M  V30 42 1 16 40
M  V30 43 1 17 41 CFG=1
M  V30 44 1 18 42
M  V30 45 1 18 43
M  V30 46 1 19 44
M  V30 47 1 19 45
M  V30 48 1 20 46
M  V30 49 1 20 47
M  V30 50 1 21 48 CFG=3
M  V30 51 1 22 49
M  V30 52 1 23 50
M  V30 53 1 23 51
M  V30 54 1 25 52
M  V30 55 1 25 53
M  V30 56 1 26 54
M  V30 57 1 26 55
M  V30 END BOND
M  V30 END CTAB
M  END
>  <Dataset>  (323) 
ChEMBL_Kinases

>  <Ligand_Instance>  (323) 
nan

>  <PDB_ID>  (323) 
nan

>  <Standardized_SMILES>  (323) 
CO[C@H]1CC[C@H](Nc2ncc(C(N)=O)c(N[C@@H]3CCC[C@@H](O)C3)n2)CC1

>  <Name>  (323) 
nan

>  <Pocket>  (323) 
nan

>  <ATP_Site>  (323) 
nan

>  <Peripheral>  (323) 
nan

>  <Num_H_Atoms_ProtBoundConf>  (323) 
nan

>  <Num_Resolved_Atoms>  (323) 
nan

>  <Num_Not_Resolved_Atoms>  (323) 
nan

$$$$
CHEMBL4082805
     RDKit          3D

  0  0  0  0  0  0  0  0  0  0999 V3000
M  V30 BEGIN CTAB
M  V30 COUNTS 51 54 0 0 0
M  V30 BEGIN ATOM
M  V30 1 O 3.113598 1.169818 -0.098883 0
M  V30 2 C 2.840183 0.016685 0.265289 0
M  V30 3 N 3.569651 -1.148353 -0.072217 0
M  V30 4 C 4.752896 -1.115039 -0.905417 0
M  V30 5 C 5.881451 -0.624044 -0.063957 0
M  V30 6 C 6.348055 0.653463 0.126119 0
M  V30 7 C 7.417763 0.863318 0.968081 0
M  V30 8 C 8.050187 -0.172143 1.639158 0
M  V30 9 C 7.599089 -1.472943 1.465195 0
M  V30 10 C 6.519198 -1.660519 0.611401 0
M  V30 11 N 1.723778 -0.261260 1.089840 0
M  V30 12 C 0.720040 0.561607 1.667890 0
M  V30 13 C 0.897424 1.118174 2.917150 0
M  V30 14 C -0.086029 1.911574 3.464493 0
M  V30 15 C -1.241661 2.145105 2.761368 0
M  V30 16 C -1.472374 1.611145 1.502515 0
M  V30 17 N -2.684237 1.900982 0.827634 0
M  V30 18 C -3.183268 1.463129 -0.458703 0
M  V30 19 C -3.455161 -0.002729 -0.496108 0
M  V30 20 N -4.693642 -0.362549 -0.053142 0
M  V30 21 C -4.807668 -1.683682 -0.148044 0
M  V30 22 C -5.777716 -2.749771 0.115567 0
M  V30 23 C -6.056876 -3.276759 1.359028 0
M  V30 24 C -6.991259 -4.278326 1.487610 0
M  V30 25 N -7.656819 -4.776338 0.439275 0
M  V30 26 C -7.421929 -4.297385 -0.794396 0
M  V30 27 C -6.485895 -3.291708 -0.935289 0
M  V30 28 N -3.640744 -2.142343 -0.649739 0
M  V30 29 N -2.819894 -1.130497 -0.862040 0
M  V30 30 C -0.462968 0.838269 1.020396 0
M  V30 31 H 3.321547 -2.132741 0.248883 0
M  V30 32 H 4.560438 -0.370285 -1.725170 0
M  V30 33 H 4.989682 -2.072117 -1.376780 0
M  V30 34 H 5.816436 1.391047 -0.421997 0
M  V30 35 H 7.765883 1.873401 1.101436 0
M  V30 36 H 8.897571 0.010721 2.303492 0
M  V30 37 H 8.097316 -2.251904 1.988516 0
M  V30 38 H 6.241697 -2.716679 0.542299 0
M  V30 39 H 1.397514 -1.178588 1.457289 0
M  V30 40 H 1.776472 0.968995 3.507239 0
M  V30 41 H 0.025132 2.357744 4.434943 0
M  V30 42 H -2.010007 2.783325 3.225647 0
M  V30 43 H -3.355999 2.537440 1.317243 0
M  V30 44 H -4.031499 2.043588 -0.811067 0
M  V30 45 H -2.349588 1.657724 -1.199533 0
M  V30 46 H -5.501684 -2.854947 2.199858 0
M  V30 47 H -7.187799 -4.672485 2.483587 0
M  V30 48 H -7.974106 -4.720961 -1.612079 0
M  V30 49 H -6.316641 -2.921084 -1.954951 0
M  V30 50 H -1.855155 -1.061580 -1.234986 0
M  V30 51 H -0.554680 0.395793 0.060718 0
M  V30 END ATOM
M  V30 BEGIN BOND
M  V30 1 2 1 2
M  V30 2 1 2 3
M  V30 3 1 3 4
M  V30 4 1 4 5
M  V30 5 2 5 6
M  V30 6 1 6 7
M  V30 7 2 7 8
M  V30 8 1 8 9
M  V30 9 2 9 10
M  V30 10 1 2 11
M  V30 11 1 11 12
M  V30 12 2 12 13
M  V30 13 1 13 14
M  V30 14 2 14 15
M  V30 15 1 15 16
M  V30 16 1 16 17
M  V30 17 1 17 18
M  V30 18 1 18 19
M  V30 19 2 19 20
M  V30 20 1 20 21
M  V30 21 1 21 22
M  V30 22 2 22 23
M  V30 23 1 23 24
M  V30 24 2 24 25
M  V30 25 1 25 26
M  V30 26 2 26 27
M  V30 27 2 21 28
M  V30 28 1 28 29
M  V30 29 2 16 30
M  V30 30 1 10 5
M  V30 31 1 30 12
M  V30 32 1 29 19
M  V30 33 1 27 22
M  V30 34 1 3 31
M  V30 35 1 4 32
M  V30 36 1 4 33
M  V30 37 1 6 34
M  V30 38 1 7 35
M  V30 39 1 8 36
M  V30 40 1 9 37
M  V30 41 1 10 38
M  V30 42 1 11 39
M  V30 43 1 13 40
M  V30 44 1 14 41
M  V30 45 1 15 42
M  V30 46 1 17 43
M  V30 47 1 18 44
M  V30 48 1 18 45
M  V30 49 1 23 46
M  V30 50 1 24 47
M  V30 51 1 26 48
M  V30 52 1 27 49
M  V30 53 1 29 50
M  V30 54 1 30 51
M  V30 END BOND
M  V30 END CTAB
M  END
>  <Dataset>  (324) 
ChEMBL_Kinases

>  <Ligand_Instance>  (324) 
nan

>  <PDB_ID>  (324) 
nan

>  <Standardized_SMILES>  (324) 
O=C(NCc1ccccc1)Nc1cccc(NCc2nc(-c3ccncc3)n[nH]2)c1

>  <Name>  (324) 
nan

>  <Pocket>  (324) 
nan

>  <ATP_Site>  (324) 
nan

>  <Peripheral>  (324) 
nan

>  <Num_H_Atoms_ProtBoundConf>  (324) 
nan

>  <Num_Resolved_Atoms>  (324) 
nan

>  <Num_Not_Resolved_Atoms>  (324) 
nan

$$$$
CHEMBL4082853
     RDKit          3D

  0  0  0  0  0  0  0  0  0  0999 V3000
M  V30 BEGIN CTAB
M  V30 COUNTS 53 56 0 0 0
M  V30 BEGIN ATOM
M  V30 1 C -0.565770 -3.202078 7.286673 0
M  V30 2 O 0.786810 -2.878063 7.023802 0
M  V30 3 C 1.317409 -2.769521 5.757575 0
M  V30 4 C 2.614079 -2.460104 5.427008 0
M  V30 5 C 3.049726 -2.375027 4.125490 0
M  V30 6 C 2.189384 -2.600678 3.062776 0
M  V30 7 C 2.753429 -2.490944 1.693897 0
M  V30 8 N 2.636801 -1.106700 1.282458 0
M  V30 9 C 1.487128 -0.412379 0.836001 0
M  V30 10 O 0.410480 -1.072647 0.781554 0
M  V30 11 C 1.497696 0.992512 0.448593 0
M  V30 12 C 2.589790 1.817415 0.455104 0
M  V30 13 C 2.486709 3.130663 0.069887 0
M  V30 14 C 1.291627 3.672485 -0.336730 0
M  V30 15 C 0.136766 2.883004 -0.366646 0
M  V30 16 N -1.124767 3.388904 -0.768967 0
M  V30 17 C -2.419200 2.807085 -0.904864 0
M  V30 18 C -2.528670 1.755380 -1.938995 0
M  V30 19 N -2.801699 2.153850 -3.219260 0
M  V30 20 N -2.871714 1.110496 -3.994030 0
M  V30 21 C -2.653047 -0.003451 -3.278340 0
M  V30 22 C -2.631060 -1.391127 -3.705770 0
M  V30 23 C -2.377663 -2.359547 -2.757773 0
M  V30 24 C -2.340821 -3.711748 -3.092445 0
M  V30 25 N -2.560066 -4.054875 -4.373217 0
M  V30 26 C -2.804364 -3.091647 -5.275754 0
M  V30 27 C -2.856764 -1.737779 -5.021845 0
M  V30 28 N -2.448872 0.436489 -2.032314 0
M  V30 29 C 0.319612 1.578220 0.033602 0
M  V30 30 C 0.894546 -2.909522 3.412498 0
M  V30 31 C 0.453442 -2.995914 4.704263 0
M  V30 32 H -0.872153 -4.166801 6.840238 0
M  V30 33 H -1.253336 -2.427477 6.909746 0
M  V30 34 H -0.688161 -3.313011 8.383076 0
M  V30 35 H 3.277956 -2.285622 6.274973 0
M  V30 36 H 4.098751 -2.123487 3.932626 0
M  V30 37 H 2.179539 -3.145353 0.997077 0
M  V30 38 H 3.820837 -2.760186 1.732300 0
M  V30 39 H 3.504836 -0.503741 1.306096 0
M  V30 40 H 3.531430 1.433753 0.763420 0
M  V30 41 H 3.341557 3.809032 0.065971 0
M  V30 42 H 1.215764 4.701751 -0.637580 0
M  V30 43 H -1.091703 4.423761 -1.023446 0
M  V30 44 H -3.205324 3.553481 -1.044747 0
M  V30 45 H -2.633786 2.320077 0.101502 0
M  V30 46 H -2.192454 -2.166110 -1.713412 0
M  V30 47 H -2.145811 -4.511118 -2.384126 0
M  V30 48 H -2.970700 -3.440498 -6.281809 0
M  V30 49 H -3.056635 -1.003805 -5.781180 0
M  V30 50 H -2.253311 -0.133895 -1.200006 0
M  V30 51 H -0.568227 0.962637 0.018837 0
M  V30 52 H 0.210100 -3.092863 2.597546 0
M  V30 53 H -0.594057 -3.247256 4.876269 0
M  V30 END ATOM
M  V30 BEGIN BOND
M  V30 1 1 1 2
M  V30 2 1 2 3
M  V30 3 2 3 4
M  V30 4 1 4 5
M  V30 5 2 5 6
M  V30 6 1 6 7
M  V30 7 1 7 8
M  V30 8 1 8 9
M  V30 9 2 9 10
M  V30 10 1 9 11
M  V30 11 2 11 12
M  V30 12 1 12 13
M  V30 13 2 13 14
M  V30 14 1 14 15
M  V30 15 1 15 16
M  V30 16 1 16 17
M  V30 17 1 17 18
M  V30 18 2 18 19
M  V30 19 1 19 20
M  V30 20 2 20 21
M  V30 21 1 21 22
M  V30 22 2 22 23
M  V30 23 1 23 24
M  V30 24 2 24 25
M  V30 25 1 25 26
M  V30 26 2 26 27
M  V30 27 1 21 28
M  V30 28 2 15 29
M  V30 29 1 6 30
M  V30 30 2 30 31
M  V30 31 1 31 3
M  V30 32 1 29 11
M  V30 33 1 28 18
M  V30 34 1 27 22
M  V30 35 1 1 32
M  V30 36 1 1 33
M  V30 37 1 1 34
M  V30 38 1 4 35
M  V30 39 1 5 36
M  V30 40 1 7 37
M  V30 41 1 7 38
M  V30 42 1 8 39
M  V30 43 1 12 40
M  V30 44 1 13 41
M  V30 45 1 14 42
M  V30 46 1 16 43
M  V30 47 1 17 44
M  V30 48 1 17 45
M  V30 49 1 23 46
M  V30 50 1 24 47
M  V30 51 1 26 48
M  V30 52 1 27 49
M  V30 53 1 28 50
M  V30 54 1 29 51
M  V30 55 1 30 52
M  V30 56 1 31 53
M  V30 END BOND
M  V30 END CTAB
M  END
>  <Dataset>  (325) 
ChEMBL_Kinases

>  <Ligand_Instance>  (325) 
nan

>  <PDB_ID>  (325) 
nan

>  <Standardized_SMILES>  (325) 
COc1ccc(CNC(=O)c2cccc(NCc3nnc(-c4ccncc4)[nH]3)c2)cc1

>  <Name>  (325) 
nan

>  <Pocket>  (325) 
nan

>  <ATP_Site>  (325) 
nan

>  <Peripheral>  (325) 
nan

>  <Num_H_Atoms_ProtBoundConf>  (325) 
nan

>  <Num_Resolved_Atoms>  (325) 
nan

>  <Num_Not_Resolved_Atoms>  (325) 
nan

$$$$
CHEMBL4852680
     RDKit          3D

  0  0  0  0  0  0  0  0  0  0999 V3000
M  V30 BEGIN CTAB
M  V30 COUNTS 55 57 0 0 0
M  V30 BEGIN ATOM
M  V30 1 C 1.782366 -6.585915 0.864640 0
M  V30 2 O 0.822369 -6.155716 -0.058284 0
M  V30 3 C 1.046369 -4.800139 -0.285265 0 CFG=1
M  V30 4 C 1.400366 -4.500053 -1.705950 0
M  V30 5 C 0.766927 -3.287501 -2.290657 0
M  V30 6 C 0.584888 -2.128313 -1.376404 0 CFG=2
M  V30 7 N 1.724434 -1.201658 -1.374766 0
M  V30 8 C 1.822150 -0.004085 -0.595232 0
M  V30 9 N 2.911805 0.759217 -0.678459 0
M  V30 10 C 3.009487 1.882284 0.048545 0
M  V30 11 C 1.948279 2.196796 0.866290 0
M  V30 12 C 2.099116 3.411630 1.627029 0
M  V30 13 N 3.222814 4.268301 1.590058 0
M  V30 14 O 1.543523 4.154013 2.457014 0
M  V30 15 C 0.805730 1.438278 0.982694 0
M  V30 16 N -0.280680 1.777966 1.833298 0
M  V30 17 C -1.486224 0.989653 1.962428 0 CFG=1
M  V30 18 C -2.457284 1.595595 2.947684 0
M  V30 19 C -3.488000 2.489573 2.294229 0
M  V30 20 C -4.297255 1.742934 1.256272 0
M  V30 21 C -3.565529 0.493731 0.786488 0 CFG=1
M  V30 22 O -4.154763 0.034113 -0.384562 0
M  V30 23 C -2.112396 0.910703 0.566927 0
M  V30 24 N 0.803562 0.334286 0.215064 0
M  V30 25 C 0.310706 -2.515049 0.054629 0
M  V30 26 C -0.166250 -3.970975 0.075449 0
M  V30 27 H 1.675547 -7.665171 1.104208 0
M  V30 28 H 2.779930 -6.417555 0.396664 0
M  V30 29 H 1.777845 -5.959666 1.793695 0
M  V30 30 H 1.928248 -4.510262 0.354598 0
M  V30 31 H 1.002309 -5.372499 -2.303167 0
M  V30 32 H 2.513374 -4.550533 -1.886309 0
M  V30 33 H -0.189079 -3.504215 -2.821816 0
M  V30 34 H 1.458733 -2.938075 -3.110973 0
M  V30 35 H -0.284189 -1.534378 -1.729132 0
M  V30 36 H 2.511165 -1.473352 -2.008900 0
M  V30 37 H 3.891423 2.488116 -0.027074 0
M  V30 38 H 3.407422 5.081772 0.937156 0
M  V30 39 H 4.102796 4.290861 2.184282 0
M  V30 40 H -0.223613 2.642088 2.405339 0
M  V30 41 H -1.232404 -0.049605 2.247857 0
M  V30 42 H -1.917916 2.227795 3.676568 0
M  V30 43 H -2.997003 0.794502 3.478119 0
M  V30 44 H -2.995988 3.396796 1.895368 0
M  V30 45 H -4.188838 2.793609 3.097124 0
M  V30 46 H -5.297865 1.493963 1.615080 0
M  V30 47 H -4.395907 2.411446 0.374830 0
M  V30 48 H -3.621483 -0.242993 1.590253 0
M  V30 49 H -4.047390 -0.968385 -0.412511 0
M  V30 50 H -1.552881 0.141077 0.018004 0
M  V30 51 H -2.071137 1.887549 0.063595 0
M  V30 52 H 1.279573 -2.513676 0.619165 0
M  V30 53 H -0.474261 -1.936620 0.545019 0
M  V30 54 H -0.579770 -4.240058 1.067536 0
M  V30 55 H -0.910070 -4.043132 -0.736492 0
M  V30 END ATOM
M  V30 BEGIN BOND
M  V30 1 1 1 2
M  V30 2 1 2 3
M  V30 3 1 3 4
M  V30 4 1 4 5
M  V30 5 1 5 6
M  V30 6 1 6 7
M  V30 7 1 7 8
M  V30 8 2 8 9
M  V30 9 1 9 10
M  V30 10 2 10 11
M  V30 11 1 11 12
M  V30 12 1 12 13
M  V30 13 2 12 14
M  V30 14 1 11 15
M  V30 15 1 15 16
M  V30 16 1 16 17
M  V30 17 1 17 18
M  V30 18 1 18 19
M  V30 19 1 19 20
M  V30 20 1 20 21
M  V30 21 1 21 22
M  V30 22 1 21 23
M  V30 23 2 15 24
M  V30 24 1 6 25
M  V30 25 1 25 26
M  V30 26 1 26 3
M  V30 27 1 24 8
M  V30 28 1 23 17
M  V30 29 1 1 27
M  V30 30 1 1 28
M  V30 31 1 1 29
M  V30 32 1 3 30 CFG=1
M  V30 33 1 4 31
M  V30 34 1 4 32
M  V30 35 1 5 33
M  V30 36 1 5 34
M  V30 37 1 6 35 CFG=3
M  V30 38 1 7 36
M  V30 39 1 10 37
M  V30 40 1 13 38
M  V30 41 1 13 39
M  V30 42 1 16 40
M  V30 43 1 17 41 CFG=1
M  V30 44 1 18 42
M  V30 45 1 18 43
M  V30 46 1 19 44
M  V30 47 1 19 45
M  V30 48 1 20 46
M  V30 49 1 20 47
M  V30 50 1 21 48 CFG=1
M  V30 51 1 22 49
M  V30 52 1 23 50
M  V30 53 1 23 51
M  V30 54 1 25 52
M  V30 55 1 25 53
M  V30 56 1 26 54
M  V30 57 1 26 55
M  V30 END BOND
M  V30 END CTAB
M  END
>  <Dataset>  (326) 
ChEMBL_Kinases

>  <Ligand_Instance>  (326) 
nan

>  <PDB_ID>  (326) 
nan

>  <Standardized_SMILES>  (326) 
CO[C@H]1CC[C@H](Nc2ncc(C(N)=O)c(N[C@H]3CCC[C@@H](O)C3)n2)CC1

>  <Name>  (326) 
nan

>  <Pocket>  (326) 
nan

>  <ATP_Site>  (326) 
nan

>  <Peripheral>  (326) 
nan

>  <Num_H_Atoms_ProtBoundConf>  (326) 
nan

>  <Num_Resolved_Atoms>  (326) 
nan

>  <Num_Not_Resolved_Atoms>  (326) 
nan

$$$$
CHEMBL3589774
     RDKit          3D

  0  0  0  0  0  0  0  0  0  0999 V3000
M  V30 BEGIN CTAB
M  V30 COUNTS 27 30 0 0 0
M  V30 BEGIN ATOM
M  V30 1 O 1.384191 -3.917446 1.799578 0
M  V30 2 C 0.729131 -2.819093 1.858834 0
M  V30 3 O 0.564514 -3.685180 2.891853 0
M  V30 4 C 0.905100 -1.893231 0.754535 0
M  V30 5 N 1.738243 -2.297129 -0.202052 0
M  V30 6 C 1.995325 -1.531100 -1.288743 0
M  V30 7 C 2.847408 -1.966831 -2.246763 0
M  V30 8 C 2.929973 -0.901839 -3.323200 0
M  V30 9 S 1.783009 0.465886 -2.727632 0
M  V30 10 C 1.337938 -0.350243 -1.300031 0
M  V30 11 C 0.474600 0.069495 -0.309890 0
M  V30 12 N -0.225507 1.194276 -0.204041 0
M  V30 13 C -0.922719 1.128437 0.954931 0
M  V30 14 C -1.801911 2.003341 1.565097 0
M  V30 15 Cl -2.155783 3.523120 0.774794 0
M  V30 16 C -2.407362 1.698632 2.791002 0
M  V30 17 C -2.082715 0.467903 3.371487 0
M  V30 18 C -1.213576 -0.448992 2.814565 0
M  V30 19 C -0.674270 -0.053784 1.612987 0
M  V30 20 C 0.212048 -0.708412 0.795789 0
M  V30 21 H 0.191055 -3.371741 3.802795 0
M  V30 22 H 3.431588 -2.845207 -2.388637 0
M  V30 23 H 3.665125 -1.132291 -4.278672 0
M  V30 24 H -0.235824 1.987319 -0.892142 0
M  V30 25 H -3.096811 2.379495 3.274393 0
M  V30 26 H -2.562460 0.241139 4.329714 0
M  V30 27 H -0.964650 -1.380886 3.247682 0
M  V30 END ATOM
M  V30 BEGIN BOND
M  V30 1 2 1 2
M  V30 2 1 2 3
M  V30 3 1 2 4
M  V30 4 2 4 5
M  V30 5 1 5 6
M  V30 6 1 6 7
M  V30 7 2 7 8
M  V30 8 1 8 9
M  V30 9 1 9 10
M  V30 10 1 10 11
M  V30 11 1 11 12
M  V30 12 1 12 13
M  V30 13 2 13 14
M  V30 14 1 14 15
M  V30 15 1 14 16
M  V30 16 2 16 17
M  V30 17 1 17 18
M  V30 18 2 18 19
M  V30 19 1 19 20
M  V30 20 1 20 4
M  V30 21 2 10 6
M  V30 22 2 20 11
M  V30 23 1 19 13
M  V30 24 1 3 21
M  V30 25 1 7 22
M  V30 26 1 8 23
M  V30 27 1 12 24
M  V30 28 1 16 25
M  V30 29 1 17 26
M  V30 30 1 18 27
M  V30 END BOND
M  V30 END CTAB
M  END
>  <Dataset>  (327) 
ChEMBL_Kinases

>  <Ligand_Instance>  (327) 
nan

>  <PDB_ID>  (327) 
nan

>  <Standardized_SMILES>  (327) 
O=C(O)c1nc2ccsc2c2[nH]c3c(Cl)cccc3c12

>  <Name>  (327) 
nan

>  <Pocket>  (327) 
nan

>  <ATP_Site>  (327) 
nan

>  <Peripheral>  (327) 
nan

>  <Num_H_Atoms_ProtBoundConf>  (327) 
nan

>  <Num_Resolved_Atoms>  (327) 
nan

>  <Num_Not_Resolved_Atoms>  (327) 
nan

$$$$
CHEMBL3589673
     RDKit          3D

  0  0  0  0  0  0  0  0  0  0999 V3000
M  V30 BEGIN CTAB
M  V30 COUNTS 34 37 0 0 0
M  V30 BEGIN ATOM
M  V30 1 C -1.915456 -5.079100 1.075622 0
M  V30 2 O -0.521407 -5.265092 0.871872 0
M  V30 3 C 0.274328 -4.142049 0.695595 0
M  V30 4 C 1.631748 -4.283764 0.495211 0
M  V30 5 C 2.403872 -3.154216 0.322214 0
M  V30 6 C 1.845101 -1.893926 0.346086 0
M  V30 7 N 2.551023 -0.735578 0.181732 0
M  V30 8 C 1.902069 0.435084 0.223732 0
M  V30 9 C 2.760988 1.585994 0.035333 0
M  V30 10 O 4.014051 1.393121 -0.143291 0
M  V30 11 O 3.500035 2.724153 -0.134378 0
M  V30 12 C 0.559651 0.616130 0.420062 0
M  V30 13 C -0.314247 1.675021 0.502733 0
M  V30 14 C -0.088083 3.029197 0.403204 0
M  V30 15 C -1.141644 3.911931 0.522318 0
M  V30 16 C -2.393169 3.371522 0.739984 0
M  V30 17 C -2.638014 2.002278 0.843151 0
M  V30 18 Cl -4.261432 1.411209 1.120247 0
M  V30 19 C -1.574158 1.131878 0.721864 0
M  V30 20 N -1.487808 -0.223084 0.774237 0
M  V30 21 C -0.187829 -0.507538 0.589007 0
M  V30 22 C 0.494033 -1.703402 0.543127 0
M  V30 23 C -0.239145 -2.861756 0.711582 0
M  V30 24 H -2.295976 -4.468997 0.204494 0
M  V30 25 H -2.155855 -4.497543 1.979120 0
M  V30 26 H -2.470871 -6.036468 0.988116 0
M  V30 27 H 2.134506 -5.234413 0.464795 0
M  V30 28 H 3.477860 -3.130791 0.157054 0
M  V30 29 H 3.127224 3.605834 -0.525709 0
M  V30 30 H 0.885204 3.432993 0.235625 0
M  V30 31 H -1.005565 4.983223 0.450114 0
M  V30 32 H -3.269009 4.023560 0.842916 0
M  V30 33 H -2.294996 -0.845192 0.927907 0
M  V30 34 H -1.308635 -2.813705 0.872565 0
M  V30 END ATOM
M  V30 BEGIN BOND
M  V30 1 1 1 2
M  V30 2 1 2 3
M  V30 3 2 3 4
M  V30 4 1 4 5
M  V30 5 2 5 6
M  V30 6 1 6 7
M  V30 7 2 7 8
M  V30 8 1 8 9
M  V30 9 2 9 10
M  V30 10 1 9 11
M  V30 11 1 8 12
M  V30 12 1 12 13
M  V30 13 2 13 14
M  V30 14 1 14 15
M  V30 15 2 15 16
M  V30 16 1 16 17
M  V30 17 1 17 18
M  V30 18 2 17 19
M  V30 19 1 19 20
M  V30 20 1 20 21
M  V30 21 1 21 22
M  V30 22 2 22 23
M  V30 23 1 23 3
M  V30 24 1 22 6
M  V30 25 2 21 12
M  V30 26 1 19 13
M  V30 27 1 1 24
M  V30 28 1 1 25
M  V30 29 1 1 26
M  V30 30 1 4 27
M  V30 31 1 5 28
M  V30 32 1 11 29
M  V30 33 1 14 30
M  V30 34 1 15 31
M  V30 35 1 16 32
M  V30 36 1 20 33
M  V30 37 1 23 34
M  V30 END BOND
M  V30 END CTAB
M  END
>  <Dataset>  (328) 
ChEMBL_Kinases

>  <Ligand_Instance>  (328) 
nan

>  <PDB_ID>  (328) 
nan

>  <Standardized_SMILES>  (328) 
COc1ccc2nc(C(=O)O)c3c4cccc(Cl)c4[nH]c3c2c1

>  <Name>  (328) 
nan

>  <Pocket>  (328) 
nan

>  <ATP_Site>  (328) 
nan

>  <Peripheral>  (328) 
nan

>  <Num_H_Atoms_ProtBoundConf>  (328) 
nan

>  <Num_Resolved_Atoms>  (328) 
nan

>  <Num_Not_Resolved_Atoms>  (328) 
nan

$$$$
CHEMBL3589669
     RDKit          3D

  0  0  0  0  0  0  0  0  0  0999 V3000
M  V30 BEGIN CTAB
M  V30 COUNTS 37 40 0 0 0
M  V30 BEGIN ATOM
M  V30 1 C 2.021844 -6.025179 1.435430 0
M  V30 2 C 3.299139 -5.234819 1.487182 0
M  V30 3 O 3.259271 -4.116714 0.621394 0
M  V30 4 C 2.313132 -3.122286 0.765551 0
M  V30 5 C 1.303643 -3.025894 1.701449 0
M  V30 6 C 0.445385 -1.944779 1.686935 0
M  V30 7 C 0.530050 -0.918930 0.770066 0
M  V30 8 C 1.544248 -1.035805 -0.153928 0
M  V30 9 C 2.413243 -2.104537 -0.160255 0
M  V30 10 N 1.589669 0.001559 -1.040597 0
M  V30 11 C 0.697250 1.002620 -0.955837 0
M  V30 12 C 0.831253 2.053290 -1.940565 0
M  V30 13 O 1.784054 1.909546 -2.787404 0
M  V30 14 O 0.937009 3.057603 -2.859272 0
M  V30 15 C -0.312499 1.110936 -0.029650 0
M  V30 16 C -1.331659 1.977463 0.289958 0
M  V30 17 C -1.695461 3.162060 -0.307054 0
M  V30 18 C -2.774733 3.836389 0.228068 0
M  V30 19 C -3.487708 3.356817 1.332699 0
M  V30 20 C -3.069221 2.145573 1.896392 0
M  V30 21 Cl -3.959227 1.536923 3.283380 0
M  V30 22 C -1.993540 1.452765 1.379890 0
M  V30 23 N -1.418235 0.292905 1.743388 0
M  V30 24 C -0.401212 0.089326 0.887859 0
M  V30 25 H 1.576680 -6.223572 2.430854 0
M  V30 26 H 1.246292 -5.604922 0.775768 0
M  V30 27 H 2.293591 -7.015717 0.993664 0
M  V30 28 H 4.195470 -5.837843 1.301633 0
M  V30 29 H 3.361604 -4.799087 2.524635 0
M  V30 30 H 1.264045 -3.845284 2.406076 0
M  V30 31 H -0.321744 -1.960372 2.470165 0
M  V30 32 H 3.140387 -2.024379 -0.955664 0
M  V30 33 H 0.604358 3.997588 -2.673122 0
M  V30 34 H -1.161683 3.550310 -1.159350 0
M  V30 35 H -3.103195 4.773766 -0.203580 0
M  V30 36 H -4.331207 3.912721 1.727485 0
M  V30 37 H -1.692649 -0.336467 2.529325 0
M  V30 END ATOM
M  V30 BEGIN BOND
M  V30 1 1 1 2
M  V30 2 1 2 3
M  V30 3 1 3 4
M  V30 4 2 4 5
M  V30 5 1 5 6
M  V30 6 2 6 7
M  V30 7 1 7 8
M  V30 8 2 8 9
M  V30 9 1 8 10
M  V30 10 2 10 11
M  V30 11 1 11 12
M  V30 12 2 12 13
M  V30 13 1 12 14
M  V30 14 1 11 15
M  V30 15 1 15 16
M  V30 16 2 16 17
M  V30 17 1 17 18
M  V30 18 2 18 19
M  V30 19 1 19 20
M  V30 20 1 20 21
M  V30 21 2 20 22
M  V30 22 1 22 23
M  V30 23 1 23 24
M  V30 24 1 9 4
M  V30 25 2 24 15
M  V30 26 1 24 7
M  V30 27 1 22 16
M  V30 28 1 1 25
M  V30 29 1 1 26
M  V30 30 1 1 27
M  V30 31 1 2 28
M  V30 32 1 2 29
M  V30 33 1 5 30
M  V30 34 1 6 31
M  V30 35 1 9 32
M  V30 36 1 14 33
M  V30 37 1 17 34
M  V30 38 1 18 35
M  V30 39 1 19 36
M  V30 40 1 23 37
M  V30 END BOND
M  V30 END CTAB
M  END
>  <Dataset>  (329) 
ChEMBL_Kinases

>  <Ligand_Instance>  (329) 
nan

>  <PDB_ID>  (329) 
nan

>  <Standardized_SMILES>  (329) 
CCOc1ccc2c(c1)nc(C(=O)O)c1c3cccc(Cl)c3[nH]c21

>  <Name>  (329) 
nan

>  <Pocket>  (329) 
nan

>  <ATP_Site>  (329) 
nan

>  <Peripheral>  (329) 
nan

>  <Num_H_Atoms_ProtBoundConf>  (329) 
nan

>  <Num_Resolved_Atoms>  (329) 
nan

>  <Num_Not_Resolved_Atoms>  (329) 
nan

$$$$
CHEMBL3589667
     RDKit          3D

  0  0  0  0  0  0  0  0  0  0999 V3000
M  V30 BEGIN CTAB
M  V30 COUNTS 34 37 0 0 0
M  V30 BEGIN ATOM
M  V30 1 C 2.290784 -5.702825 2.570633 0
M  V30 2 O 2.758800 -4.658756 1.739002 0
M  V30 3 C 1.912054 -3.589212 1.487806 0
M  V30 4 C 0.643007 -3.531047 2.028133 0
M  V30 5 C -0.115769 -2.405137 1.703635 0
M  V30 6 C 0.294761 -1.367149 0.901651 0
M  V30 7 C 1.568742 -1.478210 0.390483 0
M  V30 8 C 2.363447 -2.568464 0.677543 0
M  V30 9 N 1.954180 -0.435516 -0.402869 0
M  V30 10 C 1.088764 0.577689 -0.612156 0
M  V30 11 C 1.615720 1.620307 -1.468416 0
M  V30 12 O 2.802797 1.493800 -1.934931 0
M  V30 13 O 2.025969 2.641483 -2.258785 0
M  V30 14 C -0.178372 0.694795 -0.107847 0
M  V30 15 C -1.206605 1.576482 -0.166305 0
M  V30 16 C -1.316010 2.769548 -0.826033 0
M  V30 17 C -2.490235 3.486169 -0.720887 0
M  V30 18 C -3.555787 3.018229 0.039220 0
M  V30 19 C -3.405481 1.795000 0.698315 0
M  V30 20 I -5.005788 1.084115 1.844666 0
M  V30 21 C -2.240994 1.060952 0.607938 0
M  V30 22 N -1.855015 -0.134384 1.143106 0
M  V30 23 C -0.601820 -0.339340 0.697722 0
M  V30 24 H 3.021139 -6.538494 2.572405 0
M  V30 25 H 2.126259 -5.291922 3.593268 0
M  V30 26 H 1.313899 -6.110924 2.218470 0
M  V30 27 H 0.271053 -4.308310 2.657908 0
M  V30 28 H -1.109134 -2.408759 2.155759 0
M  V30 29 H 3.352759 -2.587429 0.240658 0
M  V30 30 H 1.678577 3.614559 -2.205310 0
M  V30 31 H -0.522584 3.178584 -1.429068 0
M  V30 32 H -2.576605 4.442367 -1.250192 0
M  V30 33 H -4.473900 3.601215 0.107972 0
M  V30 34 H -2.430219 -0.742901 1.764752 0
M  V30 END ATOM
M  V30 BEGIN BOND
M  V30 1 1 1 2
M  V30 2 1 2 3
M  V30 3 2 3 4
M  V30 4 1 4 5
M  V30 5 2 5 6
M  V30 6 1 6 7
M  V30 7 2 7 8
M  V30 8 1 7 9
M  V30 9 2 9 10
M  V30 10 1 10 11
M  V30 11 2 11 12
M  V30 12 1 11 13
M  V30 13 1 10 14
M  V30 14 1 14 15
M  V30 15 2 15 16
M  V30 16 1 16 17
M  V30 17 2 17 18
M  V30 18 1 18 19
M  V30 19 1 19 20
M  V30 20 2 19 21
M  V30 21 1 21 22
M  V30 22 1 22 23
M  V30 23 1 8 3
M  V30 24 2 23 14
M  V30 25 1 23 6
M  V30 26 1 21 15
M  V30 27 1 1 24
M  V30 28 1 1 25
M  V30 29 1 1 26
M  V30 30 1 4 27
M  V30 31 1 5 28
M  V30 32 1 8 29
M  V30 33 1 13 30
M  V30 34 1 16 31
M  V30 35 1 17 32
M  V30 36 1 18 33
M  V30 37 1 22 34
M  V30 END BOND
M  V30 END CTAB
M  END
>  <Dataset>  (330) 
ChEMBL_Kinases

>  <Ligand_Instance>  (330) 
nan

>  <PDB_ID>  (330) 
nan

>  <Standardized_SMILES>  (330) 
COc1ccc2c(c1)nc(C(=O)O)c1c3cccc(I)c3[nH]c21

>  <Name>  (330) 
nan

>  <Pocket>  (330) 
nan

>  <ATP_Site>  (330) 
nan

>  <Peripheral>  (330) 
nan

>  <Num_H_Atoms_ProtBoundConf>  (330) 
nan

>  <Num_Resolved_Atoms>  (330) 
nan

>  <Num_Not_Resolved_Atoms>  (330) 
nan

$$$$
CHEMBL3580975
     RDKit          3D

  0  0  0  0  0  0  0  0  0  0999 V3000
M  V30 BEGIN CTAB
M  V30 COUNTS 47 51 0 0 0
M  V30 BEGIN ATOM
M  V30 1 C -0.372072 2.101874 2.810791 0
M  V30 2 N 0.648987 1.366710 2.091140 0
M  V30 3 C 1.429786 2.197859 1.162445 0
M  V30 4 C 2.379135 1.298514 0.414996 0
M  V30 5 C 3.705457 1.167366 0.785417 0
M  V30 6 C 4.579081 0.325246 0.120800 0
M  V30 7 C 4.062123 -0.400462 -0.957439 0
M  V30 8 N 4.686019 -1.290164 -1.779707 0
M  V30 9 C 3.786230 -1.740831 -2.682695 0
M  V30 10 N 2.599074 -1.138534 -2.431538 0
M  V30 11 C 2.743176 -0.302243 -1.365367 0
M  V30 12 C 1.884461 0.560757 -0.669878 0
M  V30 13 Cl 0.209104 0.686867 -1.216736 0
M  V30 14 C 0.917188 -0.044367 2.262487 0
M  V30 15 N 1.961867 -0.425717 3.048058 0
M  V30 16 C 2.229745 -1.753667 3.223143 0
M  V30 17 C 1.467952 -2.710043 2.622992 0
M  V30 18 C 0.408986 -2.323728 1.827214 0
M  V30 19 N -0.459292 -3.239252 1.119184 0
M  V30 20 C -1.548272 -2.694402 0.381973 0
M  V30 21 C -2.291268 -1.705385 1.033073 0
M  V30 22 C -3.315883 -1.242029 0.199451 0
M  V30 23 C -4.366825 -0.216176 0.480741 0
M  V30 24 C -5.682928 -0.710350 0.991172 0
M  V30 25 C -4.726595 -0.025315 1.936089 0
M  V30 26 N -3.153673 -1.968918 -0.924072 0
M  V30 27 N -2.135519 -2.802672 -0.811462 0
M  V30 28 N 0.187025 -1.009581 1.687621 0
M  V30 29 H -1.309824 2.189047 2.207825 0
M  V30 30 H -0.020529 3.086260 3.161233 0
M  V30 31 H -0.676471 1.521517 3.715352 0
M  V30 32 H 0.739694 2.673968 0.449873 0
M  V30 33 H 2.059724 2.909182 1.711050 0
M  V30 34 H 4.033357 1.766717 1.629676 0
M  V30 35 H 5.628943 0.230708 0.422811 0
M  V30 36 H 5.695808 -1.557187 -1.698539 0
M  V30 37 H 4.073193 -2.457962 -3.425573 0
M  V30 38 H 3.072301 -2.084591 3.856046 0
M  V30 39 H 1.599164 -3.781025 2.699449 0
M  V30 40 H -0.200733 -4.239023 1.219114 0
M  V30 41 H -2.218831 -1.252519 2.026378 0
M  V30 42 H -4.361374 0.659851 -0.180529 0
M  V30 43 H -6.587486 -0.176670 0.637851 0
M  V30 44 H -5.782465 -1.804472 1.090768 0
M  V30 45 H -5.030760 0.966737 2.317660 0
M  V30 46 H -4.218074 -0.653555 2.702072 0
M  V30 47 H -3.738617 -1.902612 -1.780811 0
M  V30 END ATOM
M  V30 BEGIN BOND
M  V30 1 1 1 2
M  V30 2 1 2 3
M  V30 3 1 3 4
M  V30 4 2 4 5
M  V30 5 1 5 6
M  V30 6 2 6 7
M  V30 7 1 7 8
M  V30 8 1 8 9
M  V30 9 2 9 10
M  V30 10 1 10 11
M  V30 11 2 11 12
M  V30 12 1 12 13
M  V30 13 1 2 14
M  V30 14 2 14 15
M  V30 15 1 15 16
M  V30 16 2 16 17
M  V30 17 1 17 18
M  V30 18 1 18 19
M  V30 19 1 19 20
M  V30 20 1 20 21
M  V30 21 2 21 22
M  V30 22 1 22 23
M  V30 23 1 23 24
M  V30 24 1 24 25
M  V30 25 1 22 26
M  V30 26 1 26 27
M  V30 27 2 18 28
M  V30 28 1 12 4
M  V30 29 1 28 14
M  V30 30 1 11 7
M  V30 31 2 27 20
M  V30 32 1 25 23
M  V30 33 1 1 29
M  V30 34 1 1 30
M  V30 35 1 1 31
M  V30 36 1 3 32
M  V30 37 1 3 33
M  V30 38 1 5 34
M  V30 39 1 6 35
M  V30 40 1 8 36
M  V30 41 1 9 37
M  V30 42 1 16 38
M  V30 43 1 17 39
M  V30 44 1 19 40
M  V30 45 1 21 41
M  V30 46 1 23 42
M  V30 47 1 24 43
M  V30 48 1 24 44
M  V30 49 1 25 45
M  V30 50 1 25 46
M  V30 51 1 26 47
M  V30 END BOND
M  V30 END CTAB
M  END
>  <Dataset>  (331) 
ChEMBL_Kinases

>  <Ligand_Instance>  (331) 
nan

>  <PDB_ID>  (331) 
nan

>  <Standardized_SMILES>  (331) 
CN(Cc1ccc2[nH]cnc2c1Cl)c1nccc(Nc2cc(C3CC3)[nH]n2)n1

>  <Name>  (331) 
nan

>  <Pocket>  (331) 
nan

>  <ATP_Site>  (331) 
nan

>  <Peripheral>  (331) 
nan

>  <Num_H_Atoms_ProtBoundConf>  (331) 
nan

>  <Num_Resolved_Atoms>  (331) 
nan

>  <Num_Not_Resolved_Atoms>  (331) 
nan

$$$$
CHEMBL4852083
     RDKit          3D

  0  0  0  0  0  0  0  0  0  0999 V3000
M  V30 BEGIN CTAB
M  V30 COUNTS 54 59 0 0 0
M  V30 BEGIN ATOM
M  V30 1 C 2.273751 -4.250796 6.145779 0
M  V30 2 N 2.764338 -3.819934 4.856574 0
M  V30 3 C 2.329415 -2.722522 4.221291 0
M  V30 4 C 3.036170 -2.655874 3.031642 0
M  V30 5 N 3.045696 -1.753560 1.933159 0
M  V30 6 C 4.062079 -0.992304 1.523912 0
M  V30 7 N 3.650469 -0.296361 0.461042 0
M  V30 8 C 2.364930 -0.614867 0.190389 0
M  V30 9 C 1.498875 -0.162186 -0.808446 0
M  V30 10 N 1.922227 0.791984 -1.763976 0
M  V30 11 C 1.097166 1.321349 -2.830152 0
M  V30 12 C -0.089447 2.054421 -2.294728 0
M  V30 13 N 0.015894 3.387486 -2.027601 0
M  V30 14 C -1.149482 3.865564 -1.558404 0
M  V30 15 C -1.589369 5.113569 -1.141099 0
M  V30 16 F -0.680671 6.110095 -1.198443 0
M  V30 17 C -2.893242 5.306845 -0.692879 0
M  V30 18 F -3.217801 6.555195 -0.311252 0
M  V30 19 C -3.742283 4.194617 -0.679600 0
M  V30 20 C -3.320003 2.952594 -1.090109 0
M  V30 21 C -2.020867 2.799854 -1.527691 0
M  V30 22 N -1.349526 1.733132 -1.975957 0
M  V30 23 N 0.287028 -0.720085 -0.748740 0
M  V30 24 C -0.133038 -1.615848 0.131081 0
M  V30 25 N -1.440566 -2.174183 0.133904 0
M  V30 26 C -2.436259 -1.871240 -0.865773 0
M  V30 27 C -3.295392 -3.065055 -1.173331 0
M  V30 28 O -3.642503 -3.830714 -0.088763 0
M  V30 29 C -2.442558 -4.307594 0.486778 0
M  V30 30 C -1.841156 -3.098447 1.176713 0
M  V30 31 N 0.744902 -2.012152 1.067337 0
M  V30 32 C 2.000147 -1.538267 1.132726 0
M  V30 33 C 3.881452 -3.736221 3.002111 0
M  V30 34 N 3.686886 -4.433822 4.145447 0
M  V30 35 H 1.408193 -3.659957 6.477366 0
M  V30 36 H 3.054638 -4.163571 6.947427 0
M  V30 37 H 1.985602 -5.314750 6.057331 0
M  V30 38 H 1.600273 -1.973057 4.465735 0
M  V30 39 H 5.057648 -0.907293 1.931358 0
M  V30 40 H 2.905817 1.139148 -1.691716 0
M  V30 41 H 1.679629 1.966037 -3.492991 0
M  V30 42 H 0.682948 0.473500 -3.430165 0
M  V30 43 H -4.741994 4.408072 -0.321635 0
M  V30 44 H -3.993485 2.119419 -1.068798 0
M  V30 45 H -1.669238 0.752097 -2.098377 0
M  V30 46 H -1.920174 -1.612091 -1.836984 0
M  V30 47 H -3.062395 -1.027389 -0.507006 0
M  V30 48 H -2.781897 -3.722464 -1.924509 0
M  V30 49 H -4.243143 -2.730063 -1.668365 0
M  V30 50 H -1.750639 -4.579645 -0.340043 0
M  V30 51 H -2.610867 -5.146404 1.172657 0
M  V30 52 H -2.683610 -2.599834 1.740198 0
M  V30 53 H -1.021395 -3.363690 1.855454 0
M  V30 54 H 4.617786 -4.096187 2.278817 0
M  V30 END ATOM
M  V30 BEGIN BOND
M  V30 1 1 1 2
M  V30 2 1 2 3
M  V30 3 2 3 4
M  V30 4 1 4 5
M  V30 5 1 5 6
M  V30 6 2 6 7
M  V30 7 1 7 8
M  V30 8 2 8 9
M  V30 9 1 9 10
M  V30 10 1 10 11
M  V30 11 1 11 12
M  V30 12 2 12 13
M  V30 13 1 13 14
M  V30 14 2 14 15
M  V30 15 1 15 16
M  V30 16 1 15 17
M  V30 17 1 17 18
M  V30 18 2 17 19
M  V30 19 1 19 20
M  V30 20 2 20 21
M  V30 21 1 21 22
M  V30 22 1 9 23
M  V30 23 2 23 24
M  V30 24 1 24 25
M  V30 25 1 25 26
M  V30 26 1 26 27
M  V30 27 1 27 28
M  V30 28 1 28 29
M  V30 29 1 29 30
M  V30 30 1 24 31
M  V30 31 2 31 32
M  V30 32 1 4 33
M  V30 33 2 33 34
M  V30 34 1 34 2
M  V30 35 1 32 5
M  V30 36 1 32 8
M  V30 37 1 22 12
M  V30 38 1 30 25
M  V30 39 1 21 14
M  V30 40 1 1 35
M  V30 41 1 1 36
M  V30 42 1 1 37
M  V30 43 1 3 38
M  V30 44 1 6 39
M  V30 45 1 10 40
M  V30 46 1 11 41
M  V30 47 1 11 42
M  V30 48 1 19 43
M  V30 49 1 20 44
M  V30 50 1 22 45
M  V30 51 1 26 46
M  V30 52 1 26 47
M  V30 53 1 27 48
M  V30 54 1 27 49
M  V30 55 1 29 50
M  V30 56 1 29 51
M  V30 57 1 30 52
M  V30 58 1 30 53
M  V30 59 1 33 54
M  V30 END BOND
M  V30 END CTAB
M  END
>  <Dataset>  (332) 
ChEMBL_Kinases

>  <Ligand_Instance>  (332) 
nan

>  <PDB_ID>  (332) 
nan

>  <Standardized_SMILES>  (332) 
Cn1cc(-n2cnc3c(NCc4nc5c(F)c(F)ccc5[nH]4)nc(N4CCOCC4)nc32)cn1

>  <Name>  (332) 
nan

>  <Pocket>  (332) 
nan

>  <ATP_Site>  (332) 
nan

>  <Peripheral>  (332) 
nan

>  <Num_H_Atoms_ProtBoundConf>  (332) 
nan

>  <Num_Resolved_Atoms>  (332) 
nan

>  <Num_Not_Resolved_Atoms>  (332) 
nan

$$$$
CHEMBL3586473
     RDKit          3D

  0  0  0  0  0  0  0  0  0  0999 V3000
M  V30 BEGIN CTAB
M  V30 COUNTS 53 57 0 0 0
M  V30 BEGIN ATOM
M  V30 1 C 3.385423 -2.530417 1.038510 0
M  V30 2 O 3.165483 -1.173866 0.716395 0
M  V30 3 C 4.113941 -0.316674 0.218717 0
M  V30 4 C 5.430888 -0.618263 -0.052651 0
M  V30 5 C 6.359067 0.243461 -0.546298 0
M  V30 6 C 5.960306 1.544676 -0.804587 0
M  V30 7 C 4.638052 1.909828 -0.549541 0
M  V30 8 F 4.343537 3.185537 -0.828476 0
M  V30 9 C 3.733190 1.003525 -0.049754 0
M  V30 10 C 2.342238 1.454306 0.199255 0
M  V30 11 N 1.974150 2.430706 0.963231 0
M  V30 12 C 0.743848 3.038695 1.353776 0
M  V30 13 C -0.368763 2.095394 1.602998 0
M  V30 14 C -1.170981 2.422202 2.670413 0
M  V30 15 N -2.203502 1.633855 2.985080 0
M  V30 16 C -2.536065 0.502294 2.318074 0
M  V30 17 N -3.665173 -0.234677 2.758552 0
M  V30 18 C -4.152670 -1.471778 2.270947 0
M  V30 19 C -5.352947 -1.966181 2.702865 0
M  V30 20 C -5.881958 -3.163300 2.280078 0
M  V30 21 C -5.189494 -3.931743 1.370745 0
M  V30 22 C -5.735174 -5.202017 0.911136 0
M  V30 23 O -6.818081 -5.680407 1.277778 0
M  V30 24 O -5.040478 -5.978537 -0.002235 0
M  V30 25 C -3.983902 -3.498521 0.897244 0
M  V30 26 C -3.520089 -2.290168 1.367862 0
M  V30 27 N -1.744507 0.192342 1.275360 0
M  V30 28 C -0.690658 0.942722 0.906195 0
M  V30 29 C 0.012340 0.403748 -0.255833 0
M  V30 30 C -0.828462 -0.373139 -1.025370 0
M  V30 31 C -0.261467 -0.935790 -2.150692 0
M  V30 32 C 1.061597 -0.733839 -2.484622 0
M  V30 33 Cl 1.732228 -1.479963 -3.937941 0
M  V30 34 C 1.863240 0.052486 -1.682628 0
M  V30 35 C 1.366133 0.647972 -0.541367 0
M  V30 36 H 4.430358 -2.725550 1.312124 0
M  V30 37 H 3.144865 -3.115882 0.120223 0
M  V30 38 H 2.723829 -2.857127 1.877515 0
M  V30 39 H 5.720691 -1.646278 0.158489 0
M  V30 40 H 7.381214 -0.072993 -0.733604 0
M  V30 41 H 6.724969 2.219627 -1.201329 0
M  V30 42 H 0.439939 3.740208 0.523168 0
M  V30 43 H 0.943522 3.618926 2.274074 0
M  V30 44 H -0.963804 3.307983 3.244636 0
M  V30 45 H -4.223071 0.187875 3.556898 0
M  V30 46 H -5.970236 -1.420999 3.425933 0
M  V30 47 H -6.833020 -3.522407 2.642998 0
M  V30 48 H -5.138609 -6.979820 -0.108422 0
M  V30 49 H -3.439758 -4.090070 0.191151 0
M  V30 50 H -2.561558 -1.990489 0.973441 0
M  V30 51 H -1.852997 -0.480010 -0.699457 0
M  V30 52 H -0.926235 -1.552752 -2.762964 0
M  V30 53 H 2.904678 0.241307 -1.900487 0
M  V30 END ATOM
M  V30 BEGIN BOND
M  V30 1 1 1 2
M  V30 2 1 2 3
M  V30 3 2 3 4
M  V30 4 1 4 5
M  V30 5 2 5 6
M  V30 6 1 6 7
M  V30 7 1 7 8
M  V30 8 2 7 9
M  V30 9 1 9 10
M  V30 10 2 10 11
M  V30 11 1 11 12
M  V30 12 1 12 13
M  V30 13 2 13 14
M  V30 14 1 14 15
M  V30 15 2 15 16
M  V30 16 1 16 17
M  V30 17 1 17 18
M  V30 18 2 18 19
M  V30 19 1 19 20
M  V30 20 2 20 21
M  V30 21 1 21 22
M  V30 22 2 22 23
M  V30 23 1 22 24
M  V30 24 1 21 25
M  V30 25 2 25 26
M  V30 26 1 16 27
M  V30 27 2 27 28
M  V30 28 1 28 29
M  V30 29 2 29 30
M  V30 30 1 30 31
M  V30 31 2 31 32
M  V30 32 1 32 33
M  V30 33 1 32 34
M  V30 34 2 34 35
M  V30 35 1 9 3
M  V30 36 1 35 10
M  V30 37 1 28 13
M  V30 38 1 35 29
M  V30 39 1 26 18
M  V30 40 1 1 36
M  V30 41 1 1 37
M  V30 42 1 1 38
M  V30 43 1 4 39
M  V30 44 1 5 40
M  V30 45 1 6 41
M  V30 46 1 12 42
M  V30 47 1 12 43
M  V30 48 1 14 44
M  V30 49 1 17 45
M  V30 50 1 19 46
M  V30 51 1 20 47
M  V30 52 1 24 48
M  V30 53 1 25 49
M  V30 54 1 26 50
M  V30 55 1 30 51
M  V30 56 1 31 52
M  V30 57 1 34 53
M  V30 END BOND
M  V30 END CTAB
M  END
>  <Dataset>  (333) 
ChEMBL_Kinases

>  <Ligand_Instance>  (333) 
nan

>  <PDB_ID>  (333) 
nan

>  <Standardized_SMILES>  (333) 
COc1cccc(F)c1C1=NCc2cnc(Nc3ccc(C(=O)O)cc3)nc2-c2ccc(Cl)cc21

>  <Name>  (333) 
nan

>  <Pocket>  (333) 
nan

>  <ATP_Site>  (333) 
nan

>  <Peripheral>  (333) 
nan

>  <Num_H_Atoms_ProtBoundConf>  (333) 
nan

>  <Num_Resolved_Atoms>  (333) 
nan

>  <Num_Not_Resolved_Atoms>  (333) 
nan

$$$$
CHEMBL4084116
     RDKit          3D

  0  0  0  0  0  0  0  0  0  0999 V3000
M  V30 BEGIN CTAB
M  V30 COUNTS 50 53 0 0 0
M  V30 BEGIN ATOM
M  V30 1 C 1.172157 -4.684493 3.801951 0
M  V30 2 C 0.660085 -3.251135 3.946914 0
M  V30 3 C -0.836096 -3.239602 3.955547 0
M  V30 4 N 1.245513 -2.449392 2.881471 0
M  V30 5 C 2.569935 -2.211205 2.853815 0
M  V30 6 N 2.826712 -1.454320 1.769361 0
M  V30 7 C 1.706477 -1.206923 1.110168 0
M  V30 8 C 1.350371 -0.509009 -0.044541 0
M  V30 9 N 2.447812 0.110135 -0.700883 0
M  V30 10 C 2.714761 1.488471 -0.434409 0
M  V30 11 C 1.790064 2.174833 0.354712 0
M  V30 12 C 1.942124 3.508428 0.677450 0
M  V30 13 N 0.941805 4.146588 1.490336 0
M  V30 14 C 3.076860 4.163999 0.177738 0
M  V30 15 C 3.991313 3.501220 -0.597301 0
M  V30 16 Cl 5.408700 4.368692 -1.205332 0
M  V30 17 C 3.823678 2.148951 -0.915748 0
M  V30 18 N 0.054616 -0.476922 -0.423650 0
M  V30 19 C -0.900117 -1.115394 0.304833 0
M  V30 20 N -2.253065 -1.056795 -0.121471 0
M  V30 21 C -2.710740 -0.349280 -1.278444 0 CFG=2
M  V30 22 C -4.204389 -0.513175 -1.537312 0
M  V30 23 C -4.208306 -1.906023 -2.151431 0
M  V30 24 N -2.901831 -2.109656 -2.743835 0
M  V30 25 C -2.157701 -0.879737 -2.582937 0
M  V30 26 N -0.570513 -1.790101 1.417657 0
M  V30 27 C 0.689919 -1.843617 1.820974 0
M  V30 28 H 2.105882 -4.688139 3.202372 0
M  V30 29 H 1.422756 -5.130226 4.791156 0
M  V30 30 H 0.365875 -5.289028 3.377943 0
M  V30 31 H 1.005952 -2.899672 4.949563 0
M  V30 32 H -1.162985 -3.519653 4.999790 0
M  V30 33 H -1.281755 -4.022033 3.308493 0
M  V30 34 H -1.236463 -2.227412 3.776315 0
M  V30 35 H 3.332606 -2.536298 3.538973 0
M  V30 36 H 3.102733 -0.353819 -1.378942 0
M  V30 37 H 0.914073 1.678244 0.742532 0
M  V30 38 H -0.049990 3.893751 1.226022 0
M  V30 39 H 1.039940 4.809552 2.286522 0
M  V30 40 H 3.196381 5.209327 0.431154 0
M  V30 41 H 4.546487 1.613868 -1.531832 0
M  V30 42 H -2.980358 -1.548000 0.420911 0
M  V30 43 H -2.473886 0.751002 -1.193676 0
M  V30 44 H -4.820483 -0.423077 -0.641879 0
M  V30 45 H -4.455899 0.235637 -2.336755 0
M  V30 46 H -4.444958 -2.639562 -1.383461 0
M  V30 47 H -4.952097 -1.984964 -2.968986 0
M  V30 48 H -2.386453 -2.925397 -2.346913 0
M  V30 49 H -1.084201 -1.059680 -2.556185 0
M  V30 50 H -2.471779 -0.150395 -3.369490 0
M  V30 END ATOM
M  V30 BEGIN BOND
M  V30 1 1 1 2
M  V30 2 1 2 3
M  V30 3 1 2 4
M  V30 4 1 4 5
M  V30 5 2 5 6
M  V30 6 1 6 7
M  V30 7 2 7 8
M  V30 8 1 8 9
M  V30 9 1 9 10
M  V30 10 2 10 11
M  V30 11 1 11 12
M  V30 12 1 12 13
M  V30 13 2 12 14
M  V30 14 1 14 15
M  V30 15 1 15 16
M  V30 16 2 15 17
M  V30 17 1 8 18
M  V30 18 2 18 19
M  V30 19 1 19 20
M  V30 20 1 20 21
M  V30 21 1 21 22
M  V30 22 1 22 23
M  V30 23 1 23 24
M  V30 24 1 24 25
M  V30 25 1 19 26
M  V30 26 2 26 27
M  V30 27 1 27 4
M  V30 28 1 27 7
M  V30 29 1 17 10
M  V30 30 1 25 21
M  V30 31 1 1 28
M  V30 32 1 1 29
M  V30 33 1 1 30
M  V30 34 1 2 31
M  V30 35 1 3 32
M  V30 36 1 3 33
M  V30 37 1 3 34
M  V30 38 1 5 35
M  V30 39 1 9 36
M  V30 40 1 11 37
M  V30 41 1 13 38
M  V30 42 1 13 39
M  V30 43 1 14 40
M  V30 44 1 17 41
M  V30 45 1 20 42
M  V30 46 1 21 43 CFG=1
M  V30 47 1 22 44
M  V30 48 1 22 45
M  V30 49 1 23 46
M  V30 50 1 23 47
M  V30 51 1 24 48
M  V30 52 1 25 49
M  V30 53 1 25 50
M  V30 END BOND
M  V30 END CTAB
M  END
>  <Dataset>  (334) 
ChEMBL_Kinases

>  <Ligand_Instance>  (334) 
nan

>  <PDB_ID>  (334) 
nan

>  <Standardized_SMILES>  (334) 
CC(C)n1cnc2c(Nc3cc(N)cc(Cl)c3)nc(N[C@@H]3CCNC3)nc21

>  <Name>  (334) 
nan

>  <Pocket>  (334) 
nan

>  <ATP_Site>  (334) 
nan

>  <Peripheral>  (334) 
nan

>  <Num_H_Atoms_ProtBoundConf>  (334) 
nan

>  <Num_Resolved_Atoms>  (334) 
nan

>  <Num_Not_Resolved_Atoms>  (334) 
nan

$$$$
CHEMBL4084410
     RDKit          3D

  0  0  0  0  0  0  0  0  0  0999 V3000
M  V30 BEGIN CTAB
M  V30 COUNTS 39 42 0 0 0
M  V30 BEGIN ATOM
M  V30 1 Cl -0.479201 -6.498793 3.296023 0
M  V30 2 C 0.158209 -6.440295 1.681410 0
M  V30 3 C 0.510240 -7.574019 0.966469 0
M  V30 4 C 1.010348 -7.435355 -0.314399 0
M  V30 5 N 1.170620 -6.220901 -0.902259 0
M  V30 6 C 0.848009 -5.073953 -0.263436 0
M  V30 7 N 0.884627 -3.760582 -0.554809 0
M  V30 8 C 0.435747 -3.048937 0.468090 0
M  V30 9 C 0.310910 -1.600495 0.562801 0
M  V30 10 C 0.673723 -0.787564 -0.475046 0
M  V30 11 C 0.567216 0.585803 -0.415044 0
M  V30 12 C 0.081571 1.215905 0.713361 0
M  V30 13 N -0.054001 2.626552 0.838948 0
M  V30 14 C -0.543644 3.326935 2.011435 0
M  V30 15 C 0.238586 4.610472 2.194386 0
M  V30 16 N 0.053177 5.501830 1.060805 0
M  V30 17 C -0.518339 4.782450 -0.075619 0
M  V30 18 C 0.304739 3.498592 -0.248977 0
M  V30 19 C -0.278988 0.377838 1.749335 0
M  V30 20 C -0.176932 -0.998614 1.701045 0
M  V30 21 C 0.090842 -3.941478 1.472285 0
M  V30 22 C 0.350611 -5.231771 1.013508 0
M  V30 23 H 0.372250 -8.527744 1.458680 0
M  V30 24 H 1.269278 -8.363741 -0.825888 0
M  V30 25 H 1.228693 -3.372665 -1.480392 0
M  V30 26 H 1.066787 -1.227764 -1.398951 0
M  V30 27 H 0.864976 1.164994 -1.252815 0
M  V30 28 H -0.363019 2.735705 2.933067 0
M  V30 29 H -1.634997 3.527541 1.982833 0
M  V30 30 H -0.176865 5.091304 3.104120 0
M  V30 31 H 1.278694 4.357900 2.401636 0
M  V30 32 H 1.030136 5.819054 0.810061 0
M  V30 33 H -0.493476 5.424650 -0.957854 0
M  V30 34 H -1.558656 4.544695 0.188522 0
M  V30 35 H 1.367165 3.809298 -0.084073 0
M  V30 36 H 0.140492 3.067341 -1.256988 0
M  V30 37 H -0.672264 0.739207 2.685089 0
M  V30 38 H -0.461504 -1.649477 2.517098 0
M  V30 39 H -0.308798 -3.694724 2.441653 0
M  V30 END ATOM
M  V30 BEGIN BOND
M  V30 1 1 1 2
M  V30 2 2 2 3
M  V30 3 1 3 4
M  V30 4 2 4 5
M  V30 5 1 5 6
M  V30 6 1 6 7
M  V30 7 1 7 8
M  V30 8 1 8 9
M  V30 9 2 9 10
M  V30 10 1 10 11
M  V30 11 2 11 12
M  V30 12 1 12 13
M  V30 13 1 13 14
M  V30 14 1 14 15
M  V30 15 1 15 16
M  V30 16 1 16 17
M  V30 17 1 17 18
M  V30 18 1 12 19
M  V30 19 2 19 20
M  V30 20 2 8 21
M  V30 21 1 21 22
M  V30 22 1 22 2
M  V30 23 2 22 6
M  V30 24 1 20 9
M  V30 25 1 18 13
M  V30 26 1 3 23
M  V30 27 1 4 24
M  V30 28 1 7 25
M  V30 29 1 10 26
M  V30 30 1 11 27
M  V30 31 1 14 28
M  V30 32 1 14 29
M  V30 33 1 15 30
M  V30 34 1 15 31
M  V30 35 1 16 32
M  V30 36 1 17 33
M  V30 37 1 17 34
M  V30 38 1 18 35
M  V30 39 1 18 36
M  V30 40 1 19 37
M  V30 41 1 20 38
M  V30 42 1 21 39
M  V30 END BOND
M  V30 END CTAB
M  END
>  <Dataset>  (335) 
ChEMBL_Kinases

>  <Ligand_Instance>  (335) 
nan

>  <PDB_ID>  (335) 
nan

>  <Standardized_SMILES>  (335) 
Clc1ccnc2[nH]c(-c3ccc(N4CCNCC4)cc3)cc12

>  <Name>  (335) 
nan

>  <Pocket>  (335) 
nan

>  <ATP_Site>  (335) 
nan

>  <Peripheral>  (335) 
nan

>  <Num_H_Atoms_ProtBoundConf>  (335) 
nan

>  <Num_Resolved_Atoms>  (335) 
nan

>  <Num_Not_Resolved_Atoms>  (335) 
nan

$$$$
CHEMBL4851745
     RDKit          3D

  0  0  0  0  0  0  0  0  0  0999 V3000
M  V30 BEGIN CTAB
M  V30 COUNTS 54 57 0 0 0
M  V30 BEGIN ATOM
M  V30 1 C -1.648730 -2.060364 5.797525 0
M  V30 2 C -1.002095 -2.243557 4.488949 0
M  V30 3 N 0.326367 -2.026489 4.326712 0
M  V30 4 C 0.866089 -2.212899 3.092987 0
M  V30 5 N 2.202534 -2.046817 2.693232 0
M  V30 6 C 2.794755 -0.986715 1.881735 0
M  V30 7 N 3.764732 -0.582370 1.449632 0
M  V30 8 C 3.930313 0.470156 0.681479 0
M  V30 9 C 2.868914 1.202128 0.324586 0
M  V30 10 C 2.345522 2.372679 -0.433630 0
M  V30 11 O 1.110343 2.599334 -0.414361 0
M  V30 12 N 3.172553 3.226998 -1.163785 0
M  V30 13 C 2.277567 4.209811 -1.735055 0
M  V30 14 C 2.113326 5.285437 -0.890014 0
M  V30 15 Cl 2.883981 5.458688 0.681617 0
M  V30 16 C 1.287609 6.327040 -1.266439 0
M  V30 17 C 0.658615 6.214346 -2.513251 0
M  V30 18 N 0.845452 5.137805 -3.318575 0
M  V30 19 C 1.651057 4.116826 -2.956304 0
M  V30 20 C 1.921548 2.898962 -3.753932 0
M  V30 21 S 1.491291 0.245987 1.209306 0
M  V30 22 C 0.037004 -2.614334 2.056971 0
M  V30 23 C -1.308732 -2.832654 2.226645 0
M  V30 24 N -2.229706 -3.221858 1.230414 0
M  V30 25 C -3.571553 -3.725762 1.559072 0
M  V30 26 C -3.668159 -5.159400 1.085458 0
M  V30 27 N -3.225552 -5.314102 -0.277887 0
M  V30 28 C -2.082488 -6.194512 -0.420890 0
M  V30 29 C -3.007099 -4.043713 -0.935789 0
M  V30 30 C -2.020963 -3.177574 -0.204440 0
M  V30 31 N -1.835087 -2.640778 3.479114 0
M  V30 32 H -2.602179 -1.486097 5.628698 0
M  V30 33 H -1.930677 -3.032148 6.277332 0
M  V30 34 H -0.956560 -1.547555 6.491751 0
M  V30 35 H 2.961659 -2.709572 2.955415 0
M  V30 36 H 4.781968 0.942084 0.217314 0
M  V30 37 H 4.189958 2.959162 -1.121303 0
M  V30 38 H 1.068384 7.240049 -0.691940 0
M  V30 39 H -0.007448 7.023186 -2.845829 0
M  V30 40 H 1.954561 3.198453 -4.837179 0
M  V30 41 H 2.933392 2.518406 -3.519942 0
M  V30 42 H 1.138863 2.131566 -3.629763 0
M  V30 43 H 0.355354 -2.792610 1.030878 0
M  V30 44 H -4.367819 -3.110503 1.115690 0
M  V30 45 H -3.710701 -3.712280 2.658150 0
M  V30 46 H -2.966435 -5.744711 1.712216 0
M  V30 47 H -4.680039 -5.563286 1.266087 0
M  V30 48 H -2.052157 -6.835047 0.483652 0
M  V30 49 H -2.219744 -6.844691 -1.307921 0
M  V30 50 H -1.169603 -5.566989 -0.483006 0
M  V30 51 H -2.578157 -4.266402 -1.939360 0
M  V30 52 H -3.964057 -3.512604 -1.116460 0
M  V30 53 H -2.265378 -2.119350 -0.500114 0
M  V30 54 H -0.971636 -3.374813 -0.416749 0
M  V30 END ATOM
M  V30 BEGIN BOND
M  V30 1 1 1 2
M  V30 2 2 2 3
M  V30 3 1 3 4
M  V30 4 1 4 5
M  V30 5 1 5 6
M  V30 6 2 6 7
M  V30 7 1 7 8
M  V30 8 2 8 9
M  V30 9 1 9 10
M  V30 10 2 10 11
M  V30 11 1 10 12
M  V30 12 1 12 13
M  V30 13 2 13 14
M  V30 14 1 14 15
M  V30 15 1 14 16
M  V30 16 2 16 17
M  V30 17 1 17 18
M  V30 18 2 18 19
M  V30 19 1 19 20
M  V30 20 1 9 21
M  V30 21 2 4 22
M  V30 22 1 22 23
M  V30 23 1 23 24
M  V30 24 1 24 25
M  V30 25 1 25 26
M  V30 26 1 26 27
M  V30 27 1 27 28
M  V30 28 1 27 29
M  V30 29 1 29 30
M  V30 30 2 23 31
M  V30 31 1 31 2
M  V30 32 1 21 6
M  V30 33 1 30 24
M  V30 34 1 19 13
M  V30 35 1 1 32
M  V30 36 1 1 33
M  V30 37 1 1 34
M  V30 38 1 5 35
M  V30 39 1 8 36
M  V30 40 1 12 37
M  V30 41 1 16 38
M  V30 42 1 17 39
M  V30 43 1 20 40
M  V30 44 1 20 41
M  V30 45 1 20 42
M  V30 46 1 22 43
M  V30 47 1 25 44
M  V30 48 1 25 45
M  V30 49 1 26 46
M  V30 50 1 26 47
M  V30 51 1 28 48
M  V30 52 1 28 49
M  V30 53 1 28 50
M  V30 54 1 29 51
M  V30 55 1 29 52
M  V30 56 1 30 53
M  V30 57 1 30 54
M  V30 END BOND
M  V30 END CTAB
M  END
>  <Dataset>  (336) 
ChEMBL_Kinases

>  <Ligand_Instance>  (336) 
nan

>  <PDB_ID>  (336) 
nan

>  <Standardized_SMILES>  (336) 
Cc1nc(Nc2ncc(C(=O)Nc3c(Cl)ccnc3C)s2)cc(N2CCN(C)CC2)n1

>  <Name>  (336) 
nan

>  <Pocket>  (336) 
nan

>  <ATP_Site>  (336) 
nan

>  <Peripheral>  (336) 
nan

>  <Num_H_Atoms_ProtBoundConf>  (336) 
nan

>  <Num_Resolved_Atoms>  (336) 
nan

>  <Num_Not_Resolved_Atoms>  (336) 
nan

$$$$
CHEMBL4084605
     RDKit          3D

  0  0  0  0  0  0  0  0  0  0999 V3000
M  V30 BEGIN CTAB
M  V30 COUNTS 40 44 0 0 0
M  V30 BEGIN ATOM
M  V30 1 O 2.641580 -5.573123 3.907800 0
M  V30 2 C 2.633046 -4.491924 3.044212 0
M  V30 3 C 3.377931 -4.531729 1.887394 0
M  V30 4 C 3.409088 -3.477805 0.982189 0
M  V30 5 C 2.679243 -2.337613 1.222020 0
M  V30 6 C 2.617629 -1.158422 0.365377 0
M  V30 7 C 3.660180 -0.722828 -0.415366 0
M  V30 8 N 3.586182 0.367957 -1.199902 0
M  V30 9 C 2.484230 1.131646 -1.291327 0
M  V30 10 N 2.123020 2.239614 -1.962664 0
M  V30 11 C 0.849098 2.598387 -1.675545 0
M  V30 12 C 0.393627 1.643429 -0.762594 0
M  V30 13 C -0.960031 1.669981 -0.195836 0
M  V30 14 C -1.531720 2.837294 0.295792 0
M  V30 15 C -2.828771 2.789524 0.821116 0
M  V30 16 C -3.512750 1.585246 0.840032 0
M  V30 17 N -4.742727 1.288704 1.283082 0
M  V30 18 C -5.019631 -0.024600 1.109879 0
M  V30 19 C -3.895106 -0.609341 0.517394 0
M  V30 20 C -2.964452 0.412236 0.356773 0
M  V30 21 C -1.669287 0.465074 -0.166617 0
M  V30 22 C 1.400280 0.728988 -0.517389 0
M  V30 23 C 1.455112 -0.396652 0.301696 0
M  V30 24 C 1.927915 -2.278041 2.373139 0
M  V30 25 C 1.894151 -3.333979 3.284099 0
M  V30 26 H 2.001119 -5.750604 4.645476 0
M  V30 27 H 3.966986 -5.433769 1.680466 0
M  V30 28 H 3.983340 -3.501853 0.084915 0
M  V30 29 H 4.564210 -1.307518 -0.371613 0
M  V30 30 H 2.749061 2.762756 -2.626575 0
M  V30 31 H 0.324403 3.467164 -2.096701 0
M  V30 32 H -0.958183 3.746383 0.257910 0
M  V30 33 H -3.273989 3.698083 1.203931 0
M  V30 34 H -5.480012 1.889042 1.718872 0
M  V30 35 H -5.876704 -0.644800 1.327900 0
M  V30 36 H -3.726519 -1.646634 0.220397 0
M  V30 37 H -1.311974 -0.479833 -0.522130 0
M  V30 38 H 0.605946 -0.696726 0.897368 0
M  V30 39 H 1.313136 -1.443831 2.677007 0
M  V30 40 H 1.314823 -3.328327 4.203850 0
M  V30 END ATOM
M  V30 BEGIN BOND
M  V30 1 1 1 2
M  V30 2 2 2 3
M  V30 3 1 3 4
M  V30 4 2 4 5
M  V30 5 1 5 6
M  V30 6 2 6 7
M  V30 7 1 7 8
M  V30 8 2 8 9
M  V30 9 1 9 10
M  V30 10 1 10 11
M  V30 11 2 11 12
M  V30 12 1 12 13
M  V30 13 2 13 14
M  V30 14 1 14 15
M  V30 15 2 15 16
M  V30 16 1 16 17
M  V30 17 1 17 18
M  V30 18 2 18 19
M  V30 19 1 19 20
M  V30 20 2 20 21
M  V30 21 1 12 22
M  V30 22 2 22 23
M  V30 23 1 5 24
M  V30 24 2 24 25
M  V30 25 1 25 2
M  V30 26 1 23 6
M  V30 27 1 22 9
M  V30 28 1 21 13
M  V30 29 1 20 16
M  V30 30 1 1 26
M  V30 31 1 3 27
M  V30 32 1 4 28
M  V30 33 1 7 29
M  V30 34 1 10 30
M  V30 35 1 11 31
M  V30 36 1 14 32
M  V30 37 1 15 33
M  V30 38 1 17 34
M  V30 39 1 18 35
M  V30 40 1 19 36
M  V30 41 1 21 37
M  V30 42 1 23 38
M  V30 43 1 24 39
M  V30 44 1 25 40
M  V30 END BOND
M  V30 END CTAB
M  END
>  <Dataset>  (337) 
ChEMBL_Kinases

>  <Ligand_Instance>  (337) 
nan

>  <PDB_ID>  (337) 
nan

>  <Standardized_SMILES>  (337) 
Oc1ccc(-c2cnc3[nH]cc(-c4ccc5[nH]ccc5c4)c3c2)cc1

>  <Name>  (337) 
nan

>  <Pocket>  (337) 
nan

>  <ATP_Site>  (337) 
nan

>  <Peripheral>  (337) 
nan

>  <Num_H_Atoms_ProtBoundConf>  (337) 
nan

>  <Num_Resolved_Atoms>  (337) 
nan

>  <Num_Not_Resolved_Atoms>  (337) 
nan

$$$$
CHEMBL1532768
     RDKit          3D

  0  0  0  0  0  0  0  0  0  0999 V3000
M  V30 BEGIN CTAB
M  V30 COUNTS 51 54 0 0 0
M  V30 BEGIN ATOM
M  V30 1 C 1.985747 -3.654243 5.347696 0
M  V30 2 C 2.279446 -4.262425 3.994732 0
M  V30 3 N 2.658563 -3.244124 3.062594 0
M  V30 4 C 3.928186 -2.845785 2.870344 0
M  V30 5 N 3.895669 -1.891832 1.938300 0
M  V30 6 C 2.637570 -1.660107 1.519977 0
M  V30 7 C 2.100711 -0.789456 0.591399 0
M  V30 8 N 2.972127 0.072297 -0.108050 0
M  V30 9 C 2.661020 1.029843 -1.108716 0
M  V30 10 C 3.628344 1.869728 -1.665495 0
M  V30 11 C 3.342815 2.793232 -2.630053 0
M  V30 12 C 2.075029 2.947434 -3.109798 0
M  V30 13 C 1.075431 2.146713 -2.599280 0
M  V30 14 Cl -0.528050 2.364421 -3.228508 0
M  V30 15 C 1.405780 1.237956 -1.637244 0
M  V30 16 N 0.784216 -0.874874 0.472280 0
M  V30 17 C 0.004263 -1.696746 1.151260 0
M  V30 18 N -1.422351 -1.709201 0.947934 0
M  V30 19 C -2.064845 -0.820709 0.000075 0 CFG=2
M  V30 20 C -1.801858 0.594176 0.424808 0
M  V30 21 C -3.020963 1.091646 1.192110 0
M  V30 22 C -4.214774 1.165803 0.277984 0
M  V30 23 C -4.257638 0.010096 -0.698861 0
M  V30 24 C -3.545066 -1.143966 -0.014934 0 CFG=1
M  V30 25 N -3.820979 -2.411515 -0.622058 0
M  V30 26 N 0.542341 -2.527968 2.041669 0
M  V30 27 C 1.861773 -2.531265 2.247501 0
M  V30 28 H 2.651495 -4.041171 6.149910 0
M  V30 29 H 0.936583 -3.875795 5.675568 0
M  V30 30 H 2.085468 -2.549297 5.335270 0
M  V30 31 H 1.343522 -4.763243 3.618885 0
M  V30 32 H 3.070350 -5.058920 4.076392 0
M  V30 33 H 4.876897 -3.160122 3.321082 0
M  V30 34 H 4.009191 0.022810 0.121378 0
M  V30 35 H 4.655158 1.770830 -1.301642 0
M  V30 36 H 4.171060 3.398848 -2.996853 0
M  V30 37 H 1.931193 3.699515 -3.872212 0
M  V30 38 H 0.577796 0.650071 -1.289452 0
M  V30 39 H -1.998980 -2.391979 1.514729 0
M  V30 40 H -1.609416 -0.943724 -0.999558 0
M  V30 41 H -1.569741 1.262024 -0.429706 0
M  V30 42 H -0.944848 0.616171 1.116773 0
M  V30 43 H -3.156722 0.409820 2.055556 0
M  V30 44 H -2.797541 2.098659 1.614868 0
M  V30 45 H -4.331144 2.152282 -0.196778 0
M  V30 46 H -5.114489 1.034700 0.947332 0
M  V30 47 H -3.820666 0.248442 -1.678930 0
M  V30 48 H -5.315414 -0.283756 -0.869109 0
M  V30 49 H -3.953804 -1.159476 1.016031 0
M  V30 50 H -4.795717 -2.386451 -0.995248 0
M  V30 51 H -3.815033 -3.136072 0.132708 0
M  V30 END ATOM
M  V30 BEGIN BOND
M  V30 1 1 1 2
M  V30 2 1 2 3
M  V30 3 1 3 4
M  V30 4 2 4 5
M  V30 5 1 5 6
M  V30 6 2 6 7
M  V30 7 1 7 8
M  V30 8 1 8 9
M  V30 9 2 9 10
M  V30 10 1 10 11
M  V30 11 2 11 12
M  V30 12 1 12 13
M  V30 13 1 13 14
M  V30 14 2 13 15
M  V30 15 1 7 16
M  V30 16 2 16 17
M  V30 17 1 17 18
M  V30 18 1 18 19
M  V30 19 1 19 20
M  V30 20 1 20 21
M  V30 21 1 21 22
M  V30 22 1 22 23
M  V30 23 1 23 24
M  V30 24 1 24 25
M  V30 25 1 17 26
M  V30 26 2 26 27
M  V30 27 1 27 3
M  V30 28 1 27 6
M  V30 29 1 15 9
M  V30 30 1 24 19
M  V30 31 1 1 28
M  V30 32 1 1 29
M  V30 33 1 1 30
M  V30 34 1 2 31
M  V30 35 1 2 32
M  V30 36 1 4 33
M  V30 37 1 8 34
M  V30 38 1 10 35
M  V30 39 1 11 36
M  V30 40 1 12 37
M  V30 41 1 15 38
M  V30 42 1 18 39
M  V30 43 1 19 40 CFG=3
M  V30 44 1 20 41
M  V30 45 1 20 42
M  V30 46 1 21 43
M  V30 47 1 21 44
M  V30 48 1 22 45
M  V30 49 1 22 46
M  V30 50 1 23 47
M  V30 51 1 23 48
M  V30 52 1 24 49 CFG=1
M  V30 53 1 25 50
M  V30 54 1 25 51
M  V30 END BOND
M  V30 END CTAB
M  END
>  <Dataset>  (338) 
ChEMBL_Kinases

>  <Ligand_Instance>  (338) 
nan

>  <PDB_ID>  (338) 
nan

>  <Standardized_SMILES>  (338) 
CCn1cnc2c(Nc3cccc(Cl)c3)nc(N[C@@H]3CCCC[C@H]3N)nc21

>  <Name>  (338) 
nan

>  <Pocket>  (338) 
nan

>  <ATP_Site>  (338) 
nan

>  <Peripheral>  (338) 
nan

>  <Num_H_Atoms_ProtBoundConf>  (338) 
nan

>  <Num_Resolved_Atoms>  (338) 
nan

>  <Num_Not_Resolved_Atoms>  (338) 
nan

$$$$
CHEMBL4084988
     RDKit          3D

  0  0  0  0  0  0  0  0  0  0999 V3000
M  V30 BEGIN CTAB
M  V30 COUNTS 34 36 0 0 0
M  V30 BEGIN ATOM
M  V30 1 N 0.340170 -2.423696 4.048996 0
M  V30 2 C 1.623416 -2.308617 3.480608 0
M  V30 3 O 2.483234 -2.993362 4.093917 0
M  V30 4 C 1.908175 -1.486803 2.315410 0
M  V30 5 C 3.170132 -1.412511 1.807215 0
M  V30 6 C 3.333266 -0.606870 0.702846 0
M  V30 7 Cl 4.938496 -0.474672 0.007244 0
M  V30 8 C 2.236795 0.066957 0.180954 0
M  V30 9 C 2.217507 0.914748 -0.915898 0
M  V30 10 Cl 3.557083 1.353183 -1.923133 0
M  V30 11 C 0.885794 1.304320 -0.988626 0
M  V30 12 I 0.261715 2.638030 -2.509905 0
M  V30 13 N 0.112485 0.759409 -0.027835 0
M  V30 14 C -1.273338 0.910657 0.228204 0
M  V30 15 C -1.782200 -0.355610 0.941967 0
M  V30 16 C -1.605691 -1.542335 0.037144 0
M  V30 17 C -2.563642 -1.320816 -1.141448 0
M  V30 18 N -2.060205 -0.134459 -1.845674 0
M  V30 19 C -2.181189 1.007598 -0.960247 0
M  V30 20 C 0.962992 -0.014835 0.702675 0
M  V30 21 N 0.888934 -0.814807 1.770682 0
M  V30 22 H 0.163208 -1.961894 4.969463 0
M  V30 23 H -0.563650 -2.892009 3.766620 0
M  V30 24 H 3.946949 -1.981758 2.296822 0
M  V30 25 H -1.523068 1.733436 0.922708 0
M  V30 26 H -2.903162 -0.199986 0.993883 0
M  V30 27 H -1.430087 -0.458997 1.956471 0
M  V30 28 H -1.832651 -2.461170 0.596287 0
M  V30 29 H -0.599542 -1.592488 -0.451237 0
M  V30 30 H -3.548998 -1.119463 -0.671046 0
M  V30 31 H -2.640434 -2.186037 -1.796809 0
M  V30 32 H -1.090778 -0.342611 -2.118285 0
M  V30 33 H -3.225484 0.903988 -0.521403 0
M  V30 34 H -2.207837 1.949998 -1.490325 0
M  V30 END ATOM
M  V30 BEGIN BOND
M  V30 1 1 1 2
M  V30 2 2 2 3
M  V30 3 1 2 4
M  V30 4 2 4 5
M  V30 5 1 5 6
M  V30 6 1 6 7
M  V30 7 2 6 8
M  V30 8 1 8 9
M  V30 9 1 9 10
M  V30 10 2 9 11
M  V30 11 1 11 12
M  V30 12 1 11 13
M  V30 13 1 13 14
M  V30 14 1 14 15
M  V30 15 1 15 16
M  V30 16 1 16 17
M  V30 17 1 17 18
M  V30 18 1 18 19
M  V30 19 1 13 20
M  V30 20 2 20 21
M  V30 21 1 21 4
M  V30 22 1 20 8
M  V30 23 1 19 14
M  V30 24 1 1 22
M  V30 25 1 1 23
M  V30 26 1 5 24
M  V30 27 1 14 25
M  V30 28 1 15 26
M  V30 29 1 15 27
M  V30 30 1 16 28
M  V30 31 1 16 29
M  V30 32 1 17 30
M  V30 33 1 17 31
M  V30 34 1 18 32
M  V30 35 1 19 33
M  V30 36 1 19 34
M  V30 END BOND
M  V30 END CTAB
M  END
>  <Dataset>  (339) 
ChEMBL_Kinases

>  <Ligand_Instance>  (339) 
nan

>  <PDB_ID>  (339) 
nan

>  <Standardized_SMILES>  (339) 
NC(=O)c1cc(Cl)c2c(Cl)c(I)n(C3CCCNC3)c2n1

>  <Name>  (339) 
nan

>  <Pocket>  (339) 
nan

>  <ATP_Site>  (339) 
nan

>  <Peripheral>  (339) 
nan

>  <Num_H_Atoms_ProtBoundConf>  (339) 
nan

>  <Num_Resolved_Atoms>  (339) 
nan

>  <Num_Not_Resolved_Atoms>  (339) 
nan

$$$$
CHEMBL4085846
     RDKit          3D

  0  0  0  0  0  0  0  0  0  0999 V3000
M  V30 BEGIN CTAB
M  V30 COUNTS 34 36 0 0 0
M  V30 BEGIN ATOM
M  V30 1 N 1.147206 -2.728356 4.174471 0
M  V30 2 C 2.387892 -2.485177 3.514993 0
M  V30 3 O 3.384798 -3.070728 3.987610 0
M  V30 4 C 2.474270 -1.597282 2.351005 0
M  V30 5 C 3.712156 -1.417687 1.774139 0
M  V30 6 C 3.767503 -0.577660 0.680372 0
M  V30 7 Cl 5.291827 -0.277529 -0.131333 0
M  V30 8 C 2.587497 0.004856 0.262772 0
M  V30 9 C 2.429715 0.868132 -0.801046 0
M  V30 10 Cl 3.616219 1.480723 -1.919318 0
M  V30 11 C 1.085794 1.174181 -0.817738 0
M  V30 12 I 0.106660 2.443021 -2.159724 0
M  V30 13 N 0.418180 0.558068 0.159512 0
M  V30 14 C -0.954455 0.489221 0.621394 0
M  V30 15 C -1.683565 -0.675988 -0.064558 0
M  V30 16 C -3.097094 -0.789500 0.388508 0
M  V30 17 C -3.772645 0.228869 -0.539807 0
M  V30 18 C -2.990226 0.018240 -1.825732 0
M  V30 19 N -1.735021 -0.555177 -1.475401 0
M  V30 20 C 1.348339 -0.174913 0.840207 0
M  V30 21 N 1.344804 -1.011674 1.915296 0
M  V30 22 H 0.811803 -2.020046 4.889465 0
M  V30 23 H 0.480788 -3.511594 4.076182 0
M  V30 24 H 4.604885 -1.886167 2.125741 0
M  V30 25 H -1.474441 1.452697 0.351930 0
M  V30 26 H -1.039489 0.391731 1.702028 0
M  V30 27 H -1.144265 -1.620557 0.254131 0
M  V30 28 H -3.469927 -1.802725 0.161682 0
M  V30 29 H -3.252067 -0.518267 1.454257 0
M  V30 30 H -3.565478 1.222465 -0.095665 0
M  V30 31 H -4.856570 0.020331 -0.654877 0
M  V30 32 H -2.828399 0.993561 -2.323750 0
M  V30 33 H -3.575043 -0.677507 -2.494129 0
M  V30 34 H -1.563258 -1.491044 -1.924374 0
M  V30 END ATOM
M  V30 BEGIN BOND
M  V30 1 1 1 2
M  V30 2 2 2 3
M  V30 3 1 2 4
M  V30 4 2 4 5
M  V30 5 1 5 6
M  V30 6 1 6 7
M  V30 7 2 6 8
M  V30 8 1 8 9
M  V30 9 1 9 10
M  V30 10 2 9 11
M  V30 11 1 11 12
M  V30 12 1 11 13
M  V30 13 1 13 14
M  V30 14 1 14 15
M  V30 15 1 15 16
M  V30 16 1 16 17
M  V30 17 1 17 18
M  V30 18 1 18 19
M  V30 19 1 13 20
M  V30 20 2 20 21
M  V30 21 1 21 4
M  V30 22 1 20 8
M  V30 23 1 19 15
M  V30 24 1 1 22
M  V30 25 1 1 23
M  V30 26 1 5 24
M  V30 27 1 14 25
M  V30 28 1 14 26
M  V30 29 1 15 27
M  V30 30 1 16 28
M  V30 31 1 16 29
M  V30 32 1 17 30
M  V30 33 1 17 31
M  V30 34 1 18 32
M  V30 35 1 18 33
M  V30 36 1 19 34
M  V30 END BOND
M  V30 END CTAB
M  END
>  <Dataset>  (340) 
ChEMBL_Kinases

>  <Ligand_Instance>  (340) 
nan

>  <PDB_ID>  (340) 
nan

>  <Standardized_SMILES>  (340) 
NC(=O)c1cc(Cl)c2c(Cl)c(I)n(CC3CCCN3)c2n1

>  <Name>  (340) 
nan

>  <Pocket>  (340) 
nan

>  <ATP_Site>  (340) 
nan

>  <Peripheral>  (340) 
nan

>  <Num_H_Atoms_ProtBoundConf>  (340) 
nan

>  <Num_Resolved_Atoms>  (340) 
nan

>  <Num_Not_Resolved_Atoms>  (340) 
nan

$$$$
CHEMBL3581146
     RDKit          3D

  0  0  0  0  0  0  0  0  0  0999 V3000
M  V30 BEGIN CTAB
M  V30 COUNTS 39 41 0 0 0
M  V30 BEGIN ATOM
M  V30 1 C -0.007573 -5.929900 -0.125226 0
M  V30 2 O 1.359260 -5.632883 0.068475 0
M  V30 3 C 1.873160 -4.434903 -0.391078 0
M  V30 4 C 3.217293 -4.225296 -0.160246 0
M  V30 5 C 3.869206 -3.089630 -0.554932 0
M  V30 6 C 3.083525 -2.138864 -1.215739 0
M  V30 7 C 1.720265 -2.340445 -1.455217 0
M  V30 8 C 0.970415 -1.249791 -2.173746 0
M  V30 9 C 0.456673 -0.363662 -1.121047 0
M  V30 10 O 0.738682 -0.696021 0.057922 0
M  V30 11 N -0.302043 0.787077 -1.363777 0
M  V30 12 C -0.826471 1.687674 -0.330303 0
M  V30 13 C -0.748888 1.673913 0.974627 0
M  V30 14 C -1.366305 2.691844 1.661039 0
M  V30 15 C -1.340370 2.771652 3.144714 0
M  V30 16 C -0.209301 2.277785 3.801669 0
M  V30 17 C -0.167999 2.340328 5.181625 0
M  V30 18 N -1.188976 2.865165 5.918951 0
M  V30 19 C -2.249331 3.324957 5.248609 0
M  V30 20 F -3.282185 3.853814 5.960508 0
M  V30 21 C -2.381349 3.305553 3.874955 0
M  V30 22 C -2.027851 3.666906 0.984380 0
M  V30 23 S -1.739720 3.072350 -0.792891 0
M  V30 24 C 1.109491 -3.491657 -1.042774 0
M  V30 25 H -0.270198 -6.822070 0.478655 0
M  V30 26 H -0.591598 -5.018872 0.180102 0
M  V30 27 H -0.151790 -6.120123 -1.212436 0
M  V30 28 H 3.828323 -4.971040 0.357111 0
M  V30 29 H 4.913834 -2.942474 -0.367864 0
M  V30 30 H 3.535249 -1.208463 -1.559620 0
M  V30 31 H 0.193960 -1.699307 -2.825423 0
M  V30 32 H 1.692630 -0.775832 -2.863349 0
M  V30 33 H -0.471182 0.959807 -2.373972 0
M  V30 34 H -0.208532 0.871801 1.455096 0
M  V30 35 H 0.584084 1.867942 3.196943 0
M  V30 36 H 0.716671 1.954027 5.694996 0
M  V30 37 H -3.249218 3.683204 3.346933 0
M  V30 38 H -2.555891 4.516144 1.308489 0
M  V30 39 H 0.061014 -3.661517 -1.220047 0
M  V30 END ATOM
M  V30 BEGIN BOND
M  V30 1 1 1 2
M  V30 2 1 2 3
M  V30 3 2 3 4
M  V30 4 1 4 5
M  V30 5 2 5 6
M  V30 6 1 6 7
M  V30 7 1 7 8
M  V30 8 1 8 9
M  V30 9 2 9 10
M  V30 10 1 9 11
M  V30 11 1 11 12
M  V30 12 2 12 13
M  V30 13 1 13 14
M  V30 14 1 14 15
M  V30 15 2 15 16
M  V30 16 1 16 17
M  V30 17 2 17 18
M  V30 18 1 18 19
M  V30 19 1 19 20
M  V30 20 2 19 21
M  V30 21 2 14 22
M  V30 22 1 22 23
M  V30 23 2 7 24
M  V30 24 1 24 3
M  V30 25 1 23 12
M  V30 26 1 21 15
M  V30 27 1 1 25
M  V30 28 1 1 26
M  V30 29 1 1 27
M  V30 30 1 4 28
M  V30 31 1 5 29
M  V30 32 1 6 30
M  V30 33 1 8 31
M  V30 34 1 8 32
M  V30 35 1 11 33
M  V30 36 1 13 34
M  V30 37 1 16 35
M  V30 38 1 17 36
M  V30 39 1 21 37
M  V30 40 1 22 38
M  V30 41 1 24 39
M  V30 END BOND
M  V30 END CTAB
M  END
>  <Dataset>  (341) 
ChEMBL_Kinases

>  <Ligand_Instance>  (341) 
nan

>  <PDB_ID>  (341) 
nan

>  <Standardized_SMILES>  (341) 
COc1cccc(CC(=O)Nc2cc(-c3ccnc(F)c3)cs2)c1

>  <Name>  (341) 
nan

>  <Pocket>  (341) 
nan

>  <ATP_Site>  (341) 
nan

>  <Peripheral>  (341) 
nan

>  <Num_H_Atoms_ProtBoundConf>  (341) 
nan

>  <Num_Resolved_Atoms>  (341) 
nan

>  <Num_Not_Resolved_Atoms>  (341) 
nan

$$$$
CHEMBL4086046
     RDKit          3D

  0  0  0  0  0  0  0  0  0  0999 V3000
M  V30 BEGIN CTAB
M  V30 COUNTS 60 63 0 0 0
M  V30 BEGIN ATOM
M  V30 1 C 2.936063 -4.208699 3.024424 0
M  V30 2 C 3.786937 -2.985521 3.125626 0
M  V30 3 C 3.779609 -2.083847 1.931945 0
M  V30 4 N 2.461733 -1.614273 1.666751 0
M  V30 5 C 1.381549 -1.938393 0.894368 0
M  V30 6 C 1.490081 -3.077029 -0.035633 0
M  V30 7 N 1.984156 -2.684145 -1.362203 0
M  V30 8 C 1.366087 -1.888841 -2.363750 0
M  V30 9 C 2.031962 -1.596991 -3.561231 0
M  V30 10 C 1.418467 -0.838329 -4.529090 0
M  V30 11 C 0.137083 -0.327916 -4.385530 0
M  V30 12 C -0.530425 -0.603672 -3.219573 0
M  V30 13 C -1.879760 -0.073695 -3.059874 0
M  V30 14 O -2.346280 0.611839 -4.031790 0
M  V30 15 N -2.748408 -0.216113 -1.968834 0
M  V30 16 C -4.014691 0.475544 -2.219655 0
M  V30 17 C -4.853652 0.280173 -1.016414 0
M  V30 18 C -5.869802 -0.675164 -1.042894 0
M  V30 19 C -6.692772 -0.944319 0.006542 0
M  V30 20 C -6.509290 -0.227808 1.165622 0
M  V30 21 C -5.504073 0.723115 1.203681 0
M  V30 22 C -4.661746 0.997273 0.126405 0
M  V30 23 C -3.616960 2.038364 0.243821 0
M  V30 24 F -2.342810 1.593290 0.054738 0
M  V30 25 F -3.899914 3.122914 -0.576857 0
M  V30 26 F -3.654596 2.561515 1.541786 0
M  V30 27 C 0.100829 -1.366119 -2.260559 0
M  V30 28 N 0.385812 -1.064828 1.162760 0
M  V30 29 N 0.821505 -0.215500 2.073611 0
M  V30 30 C 2.101744 -0.523139 2.409981 0
M  V30 31 C 2.769352 0.306356 3.409001 0
M  V30 32 C 2.302873 0.567644 4.680983 0
M  V30 33 C 3.074593 1.376834 5.488931 0
M  V30 34 N 4.247043 1.925566 5.119927 0
M  V30 35 C 4.671350 1.644299 3.860458 0
M  V30 36 N 3.944789 0.859683 3.046305 0
M  V30 37 H 3.284701 -4.898668 2.223363 0
M  V30 38 H 1.851218 -3.967732 2.893642 0
M  V30 39 H 3.013190 -4.766448 3.972097 0
M  V30 40 H 4.832080 -3.348066 3.347068 0
M  V30 41 H 3.404028 -2.392908 4.006150 0
M  V30 42 H 4.134539 -2.707084 1.057843 0
M  V30 43 H 4.537174 -1.304682 2.038821 0
M  V30 44 H 0.440297 -3.435157 -0.251502 0
M  V30 45 H 2.119799 -3.864944 0.350301 0
M  V30 46 H 2.949537 -3.045629 -1.615628 0
M  V30 47 H 3.050176 -1.988142 -3.705317 0
M  V30 48 H 2.014052 -0.666243 -5.419971 0
M  V30 49 H -0.262626 0.257282 -5.199246 0
M  V30 50 H -2.362782 -0.785053 -1.167532 0
M  V30 51 H -3.815147 1.545751 -2.427444 0
M  V30 52 H -4.465799 -0.020628 -3.102689 0
M  V30 53 H -5.994564 -1.229379 -1.974161 0
M  V30 54 H -7.449683 -1.700328 -0.107691 0
M  V30 55 H -7.158481 -0.440702 1.993898 0
M  V30 56 H -5.411029 1.255533 2.149606 0
M  V30 57 H -0.488183 -1.539702 -1.392496 0
M  V30 58 H 1.367433 0.123515 4.960290 0
M  V30 59 H 2.669635 1.560081 6.491879 0
M  V30 60 H 5.628674 2.084302 3.539812 0
M  V30 END ATOM
M  V30 BEGIN BOND
M  V30 1 1 1 2
M  V30 2 1 2 3
M  V30 3 1 3 4
M  V30 4 1 4 5
M  V30 5 1 5 6
M  V30 6 1 6 7
M  V30 7 1 7 8
M  V30 8 2 8 9
M  V30 9 1 9 10
M  V30 10 2 10 11
M  V30 11 1 11 12
M  V30 12 1 12 13
M  V30 13 2 13 14
M  V30 14 1 13 15
M  V30 15 1 15 16
M  V30 16 1 16 17
M  V30 17 2 17 18
M  V30 18 1 18 19
M  V30 19 2 19 20
M  V30 20 1 20 21
M  V30 21 2 21 22
M  V30 22 1 22 23
M  V30 23 1 23 24
M  V30 24 1 23 25
M  V30 25 1 23 26
M  V30 26 2 12 27
M  V30 27 2 5 28
M  V30 28 1 28 29
M  V30 29 2 29 30
M  V30 30 1 30 31
M  V30 31 2 31 32
M  V30 32 1 32 33
M  V30 33 2 33 34
M  V30 34 1 34 35
M  V30 35 2 35 36
M  V30 36 1 30 4
M  V30 37 1 36 31
M  V30 38 1 27 8
M  V30 39 1 22 17
M  V30 40 1 1 37
M  V30 41 1 1 38
M  V30 42 1 1 39
M  V30 43 1 2 40
M  V30 44 1 2 41
M  V30 45 1 3 42
M  V30 46 1 3 43
M  V30 47 1 6 44
M  V30 48 1 6 45
M  V30 49 1 7 46
M  V30 50 1 9 47
M  V30 51 1 10 48
M  V30 52 1 11 49
M  V30 53 1 15 50
M  V30 54 1 16 51
M  V30 55 1 16 52
M  V30 56 1 18 53
M  V30 57 1 19 54
M  V30 58 1 20 55
M  V30 59 1 21 56
M  V30 60 1 27 57
M  V30 61 1 32 58
M  V30 62 1 33 59
M  V30 63 1 35 60
M  V30 END BOND
M  V30 END CTAB
M  END
>  <Dataset>  (342) 
ChEMBL_Kinases

>  <Ligand_Instance>  (342) 
nan

>  <PDB_ID>  (342) 
nan

>  <Standardized_SMILES>  (342) 
CCCn1c(CNc2cccc(C(=O)NCc3ccccc3C(F)(F)F)c2)nnc1-c1ccncn1

>  <Name>  (342) 
nan

>  <Pocket>  (342) 
nan

>  <ATP_Site>  (342) 
nan

>  <Peripheral>  (342) 
nan

>  <Num_H_Atoms_ProtBoundConf>  (342) 
nan

>  <Num_Resolved_Atoms>  (342) 
nan

>  <Num_Not_Resolved_Atoms>  (342) 
nan

$$$$
CHEMBL4850733
     RDKit          3D

  0  0  0  0  0  0  0  0  0  0999 V3000
M  V30 BEGIN CTAB
M  V30 COUNTS 58 61 0 0 0
M  V30 BEGIN ATOM
M  V30 1 C -1.307316 -2.849258 5.788698 0
M  V30 2 C -0.839065 -2.799202 4.391332 0
M  V30 3 N 0.473508 -2.599237 4.185265 0
M  V30 4 C 0.974209 -2.537599 2.913811 0
M  V30 5 N 2.315268 -2.331458 2.495497 0
M  V30 6 C 2.920959 -1.163003 1.891583 0
M  V30 7 N 3.952904 -0.737500 1.498848 0
M  V30 8 C 4.073891 0.469250 0.951517 0
M  V30 9 C 2.955127 1.310507 0.812407 0
M  V30 10 C 3.208143 2.652831 0.165031 0
M  V30 11 O 4.257495 3.157859 -0.260121 0
M  V30 12 N 2.020827 3.387162 0.063096 0
M  V30 13 C 2.142917 4.690895 -0.548751 0
M  V30 14 C 2.402139 5.944316 -0.036163 0
M  V30 15 C 2.615690 6.055843 1.455024 0
M  V30 16 N 2.413006 6.850793 -1.019997 0
M  V30 17 O 2.172065 6.212592 -2.119704 0
M  V30 18 C 2.001561 4.921361 -1.907768 0
M  V30 19 C 1.704050 3.864559 -2.942218 0
M  V30 20 S 1.673964 0.232819 1.539386 0
M  V30 21 C 0.104446 -2.683800 1.824112 0
M  V30 22 C -1.250668 -2.889407 2.080230 0
M  V30 23 N -2.243473 -3.028487 1.073448 0
M  V30 24 C -3.565904 -3.564131 1.155535 0
M  V30 25 C -3.883921 -4.595297 0.098586 0
M  V30 26 N -3.399303 -4.177025 -1.237567 0
M  V30 27 C -2.401076 -5.067240 -1.709380 0
M  V30 28 C -1.927363 -4.752005 -3.082274 0
M  V30 29 O -1.339137 -3.516599 -3.251313 0
M  V30 30 C -3.059749 -2.779457 -1.182239 0
M  V30 31 C -1.882916 -2.531476 -0.259385 0
M  V30 32 N -1.718400 -2.947242 3.360897 0
M  V30 33 H -2.408671 -2.966579 5.792901 0
M  V30 34 H -0.895281 -3.674836 6.387931 0
M  V30 35 H -1.114880 -1.866706 6.308186 0
M  V30 36 H 3.029289 -3.071422 2.599732 0
M  V30 37 H 5.122990 0.663597 0.656187 0
M  V30 38 H 1.047003 3.099278 0.380435 0
M  V30 39 H 1.949780 5.358240 2.016177 0
M  V30 40 H 2.368242 7.103421 1.739590 0
M  V30 41 H 3.661651 5.898890 1.730721 0
M  V30 42 H 2.191855 2.922960 -2.652138 0
M  V30 43 H 0.622955 3.656569 -2.994685 0
M  V30 44 H 2.054836 4.157308 -3.939145 0
M  V30 45 H 0.413358 -2.645630 0.803878 0
M  V30 46 H -4.379944 -2.789145 1.151406 0
M  V30 47 H -3.652883 -4.075975 2.152848 0
M  V30 48 H -4.968587 -4.780748 0.035027 0
M  V30 49 H -3.383365 -5.547450 0.329675 0
M  V30 50 H -1.540871 -5.060294 -0.982187 0
M  V30 51 H -2.860842 -6.102835 -1.695431 0
M  V30 52 H -1.236737 -5.569935 -3.456338 0
M  V30 53 H -2.772601 -4.792837 -3.837649 0
M  V30 54 H -1.613249 -3.054997 -4.077346 0
M  V30 55 H -3.949294 -2.240426 -0.762434 0
M  V30 56 H -2.859188 -2.378508 -2.157168 0
M  V30 57 H -0.967005 -3.038351 -0.608480 0
M  V30 58 H -1.677829 -1.442803 -0.221850 0
M  V30 END ATOM
M  V30 BEGIN BOND
M  V30 1 1 1 2
M  V30 2 2 2 3
M  V30 3 1 3 4
M  V30 4 1 4 5
M  V30 5 1 5 6
M  V30 6 2 6 7
M  V30 7 1 7 8
M  V30 8 2 8 9
M  V30 9 1 9 10
M  V30 10 2 10 11
M  V30 11 1 10 12
M  V30 12 1 12 13
M  V30 13 1 13 14
M  V30 14 1 14 15
M  V30 15 2 14 16
M  V30 16 1 16 17
M  V30 17 1 17 18
M  V30 18 1 18 19
M  V30 19 1 9 20
M  V30 20 2 4 21
M  V30 21 1 21 22
M  V30 22 1 22 23
M  V30 23 1 23 24
M  V30 24 1 24 25
M  V30 25 1 25 26
M  V30 26 1 26 27
M  V30 27 1 27 28
M  V30 28 1 28 29
M  V30 29 1 26 30
M  V30 30 1 30 31
M  V30 31 2 22 32
M  V30 32 1 32 2
M  V30 33 1 20 6
M  V30 34 1 31 23
M  V30 35 2 18 13
M  V30 36 1 1 33
M  V30 37 1 1 34
M  V30 38 1 1 35
M  V30 39 1 5 36
M  V30 40 1 8 37
M  V30 41 1 12 38
M  V30 42 1 15 39
M  V30 43 1 15 40
M  V30 44 1 15 41
M  V30 45 1 19 42
M  V30 46 1 19 43
M  V30 47 1 19 44
M  V30 48 1 21 45
M  V30 49 1 24 46
M  V30 50 1 24 47
M  V30 51 1 25 48
M  V30 52 1 25 49
M  V30 53 1 27 50
M  V30 54 1 27 51
M  V30 55 1 28 52
M  V30 56 1 28 53
M  V30 57 1 29 54
M  V30 58 1 30 55
M  V30 59 1 30 56
M  V30 60 1 31 57
M  V30 61 1 31 58
M  V30 END BOND
M  V30 END CTAB
M  END
>  <Dataset>  (343) 
ChEMBL_Kinases

>  <Ligand_Instance>  (343) 
nan

>  <PDB_ID>  (343) 
nan

>  <Standardized_SMILES>  (343) 
Cc1nc(Nc2ncc(C(=O)Nc3c(C)noc3C)s2)cc(N2CCN(CCO)CC2)n1

>  <Name>  (343) 
nan

>  <Pocket>  (343) 
nan

>  <ATP_Site>  (343) 
nan

>  <Peripheral>  (343) 
nan

>  <Num_H_Atoms_ProtBoundConf>  (343) 
nan

>  <Num_Resolved_Atoms>  (343) 
nan

>  <Num_Not_Resolved_Atoms>  (343) 
nan

$$$$
CHEMBL3580976
     RDKit          3D

  0  0  0  0  0  0  0  0  0  0999 V3000
M  V30 BEGIN CTAB
M  V30 COUNTS 50 54 0 0 0
M  V30 BEGIN ATOM
M  V30 1 C -0.523472 0.181857 3.905934 0
M  V30 2 C 0.889858 0.779101 3.832882 0
M  V30 3 N 1.736174 -0.085608 3.054503 0
M  V30 4 C 3.033464 0.573487 3.044979 0
M  V30 5 C 3.027837 1.889310 2.397900 0
M  V30 6 C 3.012546 3.076519 3.135142 0
M  V30 7 C 2.999076 4.292035 2.444421 0
M  V30 8 C 3.000047 4.358296 1.070425 0
M  V30 9 N 2.987694 5.420562 0.249293 0
M  V30 10 C 2.995301 4.906781 -0.986752 0
M  V30 11 N 3.011585 3.563112 -0.961782 0
M  V30 12 C 3.014964 3.188844 0.308336 0
M  V30 13 C 3.028463 2.000996 1.004215 0
M  V30 14 Cl 3.057995 0.579761 -0.027842 0
M  V30 15 C 1.242923 -1.317569 2.481023 0
M  V30 16 N 1.421931 -2.589438 2.914074 0
M  V30 17 C 0.841329 -3.572643 2.198172 0
M  V30 18 C 0.085652 -3.366444 1.066350 0
M  V30 19 C -0.079129 -2.074665 0.652538 0
M  V30 20 N -0.830380 -1.701372 -0.490263 0
M  V30 21 C -1.497631 -2.525288 -1.425111 0
M  V30 22 C -2.715844 -3.155523 -1.553396 0
M  V30 23 C -2.700441 -3.799591 -2.772908 0
M  V30 24 C -3.857201 -4.593929 -3.259196 0
M  V30 25 C -5.238362 -4.232325 -2.692628 0
M  V30 26 C -4.510861 -5.433378 -2.168968 0
M  V30 27 N -1.517564 -3.563762 -3.351716 0
M  V30 28 N -0.775877 -2.793539 -2.549400 0
M  V30 29 N 0.501987 -1.129394 1.373865 0
M  V30 30 H -1.180293 0.827254 4.529915 0
M  V30 31 H -0.993882 0.216019 2.878534 0
M  V30 32 H -0.483024 -0.834888 4.325338 0
M  V30 33 H 0.788811 1.790713 3.386677 0
M  V30 34 H 1.213581 0.913034 4.884528 0
M  V30 35 H 3.480685 0.638853 4.058894 0
M  V30 36 H 3.733385 -0.075067 2.444020 0
M  V30 37 H 3.011577 3.001632 4.217006 0
M  V30 38 H 2.986876 5.210913 3.051785 0
M  V30 39 H 2.975087 6.459692 0.460545 0
M  V30 40 H 2.991120 5.395151 -1.971906 0
M  V30 41 H 0.996070 -4.580603 2.559797 0
M  V30 42 H -0.376041 -4.160234 0.497663 0
M  V30 43 H -0.961188 -0.701918 -0.749637 0
M  V30 44 H -3.424322 -3.051604 -0.747994 0
M  V30 45 H -3.817377 -5.020310 -4.281279 0
M  V30 46 H -6.122693 -4.371332 -3.334207 0
M  V30 47 H -5.282249 -3.359872 -1.998323 0
M  V30 48 H -4.098953 -5.410521 -1.148687 0
M  V30 49 H -4.881490 -6.438298 -2.488307 0
M  V30 50 H -1.296223 -3.966245 -4.299189 0
M  V30 END ATOM
M  V30 BEGIN BOND
M  V30 1 1 1 2
M  V30 2 1 2 3
M  V30 3 1 3 4
M  V30 4 1 4 5
M  V30 5 2 5 6
M  V30 6 1 6 7
M  V30 7 2 7 8
M  V30 8 1 8 9
M  V30 9 1 9 10
M  V30 10 2 10 11
M  V30 11 1 11 12
M  V30 12 2 12 13
M  V30 13 1 13 14
M  V30 14 1 3 15
M  V30 15 2 15 16
M  V30 16 1 16 17
M  V30 17 2 17 18
M  V30 18 1 18 19
M  V30 19 1 19 20
M  V30 20 1 20 21
M  V30 21 1 21 22
M  V30 22 2 22 23
M  V30 23 1 23 24
M  V30 24 1 24 25
M  V30 25 1 25 26
M  V30 26 1 23 27
M  V30 27 1 27 28
M  V30 28 2 19 29
M  V30 29 1 13 5
M  V30 30 1 29 15
M  V30 31 1 12 8
M  V30 32 2 28 21
M  V30 33 1 26 24
M  V30 34 1 1 30
M  V30 35 1 1 31
M  V30 36 1 1 32
M  V30 37 1 2 33
M  V30 38 1 2 34
M  V30 39 1 4 35
M  V30 40 1 4 36
M  V30 41 1 6 37
M  V30 42 1 7 38
M  V30 43 1 9 39
M  V30 44 1 10 40
M  V30 45 1 17 41
M  V30 46 1 18 42
M  V30 47 1 20 43
M  V30 48 1 22 44
M  V30 49 1 24 45
M  V30 50 1 25 46
M  V30 51 1 25 47
M  V30 52 1 26 48
M  V30 53 1 26 49
M  V30 54 1 27 50
M  V30 END BOND
M  V30 END CTAB
M  END
>  <Dataset>  (344) 
ChEMBL_Kinases

>  <Ligand_Instance>  (344) 
nan

>  <PDB_ID>  (344) 
nan

>  <Standardized_SMILES>  (344) 
CCN(Cc1ccc2[nH]cnc2c1Cl)c1nccc(Nc2cc(C3CC3)[nH]n2)n1

>  <Name>  (344) 
nan

>  <Pocket>  (344) 
nan

>  <ATP_Site>  (344) 
nan

>  <Peripheral>  (344) 
nan

>  <Num_H_Atoms_ProtBoundConf>  (344) 
nan

>  <Num_Resolved_Atoms>  (344) 
nan

>  <Num_Not_Resolved_Atoms>  (344) 
nan

$$$$
CHEMBL3589663
     RDKit          3D

  0  0  0  0  0  0  0  0  0  0999 V3000
M  V30 BEGIN CTAB
M  V30 COUNTS 34 37 0 0 0
M  V30 BEGIN ATOM
M  V30 1 C -1.034999 -5.113903 -1.525370 0
M  V30 2 O -1.032001 -3.734958 -1.179564 0
M  V30 3 C -0.098115 -3.271092 -0.262589 0
M  V30 4 C 0.817053 -4.128871 0.309401 0
M  V30 5 C 1.746412 -3.629744 1.231290 0
M  V30 6 C 1.714766 -2.289810 1.537613 0
M  V30 7 C 0.817597 -1.430478 0.981428 0
M  V30 8 C -0.088048 -1.936606 0.078178 0
M  V30 9 N -0.864399 -0.943718 -0.340668 0
M  V30 10 C -0.464964 0.175768 0.280983 0
M  V30 11 C -0.877413 1.483356 0.253272 0
M  V30 12 C -1.922407 1.811014 -0.561790 0
M  V30 13 C -2.401270 3.120981 -0.645899 0
M  V30 14 C -1.775831 4.077849 0.129606 0
M  V30 15 C -0.716908 3.790821 0.966760 0
M  V30 16 C -0.299297 2.479634 0.997994 0
M  V30 17 N 0.703913 2.100991 1.764395 0
M  V30 18 C 1.196045 0.863309 1.877871 0
M  V30 19 C 2.311328 0.688365 2.791011 0
M  V30 20 O 3.166498 -0.022549 3.331731 0
M  V30 21 O 2.840466 1.719912 3.532301 0
M  V30 22 C 0.591681 -0.095480 1.120090 0
M  V30 23 H -1.899264 -5.264424 -2.216057 0
M  V30 24 H -1.239148 -5.761860 -0.641501 0
M  V30 25 H -0.084737 -5.467898 -1.946826 0
M  V30 26 H 0.788261 -5.170103 0.025537 0
M  V30 27 H 2.414743 -4.398862 1.613495 0
M  V30 28 H 2.477022 -2.083674 2.243621 0
M  V30 29 H -1.650280 -0.959153 -1.018881 0
M  V30 30 H -2.424877 1.078531 -1.175774 0
M  V30 31 H -3.237008 3.377971 -1.299013 0
M  V30 32 H -2.136490 5.105105 0.076394 0
M  V30 33 H -0.207380 4.521942 1.586463 0
M  V30 34 H 2.867445 1.764148 4.542739 0
M  V30 END ATOM
M  V30 BEGIN BOND
M  V30 1 1 1 2
M  V30 2 1 2 3
M  V30 3 2 3 4
M  V30 4 1 4 5
M  V30 5 2 5 6
M  V30 6 1 6 7
M  V30 7 2 7 8
M  V30 8 1 8 9
M  V30 9 1 9 10
M  V30 10 2 10 11
M  V30 11 1 11 12
M  V30 12 2 12 13
M  V30 13 1 13 14
M  V30 14 2 14 15
M  V30 15 1 15 16
M  V30 16 2 16 17
M  V30 17 1 17 18
M  V30 18 1 18 19
M  V30 19 2 19 20
M  V30 20 1 19 21
M  V30 21 2 18 22
M  V30 22 1 8 3
M  V30 23 1 22 10
M  V30 24 1 22 7
M  V30 25 1 16 11
M  V30 26 1 1 23
M  V30 27 1 1 24
M  V30 28 1 1 25
M  V30 29 1 4 26
M  V30 30 1 5 27
M  V30 31 1 6 28
M  V30 32 1 9 29
M  V30 33 1 12 30
M  V30 34 1 13 31
M  V30 35 1 14 32
M  V30 36 1 15 33
M  V30 37 1 21 34
M  V30 END BOND
M  V30 END CTAB
M  END
>  <Dataset>  (345) 
ChEMBL_Kinases

>  <Ligand_Instance>  (345) 
nan

>  <PDB_ID>  (345) 
nan

>  <Standardized_SMILES>  (345) 
COc1cccc2c1[nH]c1c3ccccc3nc(C(=O)O)c21

>  <Name>  (345) 
nan

>  <Pocket>  (345) 
nan

>  <ATP_Site>  (345) 
nan

>  <Peripheral>  (345) 
nan

>  <Num_H_Atoms_ProtBoundConf>  (345) 
nan

>  <Num_Resolved_Atoms>  (345) 
nan

>  <Num_Not_Resolved_Atoms>  (345) 
nan

$$$$
CHEMBL3979920
     RDKit          3D

  0  0  0  0  0  0  0  0  0  0999 V3000
M  V30 BEGIN CTAB
M  V30 COUNTS 46 49 0 0 0
M  V30 BEGIN ATOM
M  V30 1 C -0.118439 -7.106842 2.845298 0
M  V30 2 N 0.037576 -5.958662 1.953397 0
M  V30 3 C -0.645401 -4.825120 2.097615 0
M  V30 4 C -0.301499 -3.915838 1.120901 0
M  V30 5 C -0.717668 -2.550604 0.779215 0
M  V30 6 N 0.295326 -1.706349 0.552962 0
M  V30 7 C 0.141887 -0.412406 0.223562 0
M  V30 8 N 1.258422 0.406677 -0.024070 0
M  V30 9 C 1.419160 1.808060 -0.318209 0 CFG=2
M  V30 10 C 2.777190 2.143389 -0.871741 0
M  V30 11 C 3.242732 3.517574 -0.655131 0
M  V30 12 C 2.715943 4.281209 0.499726 0
M  V30 13 C 1.235658 4.031189 0.739778 0
M  V30 14 C 1.154460 2.545184 0.974122 0 CFG=2
M  V30 15 N 2.215379 2.118291 1.904143 0
M  V30 16 C -1.173313 -0.005788 0.132084 0
M  V30 17 F -1.474640 1.248133 -0.212799 0
M  V30 18 C -2.268649 -0.809632 0.349007 0
M  V30 19 C -2.022168 -2.124043 0.682822 0
M  V30 20 C -3.269502 -2.851482 0.870287 0
M  V30 21 O -3.425049 -4.059322 1.176567 0
M  V30 22 N -4.311813 -1.913012 0.634499 0
M  V30 23 C -3.744701 -0.617237 0.314961 0
M  V30 24 C 0.657137 -4.603076 0.367141 0
M  V30 25 N 0.828024 -5.824344 0.903648 0
M  V30 26 H -1.160784 -7.162949 3.225472 0
M  V30 27 H 0.094077 -8.031771 2.292752 0
M  V30 28 H 0.541191 -6.987555 3.735271 0
M  V30 29 H -1.365075 -4.593768 2.847812 0
M  V30 30 H 2.191882 -0.082913 0.007131 0
M  V30 31 H 0.652230 2.116809 -1.036017 0
M  V30 32 H 3.474747 1.458733 -0.341963 0
M  V30 33 H 2.837313 1.868806 -1.946054 0
M  V30 34 H 3.022426 4.150079 -1.566437 0
M  V30 35 H 4.369339 3.561503 -0.571285 0
M  V30 36 H 2.921595 5.364112 0.403545 0
M  V30 37 H 3.230560 3.955322 1.448793 0
M  V30 38 H 0.897827 4.595290 1.613489 0
M  V30 39 H 0.705296 4.263944 -0.195538 0
M  V30 40 H 0.210875 2.298589 1.459145 0
M  V30 41 H 2.146317 2.715162 2.753991 0
M  V30 42 H 1.910525 1.150421 2.204923 0
M  V30 43 H -5.343175 -2.054948 0.666591 0
M  V30 44 H -4.035278 0.151841 1.063194 0
M  V30 45 H -4.109121 -0.357151 -0.711782 0
M  V30 46 H 1.189477 -4.241973 -0.504917 0
M  V30 END ATOM
M  V30 BEGIN BOND
M  V30 1 1 1 2
M  V30 2 1 2 3
M  V30 3 2 3 4
M  V30 4 1 4 5
M  V30 5 2 5 6
M  V30 6 1 6 7
M  V30 7 1 7 8
M  V30 8 1 8 9
M  V30 9 1 9 10
M  V30 10 1 10 11
M  V30 11 1 11 12
M  V30 12 1 12 13
M  V30 13 1 13 14
M  V30 14 1 14 15
M  V30 15 2 7 16
M  V30 16 1 16 17
M  V30 17 1 16 18
M  V30 18 2 18 19
M  V30 19 1 19 20
M  V30 20 2 20 21
M  V30 21 1 20 22
M  V30 22 1 22 23
M  V30 23 1 4 24
M  V30 24 2 24 25
M  V30 25 1 25 2
M  V30 26 1 19 5
M  V30 27 1 14 9
M  V30 28 1 23 18
M  V30 29 1 1 26
M  V30 30 1 1 27
M  V30 31 1 1 28
M  V30 32 1 3 29
M  V30 33 1 8 30
M  V30 34 1 9 31 CFG=3
M  V30 35 1 10 32
M  V30 36 1 10 33
M  V30 37 1 11 34
M  V30 38 1 11 35
M  V30 39 1 12 36
M  V30 40 1 12 37
M  V30 41 1 13 38
M  V30 42 1 13 39
M  V30 43 1 14 40 CFG=1
M  V30 44 1 15 41
M  V30 45 1 15 42
M  V30 46 1 22 43
M  V30 47 1 23 44
M  V30 48 1 23 45
M  V30 49 1 24 46
M  V30 END BOND
M  V30 END CTAB
M  END
>  <Dataset>  (346) 
ChEMBL_Kinases

>  <Ligand_Instance>  (346) 
nan

>  <PDB_ID>  (346) 
nan

>  <Standardized_SMILES>  (346) 
Cn1cc(-c2nc(N[C@@H]3CCCC[C@@H]3N)c(F)c3c2C(=O)NC3)cn1

>  <Name>  (346) 
MIVAVOTINIB

>  <Pocket>  (346) 
nan

>  <ATP_Site>  (346) 
nan

>  <Peripheral>  (346) 
nan

>  <Num_H_Atoms_ProtBoundConf>  (346) 
nan

>  <Num_Resolved_Atoms>  (346) 
nan

>  <Num_Not_Resolved_Atoms>  (346) 
nan

$$$$
CHEMBL3990456
     RDKit          3D

  0  0  0  0  0  0  0  0  0  0999 V3000
M  V30 BEGIN CTAB
M  V30 COUNTS 56 60 0 0 0
M  V30 BEGIN ATOM
M  V30 1 C -0.469886 -9.392662 -1.394552 0
M  V30 2 N -0.707642 -8.339507 -0.433886 0
M  V30 3 C -0.267686 -7.072171 -0.378798 0
M  V30 4 C -0.727378 -6.361244 0.722547 0
M  V30 5 C -0.383065 -4.976696 0.929359 0
M  V30 6 N 0.264780 -4.231316 0.017281 0
M  V30 7 C 0.472695 -2.993129 0.430257 0
M  V30 8 C 1.059111 -1.852588 -0.078116 0
M  V30 9 C 1.099496 -0.679782 0.649204 0
M  V30 10 N 1.713752 0.482636 0.097223 0
M  V30 11 C 0.784890 1.296452 -0.644318 0
M  V30 12 O -0.419402 0.870525 -0.698282 0
M  V30 13 C 0.965844 2.572048 -1.378662 0 CFG=2
M  V30 14 N 2.347482 3.035679 -1.291602 0
M  V30 15 C 0.041281 3.606939 -0.806632 0
M  V30 16 C 0.271422 3.890672 0.642333 0
M  V30 17 C -0.334895 5.222678 1.033759 0
M  V30 18 C -1.499632 5.525218 0.099993 0
M  V30 19 C -0.921657 5.868145 -1.248305 0
M  V30 20 C 0.140489 4.871471 -1.650909 0
M  V30 21 C 0.565281 -0.558765 1.919650 0
M  V30 22 C -0.022805 -1.692987 2.436561 0
M  V30 23 C -0.051690 -2.854851 1.694322 0
M  V30 24 C -0.571082 -4.107838 1.967889 0
M  V30 25 C -1.197576 -4.478817 3.221891 0
M  V30 26 N -1.608600 -3.778086 4.217583 0
M  V30 27 N -1.583933 -2.380003 4.425497 0
M  V30 28 C -0.604346 -1.531282 3.787278 0
M  V30 29 O -0.169052 -0.539996 4.398878 0
M  V30 30 C -1.485771 -7.322894 1.322568 0
M  V30 31 N -1.470038 -8.482333 0.639373 0
M  V30 32 H -1.420588 -9.972984 -1.513275 0
M  V30 33 H 0.315421 -10.064315 -1.053942 0
M  V30 34 H -0.198681 -8.912594 -2.378071 0
M  V30 35 H 0.394011 -6.761113 -1.201348 0
M  V30 36 H 0.611099 -4.487511 -0.934412 0
M  V30 37 H 1.484201 -1.913777 -1.067171 0
M  V30 38 H 2.676757 0.931124 0.073162 0
M  V30 39 H 0.671337 2.462101 -2.459175 0
M  V30 40 H 2.883148 2.428873 -1.977268 0
M  V30 41 H 2.718994 2.928080 -0.323459 0
M  V30 42 H -1.011350 3.238955 -0.955373 0
M  V30 43 H -0.264903 3.110512 1.226336 0
M  V30 44 H 1.347733 3.850215 0.871601 0
M  V30 45 H 0.393200 6.050592 0.949304 0
M  V30 46 H -0.734083 5.195777 2.059843 0
M  V30 47 H -2.159978 4.656099 -0.019024 0
M  V30 48 H -2.116013 6.348665 0.482608 0
M  V30 49 H -0.490581 6.890246 -1.225888 0
M  V30 50 H -1.772613 5.887043 -1.965368 0
M  V30 51 H 1.138243 5.331486 -1.550960 0
M  V30 52 H -0.037462 4.610818 -2.697124 0
M  V30 53 H 0.560634 0.322342 2.543147 0
M  V30 54 H -1.322513 -5.530234 3.350759 0
M  V30 55 H -2.231299 -1.824961 5.031532 0
M  V30 56 H -2.041593 -7.196818 2.207024 0
M  V30 END ATOM
M  V30 BEGIN BOND
M  V30 1 1 1 2
M  V30 2 1 2 3
M  V30 3 2 3 4
M  V30 4 1 4 5
M  V30 5 1 5 6
M  V30 6 1 6 7
M  V30 7 2 7 8
M  V30 8 1 8 9
M  V30 9 1 9 10
M  V30 10 1 10 11
M  V30 11 2 11 12
M  V30 12 1 11 13
M  V30 13 1 13 14
M  V30 14 1 13 15
M  V30 15 1 15 16
M  V30 16 1 16 17
M  V30 17 1 17 18
M  V30 18 1 18 19
M  V30 19 1 19 20
M  V30 20 2 9 21
M  V30 21 1 21 22
M  V30 22 2 22 23
M  V30 23 1 23 24
M  V30 24 1 24 25
M  V30 25 2 25 26
M  V30 26 1 26 27
M  V30 27 1 27 28
M  V30 28 2 28 29
M  V30 29 1 4 30
M  V30 30 2 30 31
M  V30 31 1 31 2
M  V30 32 2 24 5
M  V30 33 1 23 7
M  V30 34 1 20 15
M  V30 35 1 28 22
M  V30 36 1 1 32
M  V30 37 1 1 33
M  V30 38 1 1 34
M  V30 39 1 3 35
M  V30 40 1 6 36
M  V30 41 1 8 37
M  V30 42 1 10 38
M  V30 43 1 13 39 CFG=3
M  V30 44 1 14 40
M  V30 45 1 14 41
M  V30 46 1 15 42
M  V30 47 1 16 43
M  V30 48 1 16 44
M  V30 49 1 17 45
M  V30 50 1 17 46
M  V30 51 1 18 47
M  V30 52 1 18 48
M  V30 53 1 19 49
M  V30 54 1 19 50
M  V30 55 1 20 51
M  V30 56 1 20 52
M  V30 57 1 21 53
M  V30 58 1 25 54
M  V30 59 1 27 55
M  V30 60 1 30 56
M  V30 END BOND
M  V30 END CTAB
M  END
>  <Dataset>  (347) 
ChEMBL_Kinases

>  <Ligand_Instance>  (347) 
nan

>  <PDB_ID>  (347) 
nan

>  <Standardized_SMILES>  (347) 
Cn1cc(-c2[nH]c3cc(NC(=O)[C@H](N)C4CCCCC4)cc4c3c2C=NNC4=O)cn1

>  <Name>  (347) 
nan

>  <Pocket>  (347) 
nan

>  <ATP_Site>  (347) 
nan

>  <Peripheral>  (347) 
nan

>  <Num_H_Atoms_ProtBoundConf>  (347) 
nan

>  <Num_Resolved_Atoms>  (347) 
nan

>  <Num_Not_Resolved_Atoms>  (347) 
nan

$$$$
CHEMBL399167
     RDKit          3D

  0  0  0  0  0  0  0  0  0  0999 V3000
M  V30 BEGIN CTAB
M  V30 COUNTS 55 58 0 0 0
M  V30 BEGIN ATOM
M  V30 1 C 5.993581 0.772670 6.198647 0
M  V30 2 N 5.773259 0.421921 4.828897 0
M  V30 3 C 5.916666 -0.991725 4.654341 0
M  V30 4 C 6.520085 1.195481 3.875326 0
M  V30 5 C 6.141880 0.665958 2.501885 0
M  V30 6 N 4.699818 0.856424 2.358721 0
M  V30 7 C 4.042075 0.452102 1.161063 0
M  V30 8 O 4.836391 -0.057715 0.306487 0
M  V30 9 C 2.606893 0.607934 0.940845 0
M  V30 10 C 1.700811 1.153407 1.832340 0
M  V30 11 C 0.362542 1.246777 1.507309 0
M  V30 12 C -0.114330 0.797305 0.278807 0
M  V30 13 C -1.553477 0.964593 0.083420 0
M  V30 14 N -2.275048 2.057022 0.370778 0
M  V30 15 N -3.546556 1.860978 0.066777 0
M  V30 16 C -3.626722 0.612575 -0.424645 0
M  V30 17 C -4.731229 -0.052574 -0.878399 0
M  V30 18 C -4.679582 -1.363831 -1.370677 0
M  V30 19 N -5.830785 -2.048014 -1.820334 0
M  V30 20 C -6.084553 -2.976106 -2.853758 0
M  V30 21 C -5.193661 -3.447422 -3.786048 0
M  V30 22 C -5.475630 -4.366125 -4.770517 0
M  V30 23 C -6.760090 -4.856154 -4.828644 0
M  V30 24 C -7.688313 -4.413203 -3.915810 0
M  V30 25 C -7.352061 -3.499522 -2.959328 0
M  V30 26 Cl -8.642012 -3.016121 -1.849184 0
M  V30 27 C -3.413617 -1.910886 -1.350571 0
M  V30 28 C -2.267309 -1.287484 -0.905553 0
M  V30 29 C -2.394739 0.002937 -0.435568 0
M  V30 30 C 0.787214 0.251651 -0.614938 0
M  V30 31 C 2.125824 0.163431 -0.277900 0
M  V30 32 H 5.070599 0.490470 6.757423 0
M  V30 33 H 6.836531 0.232698 6.644018 0
M  V30 34 H 6.151859 1.847929 6.371932 0
M  V30 35 H 5.667450 -1.541997 5.583490 0
M  V30 36 H 5.193997 -1.315100 3.866940 0
M  V30 37 H 6.925827 -1.319221 4.332077 0
M  V30 38 H 6.173245 2.243836 3.961250 0
M  V30 39 H 7.609085 1.197658 4.037557 0
M  V30 40 H 6.724878 1.250087 1.757507 0
M  V30 41 H 6.417521 -0.407202 2.502045 0
M  V30 42 H 4.107500 1.286816 3.111753 0
M  V30 43 H 2.105316 1.492601 2.777448 0
M  V30 44 H -0.237471 1.688098 2.282299 0
M  V30 45 H -4.278056 2.596036 0.215822 0
M  V30 46 H -5.703198 0.420986 -0.872645 0
M  V30 47 H -6.648459 -1.763710 -1.207682 0
M  V30 48 H -4.190828 -3.075386 -3.773099 0
M  V30 49 H -4.724477 -4.691161 -5.469207 0
M  V30 50 H -7.060069 -5.581766 -5.574359 0
M  V30 51 H -8.688465 -4.815071 -3.985719 0
M  V30 52 H -3.222541 -2.910745 -1.681952 0
M  V30 53 H -1.297069 -1.716453 -0.894349 0
M  V30 54 H 0.356701 -0.079013 -1.550883 0
M  V30 55 H 2.777882 -0.267610 -1.008187 0
M  V30 END ATOM
M  V30 BEGIN BOND
M  V30 1 1 1 2
M  V30 2 1 2 3
M  V30 3 1 2 4
M  V30 4 1 4 5
M  V30 5 1 5 6
M  V30 6 1 6 7
M  V30 7 2 7 8
M  V30 8 1 7 9
M  V30 9 2 9 10
M  V30 10 1 10 11
M  V30 11 2 11 12
M  V30 12 1 12 13
M  V30 13 2 13 14
M  V30 14 1 14 15
M  V30 15 1 15 16
M  V30 16 2 16 17
M  V30 17 1 17 18
M  V30 18 1 18 19
M  V30 19 1 19 20
M  V30 20 2 20 21
M  V30 21 1 21 22
M  V30 22 2 22 23
M  V30 23 1 23 24
M  V30 24 2 24 25
M  V30 25 1 25 26
M  V30 26 2 18 27
M  V30 27 1 27 28
M  V30 28 2 28 29
M  V30 29 1 12 30
M  V30 30 2 30 31
M  V30 31 1 31 9
M  V30 32 1 29 13
M  V30 33 1 29 16
M  V30 34 1 25 20
M  V30 35 1 1 32
M  V30 36 1 1 33
M  V30 37 1 1 34
M  V30 38 1 3 35
M  V30 39 1 3 36
M  V30 40 1 3 37
M  V30 41 1 4 38
M  V30 42 1 4 39
M  V30 43 1 5 40
M  V30 44 1 5 41
M  V30 45 1 6 42
M  V30 46 1 10 43
M  V30 47 1 11 44
M  V30 48 1 15 45
M  V30 49 1 17 46
M  V30 50 1 19 47
M  V30 51 1 21 48
M  V30 52 1 22 49
M  V30 53 1 23 50
M  V30 54 1 24 51
M  V30 55 1 27 52
M  V30 56 1 28 53
M  V30 57 1 30 54
M  V30 58 1 31 55
M  V30 END BOND
M  V30 END CTAB
M  END
>  <Dataset>  (348) 
ChEMBL_Kinases

>  <Ligand_Instance>  (348) 
nan

>  <PDB_ID>  (348) 
nan

>  <Standardized_SMILES>  (348) 
CN(C)CCNC(=O)c1ccc(-c2n[nH]c3cc(Nc4ccccc4Cl)ccc23)cc1

>  <Name>  (348) 
nan

>  <Pocket>  (348) 
nan

>  <ATP_Site>  (348) 
nan

>  <Peripheral>  (348) 
nan

>  <Num_H_Atoms_ProtBoundConf>  (348) 
nan

>  <Num_Resolved_Atoms>  (348) 
nan

>  <Num_Not_Resolved_Atoms>  (348) 
nan

$$$$
CHEMBL3644034
     RDKit          3D

  0  0  0  0  0  0  0  0  0  0999 V3000
M  V30 BEGIN CTAB
M  V30 COUNTS 48 49 0 0 0
M  V30 BEGIN ATOM
M  V30 1 C -2.734738 -1.324576 1.875109 0
M  V30 2 C -1.957348 -2.215102 0.923362 0 CFG=1
M  V30 3 O -1.031720 -2.964589 1.681411 0
M  V30 4 C 0.316718 -2.743237 1.389468 0
M  V30 5 N 0.685224 -1.863274 0.433834 0
M  V30 6 C 1.980904 -1.629328 0.131160 0
M  V30 7 N 2.147656 -0.669957 -0.903774 0
M  V30 8 C 2.232823 0.731580 -0.603349 0
M  V30 9 C 2.401871 1.703521 -1.566788 0
M  V30 10 C 2.475147 3.040878 -1.230383 0
M  V30 11 C 2.383142 3.460325 0.074713 0
M  V30 12 S 2.461230 5.135766 0.607639 0
M  V30 13 C 0.782865 5.779168 0.616205 0
M  V30 14 O 2.932476 5.152242 2.028183 0
M  V30 15 O 3.325147 5.946842 -0.314335 0
M  V30 16 C 2.212935 2.469363 1.036628 0
M  V30 17 C 2.138316 1.129926 0.712454 0
M  V30 18 N 2.942821 -2.307621 0.817168 0
M  V30 19 C 2.620672 -3.195082 1.778836 0
M  V30 20 C 1.296925 -3.440540 2.094862 0
M  V30 21 C 0.919953 -4.409385 3.142464 0
M  V30 22 F 0.136707 -5.400754 2.537949 0
M  V30 23 F 0.229230 -3.807251 4.180251 0
M  V30 24 F 2.059484 -4.984110 3.656052 0
M  V30 25 C -2.921295 -3.070172 0.137589 0
M  V30 26 C -3.809307 -2.132501 -0.639763 0
M  V30 27 C -3.765471 -3.937575 1.050456 0
M  V30 28 O -2.272270 -3.890815 -0.760849 0
M  V30 29 H -2.882171 -1.832927 2.850470 0
M  V30 30 H -2.110454 -0.428919 2.076989 0
M  V30 31 H -3.684570 -0.984850 1.441680 0
M  V30 32 H -1.433453 -1.555838 0.193853 0
M  V30 33 H 2.216435 -0.929725 -1.932291 0
M  V30 34 H 2.478471 1.401219 -2.613797 0
M  V30 35 H 2.607424 3.809823 -1.976636 0
M  V30 36 H 0.746462 6.758332 1.107953 0
M  V30 37 H 0.355786 5.786655 -0.396015 0
M  V30 38 H 0.179598 5.061890 1.232300 0
M  V30 39 H 2.131947 2.725871 2.090987 0
M  V30 40 H 2.004093 0.400057 1.512939 0
M  V30 41 H 3.431309 -3.699488 2.285505 0
M  V30 42 H -4.162029 -2.615385 -1.582165 0
M  V30 43 H -4.729774 -1.853493 -0.079718 0
M  V30 44 H -3.307356 -1.178686 -0.920839 0
M  V30 45 H -3.582015 -5.017776 0.850530 0
M  V30 46 H -3.500152 -3.721940 2.120518 0
M  V30 47 H -4.851874 -3.766035 0.856959 0
M  V30 48 H -1.353749 -4.089741 -0.511048 0
M  V30 END ATOM
M  V30 BEGIN BOND
M  V30 1 1 1 2
M  V30 2 1 2 3
M  V30 3 1 3 4
M  V30 4 2 4 5
M  V30 5 1 5 6
M  V30 6 1 6 7
M  V30 7 1 7 8
M  V30 8 2 8 9
M  V30 9 1 9 10
M  V30 10 2 10 11
M  V30 11 1 11 12
M  V30 12 1 12 13
M  V30 13 2 12 14
M  V30 14 2 12 15
M  V30 15 1 11 16
M  V30 16 2 16 17
M  V30 17 2 6 18
M  V30 18 1 18 19
M  V30 19 2 19 20
M  V30 20 1 20 21
M  V30 21 1 21 22
M  V30 22 1 21 23
M  V30 23 1 21 24
M  V30 24 1 2 25
M  V30 25 1 25 26
M  V30 26 1 25 27
M  V30 27 1 25 28
M  V30 28 1 20 4
M  V30 29 1 17 8
M  V30 30 1 1 29
M  V30 31 1 1 30
M  V30 32 1 1 31
M  V30 33 1 2 32 CFG=3
M  V30 34 1 7 33
M  V30 35 1 9 34
M  V30 36 1 10 35
M  V30 37 1 13 36
M  V30 38 1 13 37
M  V30 39 1 13 38
M  V30 40 1 16 39
M  V30 41 1 17 40
M  V30 42 1 19 41
M  V30 43 1 26 42
M  V30 44 1 26 43
M  V30 45 1 26 44
M  V30 46 1 27 45
M  V30 47 1 27 46
M  V30 48 1 27 47
M  V30 49 1 28 48
M  V30 END BOND
M  V30 END CTAB
M  END
>  <Dataset>  (349) 
ChEMBL_Kinases

>  <Ligand_Instance>  (349) 
nan

>  <PDB_ID>  (349) 
nan

>  <Standardized_SMILES>  (349) 
C[C@@H](Oc1nc(Nc2ccc(S(C)(=O)=O)cc2)ncc1C(F)(F)F)C(C)(C)O

>  <Name>  (349) 
nan

>  <Pocket>  (349) 
nan

>  <ATP_Site>  (349) 
nan

>  <Peripheral>  (349) 
nan

>  <Num_H_Atoms_ProtBoundConf>  (349) 
nan

>  <Num_Resolved_Atoms>  (349) 
nan

>  <Num_Not_Resolved_Atoms>  (349) 
nan

$$$$
CHEMBL3644033
     RDKit          3D

  0  0  0  0  0  0  0  0  0  0999 V3000
M  V30 BEGIN CTAB
M  V30 COUNTS 45 46 0 0 0
M  V30 BEGIN ATOM
M  V30 1 C -0.061789 -4.171312 -2.209969 0
M  V30 2 C -0.420454 -3.982360 -0.772384 0 CFG=1
M  V30 3 O 0.670267 -3.409715 -0.078999 0
M  V30 4 C -1.606374 -3.031291 -0.589359 0 CFG=1
M  V30 5 C -2.830870 -3.701600 -1.184743 0
M  V30 6 O -1.826802 -2.962202 0.788887 0
M  V30 7 C -1.720351 -1.854876 1.598446 0
M  V30 8 N -1.384379 -0.613589 1.221495 0
M  V30 9 C -1.303394 0.409067 2.087688 0
M  V30 10 N -0.988323 1.771712 1.892902 0
M  V30 11 C 0.362549 2.218787 1.655767 0
M  V30 12 C 0.756926 3.557447 1.660533 0
M  V30 13 C 2.073472 3.868321 1.398343 0
M  V30 14 C 2.993730 2.868072 1.133729 0
M  V30 15 S 4.653928 3.340604 0.838644 0
M  V30 16 C 4.888954 3.924158 -0.824619 0
M  V30 17 O 5.064461 4.377992 1.814114 0
M  V30 18 O 5.581597 2.147486 1.017748 0
M  V30 19 C 2.629473 1.535867 1.122001 0
M  V30 20 C 1.303022 1.246440 1.388058 0
M  V30 21 N -1.582218 0.114400 3.368509 0
M  V30 22 C -1.925575 -1.092453 3.827132 0
M  V30 23 C -2.011339 -2.158169 2.935922 0
M  V30 24 C -2.391232 -3.490908 3.430929 0
M  V30 25 F -2.624004 -3.500433 4.796376 0
M  V30 26 F -3.589563 -3.831750 2.789914 0
M  V30 27 F -1.491141 -4.470780 3.093050 0
M  V30 28 H 0.344267 -5.209392 -2.309157 0
M  V30 29 H -0.898166 -4.009488 -2.893623 0
M  V30 30 H 0.819109 -3.506594 -2.444403 0
M  V30 31 H -0.669084 -4.907441 -0.219583 0
M  V30 32 H 0.918505 -2.550706 -0.487113 0
M  V30 33 H -1.358020 -2.072979 -1.060119 0
M  V30 34 H -3.755354 -3.194625 -0.846537 0
M  V30 35 H -2.782575 -4.762598 -0.812592 0
M  V30 36 H -2.813319 -3.746482 -2.274603 0
M  V30 37 H -1.730336 2.506646 1.918449 0
M  V30 38 H -0.050055 4.235197 1.875911 0
M  V30 39 H 2.336944 4.907297 1.409852 0
M  V30 40 H 4.856476 5.045368 -0.868890 0
M  V30 41 H 5.942525 3.673309 -1.108958 0
M  V30 42 H 4.208847 3.463330 -1.537480 0
M  V30 43 H 3.353743 0.732533 0.911789 0
M  V30 44 H 1.023756 0.181583 1.377575 0
M  V30 45 H -2.139001 -1.266875 4.889514 0
M  V30 END ATOM
M  V30 BEGIN BOND
M  V30 1 1 1 2
M  V30 2 1 2 3
M  V30 3 1 2 4
M  V30 4 1 4 5
M  V30 5 1 4 6
M  V30 6 1 6 7
M  V30 7 2 7 8
M  V30 8 1 8 9
M  V30 9 1 9 10
M  V30 10 1 10 11
M  V30 11 2 11 12
M  V30 12 1 12 13
M  V30 13 2 13 14
M  V30 14 1 14 15
M  V30 15 1 15 16
M  V30 16 2 15 17
M  V30 17 2 15 18
M  V30 18 1 14 19
M  V30 19 2 19 20
M  V30 20 2 9 21
M  V30 21 1 21 22
M  V30 22 2 22 23
M  V30 23 1 23 24
M  V30 24 1 24 25
M  V30 25 1 24 26
M  V30 26 1 24 27
M  V30 27 1 23 7
M  V30 28 1 20 11
M  V30 29 1 1 28
M  V30 30 1 1 29
M  V30 31 1 1 30
M  V30 32 1 2 31 CFG=1
M  V30 33 1 3 32
M  V30 34 1 4 33 CFG=3
M  V30 35 1 5 34
M  V30 36 1 5 35
M  V30 37 1 5 36
M  V30 38 1 10 37
M  V30 39 1 12 38
M  V30 40 1 13 39
M  V30 41 1 16 40
M  V30 42 1 16 41
M  V30 43 1 16 42
M  V30 44 1 19 43
M  V30 45 1 20 44
M  V30 46 1 22 45
M  V30 END BOND
M  V30 END CTAB
M  END
>  <Dataset>  (350) 
ChEMBL_Kinases

>  <Ligand_Instance>  (350) 
nan

>  <PDB_ID>  (350) 
nan

>  <Standardized_SMILES>  (350) 
C[C@@H](O)[C@@H](C)Oc1nc(Nc2ccc(S(C)(=O)=O)cc2)ncc1C(F)(F)F

>  <Name>  (350) 
nan

>  <Pocket>  (350) 
nan

>  <ATP_Site>  (350) 
nan

>  <Peripheral>  (350) 
nan

>  <Num_H_Atoms_ProtBoundConf>  (350) 
nan

>  <Num_Resolved_Atoms>  (350) 
nan

>  <Num_Not_Resolved_Atoms>  (350) 
nan

$$$$
CHEMBL3644032
     RDKit          3D

  0  0  0  0  0  0  0  0  0  0999 V3000
M  V30 BEGIN CTAB
M  V30 COUNTS 49 51 0 0 0
M  V30 BEGIN ATOM
M  V30 1 C -1.762113 -2.355644 2.226219 0
M  V30 2 C -1.303783 -3.739498 2.634704 0 CFG=1
M  V30 3 O -2.360233 -4.648282 2.483745 0
M  V30 4 C -0.158106 -4.200793 1.727099 0 CFG=1
M  V30 5 C 0.442821 -5.469326 2.239532 0
M  V30 6 O -0.539110 -4.240303 0.392162 0
M  V30 7 C -0.014296 -3.443898 -0.612886 0
M  V30 8 N 0.942161 -2.520493 -0.422055 0
M  V30 9 C 1.432902 -1.760321 -1.420964 0
M  V30 10 N 2.438808 -0.847736 -0.996651 0
M  V30 11 C 2.082003 0.461629 -0.563647 0
M  V30 12 C 2.982603 1.436065 -0.115853 0
M  V30 13 C 2.525943 2.676483 0.281300 0
M  V30 14 C 1.180996 2.992096 0.249838 0
M  V30 15 S 0.572343 4.560983 0.750826 0
M  V30 16 O 1.700403 5.544452 0.603333 0
M  V30 17 O -0.652348 4.940974 0.010123 0
M  V30 18 C 0.176401 4.534980 2.503048 0
M  V30 19 C -1.166707 4.041805 2.928480 0
M  V30 20 C -0.820788 5.501199 3.018267 0
M  V30 21 C 0.230906 2.069487 -0.184670 0
M  V30 22 C 0.758067 0.852819 -0.565662 0
M  V30 23 N 0.963192 -1.906042 -2.693784 0
M  V30 24 C -0.003124 -2.818631 -2.964765 0
M  V30 25 C -0.487195 -3.588761 -1.901145 0
M  V30 26 C -1.555270 -4.602593 -2.179164 0
M  V30 27 F -1.906846 -4.614608 -3.503373 0
M  V30 28 F -1.069059 -5.835166 -1.786591 0
M  V30 29 F -2.649017 -4.302949 -1.362350 0
M  V30 30 H -2.721245 -2.399406 1.672878 0
M  V30 31 H -0.955473 -1.849811 1.690758 0
M  V30 32 H -1.961007 -1.714062 3.133230 0
M  V30 33 H -0.996979 -3.745998 3.692511 0
M  V30 34 H -2.825798 -4.781541 3.359199 0
M  V30 35 H 0.627146 -3.416439 1.817430 0
M  V30 36 H 1.556906 -5.508759 2.057937 0
M  V30 37 H 0.345122 -5.555281 3.341769 0
M  V30 38 H 0.014143 -6.384088 1.809506 0
M  V30 39 H 3.480882 -1.041372 -0.964199 0
M  V30 40 H 4.024486 1.155065 -0.104535 0
M  V30 41 H 3.251155 3.422025 0.627870 0
M  V30 42 H 1.018369 4.304022 3.185476 0
M  V30 43 H -1.799340 3.672955 2.074004 0
M  V30 44 H -1.269769 3.470074 3.876614 0
M  V30 45 H -0.710372 5.918620 4.034085 0
M  V30 46 H -1.313178 6.193231 2.297198 0
M  V30 47 H -0.831884 2.241293 -0.237518 0
M  V30 48 H 0.035063 0.107067 -0.912030 0
M  V30 49 H -0.356881 -2.912978 -3.981700 0
M  V30 END ATOM
M  V30 BEGIN BOND
M  V30 1 1 1 2
M  V30 2 1 2 3
M  V30 3 1 2 4
M  V30 4 1 4 5
M  V30 5 1 4 6
M  V30 6 1 6 7
M  V30 7 2 7 8
M  V30 8 1 8 9
M  V30 9 1 9 10
M  V30 10 1 10 11
M  V30 11 2 11 12
M  V30 12 1 12 13
M  V30 13 2 13 14
M  V30 14 1 14 15
M  V30 15 2 15 16
M  V30 16 2 15 17
M  V30 17 1 15 18
M  V30 18 1 18 19
M  V30 19 1 19 20
M  V30 20 1 14 21
M  V30 21 2 21 22
M  V30 22 2 9 23
M  V30 23 1 23 24
M  V30 24 2 24 25
M  V30 25 1 25 26
M  V30 26 1 26 27
M  V30 27 1 26 28
M  V30 28 1 26 29
M  V30 29 1 25 7
M  V30 30 1 22 11
M  V30 31 1 20 18
M  V30 32 1 1 30
M  V30 33 1 1 31
M  V30 34 1 1 32
M  V30 35 1 2 33 CFG=1
M  V30 36 1 3 34
M  V30 37 1 4 35 CFG=3
M  V30 38 1 5 36
M  V30 39 1 5 37
M  V30 40 1 5 38
M  V30 41 1 10 39
M  V30 42 1 12 40
M  V30 43 1 13 41
M  V30 44 1 18 42
M  V30 45 1 19 43
M  V30 46 1 19 44
M  V30 47 1 20 45
M  V30 48 1 20 46
M  V30 49 1 21 47
M  V30 50 1 22 48
M  V30 51 1 24 49
M  V30 END BOND
M  V30 END CTAB
M  END
>  <Dataset>  (351) 
ChEMBL_Kinases

>  <Ligand_Instance>  (351) 
nan

>  <PDB_ID>  (351) 
nan

>  <Standardized_SMILES>  (351) 
C[C@@H](O)[C@@H](C)Oc1nc(Nc2ccc(S(=O)(=O)C3CC3)cc2)ncc1C(F)(F)F

>  <Name>  (351) 
nan

>  <Pocket>  (351) 
nan

>  <ATP_Site>  (351) 
nan

>  <Peripheral>  (351) 
nan

>  <Num_H_Atoms_ProtBoundConf>  (351) 
nan

>  <Num_Resolved_Atoms>  (351) 
nan

>  <Num_Not_Resolved_Atoms>  (351) 
nan

$$$$
CHEMBL48665
     RDKit          3D

  0  0  0  0  0  0  0  0  0  0999 V3000
M  V30 BEGIN CTAB
M  V30 COUNTS 63 66 0 0 0
M  V30 BEGIN ATOM
M  V30 1 C 3.748933 -2.376576 3.914129 0
M  V30 2 O 3.463819 -1.099910 3.403461 0
M  V30 3 C 4.361955 -0.096405 3.221783 0
M  V30 4 O 5.126561 -0.955543 3.677790 0
M  V30 5 C 4.672703 1.241317 2.808619 0
M  V30 6 C 5.977691 1.583494 3.135747 0
M  V30 7 C 6.306956 2.892358 2.897625 0
M  V30 8 C 5.431139 3.803509 2.379198 0
M  V30 9 C 4.125022 3.396097 2.066588 0
M  V30 10 O 3.296549 4.406055 1.537687 0
M  V30 11 C 3.729760 2.078521 2.282914 0
M  V30 12 C 2.368889 1.791141 1.958220 0
M  V30 13 O 1.636874 2.841497 2.084431 0
M  V30 14 C 1.482591 0.754789 1.530772 0
M  V30 15 C 0.135453 0.809225 1.771911 0
M  V30 16 O -0.447394 1.827960 2.510138 0
M  V30 17 C -0.722326 -0.180201 1.273770 0
M  V30 18 C -0.238952 -1.229765 0.531689 0
M  V30 19 C -1.189926 -2.212672 0.051960 0
M  V30 20 O -0.727884 -3.177619 -0.624022 0
M  V30 21 O -2.533452 -2.155196 0.285378 0
M  V30 22 C -3.458332 -3.095778 -0.176649 0
M  V30 23 C -4.033999 -3.915385 0.984073 0
M  V30 24 C -4.990926 -4.784931 0.180032 0
M  V30 25 C -5.739148 -3.698603 -0.585307 0
M  V30 26 C -4.677819 -2.607839 -0.831313 0
M  V30 27 C -4.526985 -2.468206 -2.312577 0
M  V30 28 C -3.492998 -1.542555 -2.771038 0
M  V30 29 C -2.177554 -1.725112 -3.129464 0
M  V30 30 C -1.361247 -0.697469 -3.530110 0
M  V30 31 C -1.861072 0.604840 -3.586636 0
M  V30 32 O -0.932875 1.551572 -4.007063 0
M  V30 33 C -3.173334 0.845934 -3.238538 0
M  V30 34 C -3.967828 -0.225686 -2.837411 0
M  V30 35 C 1.107833 -1.310911 0.271783 0
M  V30 36 C 1.934290 -0.329219 0.768718 0
M  V30 37 O 3.248602 -0.569945 0.401316 0
M  V30 38 H 4.381973 -2.925179 3.209930 0
M  V30 39 H 4.179596 -2.339399 4.955157 0
M  V30 40 H 2.770102 -2.937631 3.938952 0
M  V30 41 H 6.715096 0.919149 3.544725 0
M  V30 42 H 7.287566 3.274764 3.109151 0
M  V30 43 H 5.719466 4.828643 2.205098 0
M  V30 44 H 2.756326 4.940063 2.232167 0
M  V30 45 H -1.248199 2.329240 2.135573 0
M  V30 46 H -1.766090 -0.107605 1.479509 0
M  V30 47 H -2.927823 -3.843023 -0.793146 0
M  V30 48 H -4.637446 -3.281874 1.663474 0
M  V30 49 H -3.228916 -4.483307 1.469678 0
M  V30 50 H -5.636724 -5.413278 0.789452 0
M  V30 51 H -4.352600 -5.345345 -0.550800 0
M  V30 52 H -6.127453 -4.103512 -1.532219 0
M  V30 53 H -6.544810 -3.345729 0.074613 0
M  V30 54 H -5.106871 -1.684048 -0.375816 0
M  V30 55 H -5.539667 -2.216516 -2.740438 0
M  V30 56 H -4.335929 -3.504073 -2.714223 0
M  V30 57 H -1.897063 -2.782431 -3.052339 0
M  V30 58 H -0.345507 -0.977714 -3.784735 0
M  V30 59 H -0.476406 2.192769 -3.381026 0
M  V30 60 H -3.508217 1.851369 -3.298241 0
M  V30 61 H -4.981637 0.102182 -2.591453 0
M  V30 62 H 1.401207 -2.165824 -0.317695 0
M  V30 63 H 3.892996 0.112956 0.045338 0
M  V30 END ATOM
M  V30 BEGIN BOND
M  V30 1 1 1 2
M  V30 2 1 2 3
M  V30 3 2 3 4
M  V30 4 1 3 5
M  V30 5 2 5 6
M  V30 6 1 6 7
M  V30 7 2 7 8
M  V30 8 1 8 9
M  V30 9 1 9 10
M  V30 10 2 9 11
M  V30 11 1 11 12
M  V30 12 2 12 13
M  V30 13 1 12 14
M  V30 14 2 14 15
M  V30 15 1 15 16
M  V30 16 1 15 17
M  V30 17 2 17 18
M  V30 18 1 18 19
M  V30 19 2 19 20
M  V30 20 1 19 21
M  V30 21 1 21 22
M  V30 22 1 22 23
M  V30 23 1 23 24
M  V30 24 1 24 25
M  V30 25 1 25 26
M  V30 26 1 26 27
M  V30 27 1 27 28
M  V30 28 2 28 29
M  V30 29 1 29 30
M  V30 30 2 30 31
M  V30 31 1 31 32
M  V30 32 1 31 33
M  V30 33 2 33 34
M  V30 34 1 18 35
M  V30 35 2 35 36
M  V30 36 1 36 37
M  V30 37 1 11 5
M  V30 38 1 36 14
M  V30 39 1 26 22
M  V30 40 1 34 28
M  V30 41 1 1 38
M  V30 42 1 1 39
M  V30 43 1 1 40
M  V30 44 1 6 41
M  V30 45 1 7 42
M  V30 46 1 8 43
M  V30 47 1 10 44
M  V30 48 1 16 45
M  V30 49 1 17 46
M  V30 50 1 22 47
M  V30 51 1 23 48
M  V30 52 1 23 49
M  V30 53 1 24 50
M  V30 54 1 24 51
M  V30 55 1 25 52
M  V30 56 1 25 53
M  V30 57 1 26 54
M  V30 58 1 27 55
M  V30 59 1 27 56
M  V30 60 1 29 57
M  V30 61 1 30 58
M  V30 62 1 32 59
M  V30 63 1 33 60
M  V30 64 1 34 61
M  V30 65 1 35 62
M  V30 66 1 37 63
M  V30 END BOND
M  V30 END CTAB
M  END
>  <Dataset>  (352) 
ChEMBL_Kinases

>  <Ligand_Instance>  (352) 
nan

>  <PDB_ID>  (352) 
nan

>  <Standardized_SMILES>  (352) 
COC(=O)c1cccc(O)c1C(=O)c1c(O)cc(C(=O)OC2CCCC2Cc2ccc(O)cc2)cc1O

>  <Name>  (352) 
nan

>  <Pocket>  (352) 
nan

>  <ATP_Site>  (352) 
nan

>  <Peripheral>  (352) 
nan

>  <Num_H_Atoms_ProtBoundConf>  (352) 
nan

>  <Num_Resolved_Atoms>  (352) 
nan

>  <Num_Not_Resolved_Atoms>  (352) 
nan

$$$$
CHEMBL148333
     RDKit          3D

  0  0  0  0  0  0  0  0  0  0999 V3000
M  V30 BEGIN CTAB
M  V30 COUNTS 33 34 0 0 0
M  V30 BEGIN ATOM
M  V30 1 C -2.204279 -1.883582 2.159880 0
M  V30 2 N -1.090551 -2.519394 2.823051 0
M  V30 3 C -0.465120 -3.522095 1.989599 0
M  V30 4 C 0.242674 -2.869389 0.805858 0
M  V30 5 N 1.247805 -1.996777 1.381376 0
M  V30 6 S 2.148922 -1.166315 0.176821 0
M  V30 7 O 2.791761 -2.161487 -0.755530 0
M  V30 8 O 3.270433 -0.421851 0.842801 0
M  V30 9 C 1.133911 -0.131241 -0.798455 0
M  V30 10 C 0.932759 -0.273043 -2.162940 0
M  V30 11 C 0.087306 0.635265 -2.766557 0
M  V30 12 C -0.559290 1.665416 -2.086546 0
M  V30 13 C -0.327987 1.773924 -0.709393 0
M  V30 14 C -0.978022 2.813863 -0.039429 0
M  V30 15 N -0.758935 2.926477 1.281933 0
M  V30 16 C 0.049154 2.086815 1.960247 0
M  V30 17 C 0.672155 1.072825 1.259461 0
M  V30 18 C 0.516140 0.869592 -0.094499 0
M  V30 19 H -2.310219 -2.251703 1.117181 0
M  V30 20 H -3.119098 -2.119467 2.735516 0
M  V30 21 H -2.095102 -0.776207 2.154374 0
M  V30 22 H -0.407305 -1.866409 3.237142 0
M  V30 23 H -1.239246 -4.238998 1.682781 0
M  V30 24 H 0.266387 -4.066824 2.611034 0
M  V30 25 H 0.668587 -3.692322 0.201810 0
M  V30 26 H -0.442553 -2.318072 0.165371 0
M  V30 27 H 1.857471 -2.495808 2.064127 0
M  V30 28 H 1.444440 -1.069487 -2.651448 0
M  V30 29 H -0.072331 0.531441 -3.832616 0
M  V30 30 H -1.205686 2.341479 -2.624483 0
M  V30 31 H -1.631286 3.507191 -0.548802 0
M  V30 32 H 0.198160 2.224667 3.041092 0
M  V30 33 H 1.319926 0.409446 1.814349 0
M  V30 END ATOM
M  V30 BEGIN BOND
M  V30 1 1 1 2
M  V30 2 1 2 3
M  V30 3 1 3 4
M  V30 4 1 4 5
M  V30 5 1 5 6
M  V30 6 2 6 7
M  V30 7 2 6 8
M  V30 8 1 6 9
M  V30 9 2 9 10
M  V30 10 1 10 11
M  V30 11 2 11 12
M  V30 12 1 12 13
M  V30 13 2 13 14
M  V30 14 1 14 15
M  V30 15 2 15 16
M  V30 16 1 16 17
M  V30 17 2 17 18
M  V30 18 1 18 9
M  V30 19 1 18 13
M  V30 20 1 1 19
M  V30 21 1 1 20
M  V30 22 1 1 21
M  V30 23 1 2 22
M  V30 24 1 3 23
M  V30 25 1 3 24
M  V30 26 1 4 25
M  V30 27 1 4 26
M  V30 28 1 5 27
M  V30 29 1 10 28
M  V30 30 1 11 29
M  V30 31 1 12 30
M  V30 32 1 14 31
M  V30 33 1 16 32
M  V30 34 1 17 33
M  V30 END BOND
M  V30 END CTAB
M  END
>  <Dataset>  (353) 
ChEMBL_Kinases

>  <Ligand_Instance>  (353) 
nan

>  <PDB_ID>  (353) 
nan

>  <Standardized_SMILES>  (353) 
CNCCNS(=O)(=O)c1cccc2cnccc12

>  <Name>  (353) 
nan

>  <Pocket>  (353) 
nan

>  <ATP_Site>  (353) 
nan

>  <Peripheral>  (353) 
nan

>  <Num_H_Atoms_ProtBoundConf>  (353) 
nan

>  <Num_Resolved_Atoms>  (353) 
nan

>  <Num_Not_Resolved_Atoms>  (353) 
nan

$$$$
CHEMBL364337
     RDKit          3D

  0  0  0  0  0  0  0  0  0  0999 V3000
M  V30 BEGIN CTAB
M  V30 COUNTS 53 56 0 0 0
M  V30 BEGIN ATOM
M  V30 1 C -0.281628 -2.336828 4.502026 0
M  V30 2 N 0.951183 -1.951484 3.882413 0
M  V30 3 C 2.063199 -2.120141 4.752408 0
M  V30 4 C 0.803244 -0.687570 3.254431 0
M  V30 5 C 1.992104 -0.129483 2.567648 0
M  V30 6 C 2.559092 -0.929438 1.449155 0
M  V30 7 N 1.619076 -1.162778 0.371013 0
M  V30 8 C 1.488779 -0.235338 -0.586956 0
M  V30 9 C 0.529415 -0.614513 -1.517421 0
M  V30 10 C -0.025944 -0.001914 -2.700437 0
M  V30 11 C -0.491426 1.245499 -2.794380 0
M  V30 12 N -0.462147 2.090009 -1.655507 0
M  V30 13 C -1.297691 1.869988 -0.510772 0
M  V30 14 C -1.311595 2.673532 0.609959 0
M  V30 15 C -2.140663 2.397632 1.671517 0
M  V30 16 C -2.996748 1.315955 1.680668 0
M  V30 17 C -2.983086 0.509495 0.556301 0
M  V30 18 Cl -4.088164 -0.872489 0.586962 0
M  V30 19 C -2.155411 0.801723 -0.482933 0
M  V30 20 C -0.950043 1.432845 -4.188197 0
M  V30 21 O -1.428146 2.571765 -4.454629 0
M  V30 22 N -0.739257 0.241916 -4.935393 0
M  V30 23 C -0.154574 -0.660734 -3.990807 0
M  V30 24 O 0.139505 -1.821149 -4.416548 0
M  V30 25 C 0.059194 -1.840907 -1.088116 0
M  V30 26 C -0.873322 -2.768543 -1.512779 0
M  V30 27 C -1.143646 -3.953129 -0.861262 0
M  V30 28 C -0.422594 -4.193624 0.279528 0
M  V30 29 C 0.526650 -3.291888 0.749149 0
M  V30 30 C 0.749470 -2.138443 0.063328 0
M  V30 31 H -0.908989 -2.874692 3.754975 0
M  V30 32 H -0.875966 -1.425250 4.772911 0
M  V30 33 H -0.148490 -2.939348 5.434320 0
M  V30 34 H 1.949845 -1.727071 5.774072 0
M  V30 35 H 3.013727 -1.767026 4.333543 0
M  V30 36 H 2.199995 -3.230947 4.892545 0
M  V30 37 H 0.006279 -0.823858 2.464367 0
M  V30 38 H 0.388399 0.094710 3.932951 0
M  V30 39 H 2.810191 -0.002472 3.334866 0
M  V30 40 H 1.728654 0.902934 2.214468 0
M  V30 41 H 2.861759 -1.913752 1.872031 0
M  V30 42 H 3.498860 -0.471501 1.063615 0
M  V30 43 H 2.000720 0.715959 -0.725030 0
M  V30 44 H 0.173866 2.935476 -1.568153 0
M  V30 45 H -0.662506 3.522869 0.642874 0
M  V30 46 H -2.146102 3.030612 2.548088 0
M  V30 47 H -3.627649 1.142579 2.533993 0
M  V30 48 H -2.259619 0.081310 -1.295837 0
M  V30 49 H -1.003101 0.186075 -5.942556 0
M  V30 50 H -1.452131 -2.577269 -2.405967 0
M  V30 51 H -1.893379 -4.626659 -1.264182 0
M  V30 52 H -0.653296 -5.141826 0.783923 0
M  V30 53 H 1.050174 -3.544802 1.635416 0
M  V30 END ATOM
M  V30 BEGIN BOND
M  V30 1 1 1 2
M  V30 2 1 2 3
M  V30 3 1 2 4
M  V30 4 1 4 5
M  V30 5 1 5 6
M  V30 6 1 6 7
M  V30 7 1 7 8
M  V30 8 2 8 9
M  V30 9 1 9 10
M  V30 10 2 10 11
M  V30 11 1 11 12
M  V30 12 1 12 13
M  V30 13 2 13 14
M  V30 14 1 14 15
M  V30 15 2 15 16
M  V30 16 1 16 17
M  V30 17 1 17 18
M  V30 18 2 17 19
M  V30 19 1 11 20
M  V30 20 2 20 21
M  V30 21 1 20 22
M  V30 22 1 22 23
M  V30 23 2 23 24
M  V30 24 1 9 25
M  V30 25 2 25 26
M  V30 26 1 26 27
M  V30 27 2 27 28
M  V30 28 1 28 29
M  V30 29 2 29 30
M  V30 30 1 30 7
M  V30 31 1 23 10
M  V30 32 1 30 25
M  V30 33 1 19 13
M  V30 34 1 1 31
M  V30 35 1 1 32
M  V30 36 1 1 33
M  V30 37 1 3 34
M  V30 38 1 3 35
M  V30 39 1 3 36
M  V30 40 1 4 37
M  V30 41 1 4 38
M  V30 42 1 5 39
M  V30 43 1 5 40
M  V30 44 1 6 41
M  V30 45 1 6 42
M  V30 46 1 8 43
M  V30 47 1 12 44
M  V30 48 1 14 45
M  V30 49 1 15 46
M  V30 50 1 16 47
M  V30 51 1 19 48
M  V30 52 1 22 49
M  V30 53 1 26 50
M  V30 54 1 27 51
M  V30 55 1 28 52
M  V30 56 1 29 53
M  V30 END BOND
M  V30 END CTAB
M  END
>  <Dataset>  (354) 
ChEMBL_Kinases

>  <Ligand_Instance>  (354) 
nan

>  <PDB_ID>  (354) 
nan

>  <Standardized_SMILES>  (354) 
CN(C)CCCn1cc(C2=C(Nc3cccc(Cl)c3)C(=O)NC2=O)c2ccccc21

>  <Name>  (354) 
nan

>  <Pocket>  (354) 
nan

>  <ATP_Site>  (354) 
nan

>  <Peripheral>  (354) 
nan

>  <Num_H_Atoms_ProtBoundConf>  (354) 
nan

>  <Num_Resolved_Atoms>  (354) 
nan

>  <Num_Not_Resolved_Atoms>  (354) 
nan

$$$$
CHEMBL4865870
     RDKit          3D

  0  0  0  0  0  0  0  0  0  0999 V3000
M  V30 BEGIN CTAB
M  V30 COUNTS 47 50 0 0 0
M  V30 BEGIN ATOM
M  V30 1 C 1.068289 -3.824969 6.767063 0
M  V30 2 C 2.245191 -3.739613 5.816620 0
M  V30 3 C 3.472195 -4.090785 6.576666 0
M  V30 4 N 2.261605 -2.403432 5.269108 0
M  V30 5 C 2.037768 -2.170078 3.907675 0
M  V30 6 O 1.828241 -3.205879 3.233271 0
M  V30 7 C 2.084405 -0.702722 3.466303 0
M  V30 8 C 1.899896 -0.280649 2.235434 0
M  V30 9 C 1.970325 1.068456 1.984199 0
M  V30 10 N 1.795499 1.717714 0.699983 0
M  V30 11 N 2.665390 2.521348 0.073699 0
M  V30 12 C 2.157730 2.933188 -1.093031 0
M  V30 13 C 0.901575 2.334625 -1.166111 0
M  V30 14 C -0.090184 2.380773 -2.126237 0
M  V30 15 C -1.277688 1.693042 -1.983361 0
M  V30 16 N -2.350691 1.682789 -2.915033 0
M  V30 17 C -2.957912 0.617713 -3.632399 0
M  V30 18 C -2.471789 -0.656205 -3.443810 0
M  V30 19 C -3.126231 -1.629138 -4.183859 0
M  V30 20 C -4.186374 -1.354393 -5.047988 0
M  V30 21 C -4.613481 -0.031000 -5.176786 0
M  V30 22 C -3.985973 0.974200 -4.454072 0
M  V30 23 Cl -4.543826 2.622835 -4.636875 0
M  V30 24 C -1.496800 0.922746 -0.837696 0
M  V30 25 F -2.582202 0.189167 -0.522434 0
M  V30 26 C -0.503943 0.866063 0.141641 0
M  V30 27 C 0.671036 1.560758 -0.024506 0
M  V30 28 C 2.230316 1.899599 3.037746 0
M  V30 29 S 2.381649 0.661322 4.473212 0
M  V30 30 H 1.053950 -4.808751 7.279022 0
M  V30 31 H 0.103412 -3.778435 6.196368 0
M  V30 32 H 1.085019 -3.028033 7.510668 0
M  V30 33 H 2.040309 -4.486800 5.023235 0
M  V30 34 H 3.859207 -5.062614 6.208080 0
M  V30 35 H 4.257118 -3.339300 6.378070 0
M  V30 36 H 3.285156 -4.241538 7.658000 0
M  V30 37 H 2.450940 -1.630696 5.956476 0
M  V30 38 H 1.690766 -0.968465 1.397083 0
M  V30 39 H 2.608201 3.586677 -1.830174 0
M  V30 40 H 0.018892 2.961298 -3.039331 0
M  V30 41 H -2.621455 2.686686 -2.969430 0
M  V30 42 H -1.660337 -0.931810 -2.794941 0
M  V30 43 H -2.762306 -2.658272 -4.056267 0
M  V30 44 H -4.614634 -2.200179 -5.570130 0
M  V30 45 H -5.431306 0.132007 -5.852216 0
M  V30 46 H -0.594327 0.287371 1.068300 0
M  V30 47 H 2.337464 2.979108 3.120364 0
M  V30 END ATOM
M  V30 BEGIN BOND
M  V30 1 1 1 2
M  V30 2 1 2 3
M  V30 3 1 2 4
M  V30 4 1 4 5
M  V30 5 2 5 6
M  V30 6 1 5 7
M  V30 7 2 7 8
M  V30 8 1 8 9
M  V30 9 1 9 10
M  V30 10 1 10 11
M  V30 11 2 11 12
M  V30 12 1 12 13
M  V30 13 2 13 14
M  V30 14 1 14 15
M  V30 15 1 15 16
M  V30 16 1 16 17
M  V30 17 2 17 18
M  V30 18 1 18 19
M  V30 19 2 19 20
M  V30 20 1 20 21
M  V30 21 2 21 22
M  V30 22 1 22 23
M  V30 23 2 15 24
M  V30 24 1 24 25
M  V30 25 1 24 26
M  V30 26 2 26 27
M  V30 27 2 9 28
M  V30 28 1 28 29
M  V30 29 1 29 7
M  V30 30 1 27 10
M  V30 31 1 27 13
M  V30 32 1 22 17
M  V30 33 1 1 30
M  V30 34 1 1 31
M  V30 35 1 1 32
M  V30 36 1 2 33
M  V30 37 1 3 34
M  V30 38 1 3 35
M  V30 39 1 3 36
M  V30 40 1 4 37
M  V30 41 1 8 38
M  V30 42 1 12 39
M  V30 43 1 14 40
M  V30 44 1 16 41
M  V30 45 1 18 42
M  V30 46 1 19 43
M  V30 47 1 20 44
M  V30 48 1 21 45
M  V30 49 1 26 46
M  V30 50 1 28 47
M  V30 END BOND
M  V30 END CTAB
M  END
>  <Dataset>  (355) 
ChEMBL_Kinases

>  <Ligand_Instance>  (355) 
nan

>  <PDB_ID>  (355) 
nan

>  <Standardized_SMILES>  (355) 
CC(C)NC(=O)c1cc(-n2ncc3cc(Nc4ccccc4Cl)c(F)cc32)cs1

>  <Name>  (355) 
nan

>  <Pocket>  (355) 
nan

>  <ATP_Site>  (355) 
nan

>  <Peripheral>  (355) 
nan

>  <Num_H_Atoms_ProtBoundConf>  (355) 
nan

>  <Num_Resolved_Atoms>  (355) 
nan

>  <Num_Not_Resolved_Atoms>  (355) 
nan

$$$$
CHEMBL4865466
     RDKit          3D

  0  0  0  0  0  0  0  0  0  0999 V3000
M  V30 BEGIN CTAB
M  V30 COUNTS 54 57 0 0 0
M  V30 BEGIN ATOM
M  V30 1 C 1.369069 -1.616127 5.265108 0
M  V30 2 C 0.940807 -2.541244 4.211714 0
M  V30 3 O -0.277296 -2.909432 4.344608 0
M  V30 4 N 1.703754 -3.038536 3.120484 0
M  V30 5 C 3.088500 -2.742510 2.801461 0
M  V30 6 C 3.260273 -2.136396 1.426656 0
M  V30 7 N 2.141618 -2.508187 0.615313 0
M  V30 8 C 2.305479 -2.151532 -0.757704 0
M  V30 9 C 1.858702 -0.925819 -1.244891 0
M  V30 10 C 1.958376 -0.482623 -2.540102 0
M  V30 11 N 1.473485 0.786069 -2.958907 0
M  V30 12 C 0.900333 1.590260 -1.836346 0
M  V30 13 N 0.979631 2.394086 -1.054583 0
M  V30 14 C 0.078950 2.771200 -0.163280 0
M  V30 15 C -1.144582 2.104437 -0.163461 0
M  V30 16 C -2.318222 2.321330 0.729001 0
M  V30 17 O -2.587454 3.101621 1.677338 0
M  V30 18 N -3.316938 1.382549 0.346517 0
M  V30 19 C -4.599109 1.241502 0.932248 0
M  V30 20 C -5.719600 1.877672 0.493224 0
M  V30 21 C -5.727584 2.789166 -0.677362 0
M  V30 22 C -6.972823 1.620995 1.231887 0
M  V30 23 S -6.454260 0.453393 2.542831 0
M  V30 24 C -4.718820 0.369921 2.077024 0
M  V30 25 Cl -3.543509 -0.554870 2.865174 0
M  V30 26 S -0.835499 0.873704 -1.601111 0
M  V30 27 N 2.549423 -1.342414 -3.384236 0
M  V30 28 C 3.009629 -2.555866 -2.975000 0
M  V30 29 C 3.663522 -3.491093 -3.927438 0
M  V30 30 N 2.888305 -2.941606 -1.702334 0
M  V30 31 C 0.879352 -3.171153 0.893699 0
M  V30 32 C 1.096636 -3.951413 2.177710 0
M  V30 33 H 2.456992 -1.329382 5.181281 0
M  V30 34 H 0.728066 -0.748556 5.409579 0
M  V30 35 H 1.319255 -2.193072 6.229875 0
M  V30 36 H 3.516981 -2.059512 3.586821 0
M  V30 37 H 3.634742 -3.702105 2.810532 0
M  V30 38 H 3.274317 -1.016992 1.581309 0
M  V30 39 H 4.231921 -2.484044 1.027343 0
M  V30 40 H 1.393979 -0.295448 -0.492528 0
M  V30 41 H 1.533759 1.073811 -3.949267 0
M  V30 42 H 0.269944 3.566104 0.545132 0
M  V30 43 H -3.321102 0.642020 -0.398684 0
M  V30 44 H -4.974303 2.428885 -1.420488 0
M  V30 45 H -5.520470 3.823713 -0.398679 0
M  V30 46 H -6.708018 2.684469 -1.223668 0
M  V30 47 H -7.922514 2.103980 0.932543 0
M  V30 48 H 2.945160 -4.319943 -4.064207 0
M  V30 49 H 4.534642 -3.922889 -3.377474 0
M  V30 50 H 3.963771 -2.992898 -4.864119 0
M  V30 51 H 0.059908 -2.425828 0.985349 0
M  V30 52 H 0.614210 -3.846456 0.077175 0
M  V30 53 H 0.117906 -4.361105 2.531984 0
M  V30 54 H 1.811667 -4.765289 1.933649 0
M  V30 END ATOM
M  V30 BEGIN BOND
M  V30 1 1 1 2
M  V30 2 2 2 3
M  V30 3 1 2 4
M  V30 4 1 4 5
M  V30 5 1 5 6
M  V30 6 1 6 7
M  V30 7 1 7 8
M  V30 8 2 8 9
M  V30 9 1 9 10
M  V30 10 1 10 11
M  V30 11 1 11 12
M  V30 12 2 12 13
M  V30 13 1 13 14
M  V30 14 2 14 15
M  V30 15 1 15 16
M  V30 16 2 16 17
M  V30 17 1 16 18
M  V30 18 1 18 19
M  V30 19 1 19 20
M  V30 20 1 20 21
M  V30 21 2 20 22
M  V30 22 1 22 23
M  V30 23 1 23 24
M  V30 24 1 24 25
M  V30 25 1 15 26
M  V30 26 2 10 27
M  V30 27 1 27 28
M  V30 28 1 28 29
M  V30 29 2 28 30
M  V30 30 1 7 31
M  V30 31 1 31 32
M  V30 32 1 32 4
M  V30 33 1 30 8
M  V30 34 1 26 12
M  V30 35 2 24 19
M  V30 36 1 1 33
M  V30 37 1 1 34
M  V30 38 1 1 35
M  V30 39 1 5 36
M  V30 40 1 5 37
M  V30 41 1 6 38
M  V30 42 1 6 39
M  V30 43 1 9 40
M  V30 44 1 11 41
M  V30 45 1 14 42
M  V30 46 1 18 43
M  V30 47 1 21 44
M  V30 48 1 21 45
M  V30 49 1 21 46
M  V30 50 1 22 47
M  V30 51 1 29 48
M  V30 52 1 29 49
M  V30 53 1 29 50
M  V30 54 1 31 51
M  V30 55 1 31 52
M  V30 56 1 32 53
M  V30 57 1 32 54
M  V30 END BOND
M  V30 END CTAB
M  END
>  <Dataset>  (356) 
ChEMBL_Kinases

>  <Ligand_Instance>  (356) 
nan

>  <PDB_ID>  (356) 
nan

>  <Standardized_SMILES>  (356) 
CC(=O)N1CCN(c2cc(Nc3ncc(C(=O)Nc4c(C)csc4Cl)s3)nc(C)n2)CC1

>  <Name>  (356) 
nan

>  <Pocket>  (356) 
nan

>  <ATP_Site>  (356) 
nan

>  <Peripheral>  (356) 
nan

>  <Num_H_Atoms_ProtBoundConf>  (356) 
nan

>  <Num_Resolved_Atoms>  (356) 
nan

>  <Num_Not_Resolved_Atoms>  (356) 
nan

$$$$
CHEMBL4865345
     RDKit          3D

  0  0  0  0  0  0  0  0  0  0999 V3000
M  V30 BEGIN CTAB
M  V30 COUNTS 58 61 0 0 0
M  V30 BEGIN ATOM
M  V30 1 C -0.603273 4.847063 0.897545 0
M  V30 2 C -1.047761 3.472264 1.218748 0
M  V30 3 N -0.377339 2.654462 2.049494 0
M  V30 4 C -0.809460 1.398835 2.324030 0
M  V30 5 N -0.017856 0.597846 3.227557 0
M  V30 6 C 1.076149 -0.219103 2.796161 0
M  V30 7 N 1.882272 -0.939301 3.100511 0
M  V30 8 C 2.815594 -1.571743 2.428885 0
M  V30 9 C 2.835873 -1.331231 1.123294 0
M  V30 10 C 3.709275 -1.831380 0.055401 0
M  V30 11 O 4.582013 -2.617760 0.410957 0
M  V30 12 N 3.578815 -1.452685 -1.290652 0
M  V30 13 C 4.250534 -1.776459 -2.485363 0
M  V30 14 C 4.962819 -2.877451 -2.841343 0
M  V30 15 Br 5.034852 -4.349017 -1.678053 0
M  V30 16 C 5.630405 -3.025904 -4.034607 0
M  V30 17 C 5.583647 -1.995161 -4.947362 0
M  V30 18 N 4.884645 -0.902573 -4.613107 0
M  V30 19 C 4.236833 -0.762205 -3.450512 0
M  V30 20 C 3.499846 0.518147 -3.221514 0
M  V30 21 S 1.496764 -0.198685 0.941416 0
M  V30 22 C -1.967160 0.903723 1.756589 0
M  V30 23 C -2.630500 1.769381 0.909125 0
M  V30 24 N -3.831515 1.316564 0.297179 0
M  V30 25 C -4.349274 0.007164 0.634318 0
M  V30 26 C -5.574864 -0.245183 -0.222460 0
M  V30 27 N -5.206241 -0.039682 -1.609789 0
M  V30 28 C -3.947197 -0.650981 -1.939739 0
M  V30 29 C -4.014602 -2.162544 -1.907039 0
M  V30 30 O -4.947245 -2.659290 -2.807919 0
M  V30 31 C -5.096857 1.385939 -1.825497 0
M  V30 32 C -4.547054 2.145806 -0.664447 0
M  V30 33 N -2.188067 3.030062 0.639052 0
M  V30 34 H -1.327185 5.580759 1.346881 0
M  V30 35 H -0.614074 4.982240 -0.195109 0
M  V30 36 H 0.413407 5.059527 1.300738 0
M  V30 37 H -0.126507 0.512130 4.241324 0
M  V30 38 H 3.541948 -2.258388 2.893575 0
M  V30 39 H 2.760170 -0.772118 -1.367393 0
M  V30 40 H 6.181114 -3.893686 -4.290532 0
M  V30 41 H 6.057879 -1.973521 -5.918317 0
M  V30 42 H 3.925270 1.285564 -3.899570 0
M  V30 43 H 2.447044 0.425288 -3.485563 0
M  V30 44 H 3.598555 0.888805 -2.176178 0
M  V30 45 H -2.283749 -0.086928 1.990967 0
M  V30 46 H -3.600639 -0.796769 0.578066 0
M  V30 47 H -4.708083 0.021373 1.686759 0
M  V30 48 H -6.033197 -1.209127 -0.005991 0
M  V30 49 H -6.311789 0.554651 0.046259 0
M  V30 50 H -3.088111 -0.305862 -1.358128 0
M  V30 51 H -3.747683 -0.381820 -3.009107 0
M  V30 52 H -3.001985 -2.564974 -2.133486 0
M  V30 53 H -4.289059 -2.554433 -0.901395 0
M  V30 54 H -5.276035 -3.543093 -2.467363 0
M  V30 55 H -4.383853 1.569534 -2.679250 0
M  V30 56 H -6.058515 1.820219 -2.190991 0
M  V30 57 H -5.383709 2.657781 -0.121333 0
M  V30 58 H -3.882490 2.999109 -0.995978 0
M  V30 END ATOM
M  V30 BEGIN BOND
M  V30 1 1 1 2
M  V30 2 2 2 3
M  V30 3 1 3 4
M  V30 4 1 4 5
M  V30 5 1 5 6
M  V30 6 2 6 7
M  V30 7 1 7 8
M  V30 8 2 8 9
M  V30 9 1 9 10
M  V30 10 2 10 11
M  V30 11 1 10 12
M  V30 12 1 12 13
M  V30 13 2 13 14
M  V30 14 1 14 15
M  V30 15 1 14 16
M  V30 16 2 16 17
M  V30 17 1 17 18
M  V30 18 2 18 19
M  V30 19 1 19 20
M  V30 20 1 9 21
M  V30 21 2 4 22
M  V30 22 1 22 23
M  V30 23 1 23 24
M  V30 24 1 24 25
M  V30 25 1 25 26
M  V30 26 1 26 27
M  V30 27 1 27 28
M  V30 28 1 28 29
M  V30 29 1 29 30
M  V30 30 1 27 31
M  V30 31 1 31 32
M  V30 32 2 23 33
M  V30 33 1 33 2
M  V30 34 1 21 6
M  V30 35 1 32 24
M  V30 36 1 19 13
M  V30 37 1 1 34
M  V30 38 1 1 35
M  V30 39 1 1 36
M  V30 40 1 5 37
M  V30 41 1 8 38
M  V30 42 1 12 39
M  V30 43 1 16 40
M  V30 44 1 17 41
M  V30 45 1 20 42
M  V30 46 1 20 43
M  V30 47 1 20 44
M  V30 48 1 22 45
M  V30 49 1 25 46
M  V30 50 1 25 47
M  V30 51 1 26 48
M  V30 52 1 26 49
M  V30 53 1 28 50
M  V30 54 1 28 51
M  V30 55 1 29 52
M  V30 56 1 29 53
M  V30 57 1 30 54
M  V30 58 1 31 55
M  V30 59 1 31 56
M  V30 60 1 32 57
M  V30 61 1 32 58
M  V30 END BOND
M  V30 END CTAB
M  END
>  <Dataset>  (357) 
ChEMBL_Kinases

>  <Ligand_Instance>  (357) 
nan

>  <PDB_ID>  (357) 
nan

>  <Standardized_SMILES>  (357) 
Cc1nc(Nc2ncc(C(=O)Nc3c(Br)ccnc3C)s2)cc(N2CCN(CCO)CC2)n1

>  <Name>  (357) 
nan

>  <Pocket>  (357) 
nan

>  <ATP_Site>  (357) 
nan

>  <Peripheral>  (357) 
nan

>  <Num_H_Atoms_ProtBoundConf>  (357) 
nan

>  <Num_Resolved_Atoms>  (357) 
nan

>  <Num_Not_Resolved_Atoms>  (357) 
nan

$$$$
CHEMBL3634771
     RDKit          3D

  0  0  0  0  0  0  0  0  0  0999 V3000
M  V30 BEGIN CTAB
M  V30 COUNTS 48 52 0 0 0
M  V30 BEGIN ATOM
M  V30 1 N 0.784783 -5.341550 4.167413 0
M  V30 2 C -0.248827 -5.033975 3.712738 0
M  V30 3 C -1.528439 -4.650127 3.129996 0
M  V30 4 N -1.330561 -4.487977 1.696892 0
M  V30 5 C -0.980907 -3.400238 0.986030 0
M  V30 6 C -0.912686 -3.715369 -0.353657 0
M  V30 7 C -0.577644 -2.875751 -1.497920 0
M  V30 8 C -0.266510 -1.540523 -1.298281 0
M  V30 9 C 0.052062 -0.733186 -2.367641 0
M  V30 10 C 0.394321 0.599411 -2.459189 0
M  V30 11 C 0.523269 1.586701 -1.393061 0
M  V30 12 C 0.878270 2.877004 -1.724180 0
M  V30 13 C 1.000492 3.815966 -0.714068 0
M  V30 14 C 0.776381 3.493196 0.612475 0
M  V30 15 C 0.425942 2.196182 0.886436 0
M  V30 16 N 0.175852 1.774307 2.219255 0
M  V30 17 C 0.233079 2.622988 3.391401 0
M  V30 18 C 1.430776 2.094928 4.146937 0
M  V30 19 N 1.121580 0.794191 4.636884 0
M  V30 20 C 0.142986 0.028834 3.957771 0
M  V30 21 C -0.172151 0.407917 2.556276 0
M  V30 22 N 0.302931 1.272299 -0.082262 0
M  V30 23 N 0.587772 0.796216 -3.777644 0
M  V30 24 N 0.384965 -0.312282 -4.449134 0
M  V30 25 C 0.043173 -1.322602 -3.627941 0
M  V30 26 C -0.266238 -2.653747 -3.833778 0
M  V30 27 N -0.568489 -3.387826 -2.746528 0
M  V30 28 C -1.240695 -5.057551 -0.419554 0
M  V30 29 N -1.484062 -5.473536 0.851908 0
M  V30 30 H -1.873664 -3.709755 3.594179 0
M  V30 31 H -2.315500 -5.424032 3.327867 0
M  V30 32 H -0.784166 -2.427617 1.407749 0
M  V30 33 H -0.274485 -1.132488 -0.299276 0
M  V30 34 H 1.050543 3.122240 -2.750866 0
M  V30 35 H 1.284785 4.819087 -1.048157 0
M  V30 36 H 0.882707 4.252947 1.363344 0
M  V30 37 H -0.681335 2.431521 4.025322 0
M  V30 38 H 0.241816 3.688167 3.206818 0
M  V30 39 H 1.605564 2.786751 4.986874 0
M  V30 40 H 2.273901 2.016691 3.431066 0
M  V30 41 H 1.956687 0.259786 4.947724 0
M  V30 42 H -0.793146 0.054996 4.555209 0
M  V30 43 H 0.477569 -1.033186 3.982622 0
M  V30 44 H 0.365532 -0.293480 1.851813 0
M  V30 45 H -1.248280 0.283117 2.312566 0
M  V30 46 H 0.467346 -0.438626 -5.488463 0
M  V30 47 H -0.265925 -3.090316 -4.829014 0
M  V30 48 H -1.307349 -5.706914 -1.290228 0
M  V30 END ATOM
M  V30 BEGIN BOND
M  V30 1 3 1 2
M  V30 2 1 2 3
M  V30 3 1 3 4
M  V30 4 1 4 5
M  V30 5 2 5 6
M  V30 6 1 6 7
M  V30 7 2 7 8
M  V30 8 1 8 9
M  V30 9 1 9 10
M  V30 10 1 10 11
M  V30 11 2 11 12
M  V30 12 1 12 13
M  V30 13 2 13 14
M  V30 14 1 14 15
M  V30 15 1 15 16
M  V30 16 1 16 17
M  V30 17 1 17 18
M  V30 18 1 18 19
M  V30 19 1 19 20
M  V30 20 1 20 21
M  V30 21 2 15 22
M  V30 22 2 10 23
M  V30 23 1 23 24
M  V30 24 1 24 25
M  V30 25 1 25 26
M  V30 26 2 26 27
M  V30 27 1 6 28
M  V30 28 2 28 29
M  V30 29 1 29 4
M  V30 30 1 27 7
M  V30 31 2 25 9
M  V30 32 1 22 11
M  V30 33 1 21 16
M  V30 34 1 3 30
M  V30 35 1 3 31
M  V30 36 1 5 32
M  V30 37 1 8 33
M  V30 38 1 12 34
M  V30 39 1 13 35
M  V30 40 1 14 36
M  V30 41 1 17 37
M  V30 42 1 17 38
M  V30 43 1 18 39
M  V30 44 1 18 40
M  V30 45 1 19 41
M  V30 46 1 20 42
M  V30 47 1 20 43
M  V30 48 1 21 44
M  V30 49 1 21 45
M  V30 50 1 24 46
M  V30 51 1 26 47
M  V30 52 1 28 48
M  V30 END BOND
M  V30 END CTAB
M  END
>  <Dataset>  (358) 
ChEMBL_Kinases

>  <Ligand_Instance>  (358) 
nan

>  <PDB_ID>  (358) 
nan

>  <Standardized_SMILES>  (358) 
N#CCn1cc(-c2cc3c(-c4cccc(N5CCNCC5)n4)n[nH]c3cn2)cn1

>  <Name>  (358) 
nan

>  <Pocket>  (358) 
nan

>  <ATP_Site>  (358) 
nan

>  <Peripheral>  (358) 
nan

>  <Num_H_Atoms_ProtBoundConf>  (358) 
nan

>  <Num_Resolved_Atoms>  (358) 
nan

>  <Num_Not_Resolved_Atoms>  (358) 
nan

$$$$
CHEMBL4864688
     RDKit          3D

  0  0  0  0  0  0  0  0  0  0999 V3000
M  V30 BEGIN CTAB
M  V30 COUNTS 91 96 0 0 0
M  V30 BEGIN ATOM
M  V30 1 O 3.498431 -0.435272 3.843843 0
M  V30 2 C 3.943289 -1.126668 2.881148 0
M  V30 3 C 4.205508 -2.531012 2.574068 0
M  V30 4 C 3.831062 -3.369792 3.799639 0
M  V30 5 C 4.071545 -4.834162 3.494146 0
M  V30 6 O 3.301516 -5.278290 2.409227 0
M  V30 7 C 1.940033 -5.349842 2.298308 0
M  V30 8 C 1.659892 -5.828104 1.005915 0
M  V30 9 C 0.337995 -6.016041 0.578508 0
M  V30 10 C -0.706864 -5.728768 1.435413 0
M  V30 11 C -2.108071 -5.914395 0.968570 0
M  V30 12 C -2.755110 -4.650037 0.617204 0
M  V30 13 O -2.674483 -4.049724 1.749010 0
M  V30 14 N -3.357794 -4.017977 -0.489549 0
M  V30 15 C -3.793103 -2.736144 -0.064699 0
M  V30 16 C -3.254908 -1.472310 0.019756 0
M  V30 17 C -4.310154 -0.721183 0.540724 0
M  V30 18 C -4.132370 0.747953 0.807630 0
M  V30 19 C -4.774648 1.171107 2.099560 0
M  V30 20 C -5.910527 1.773437 1.320350 0
M  V30 21 C -5.104145 1.620165 0.059488 0
M  V30 22 N -5.394269 -1.466164 0.753599 0
M  V30 23 N -5.065633 -2.694557 0.380021 0
M  V30 24 C -0.436499 -5.263634 2.695424 0
M  V30 25 C 0.861865 -5.080821 3.110211 0
M  V30 26 N 4.280070 -0.252379 1.779952 0
M  V30 27 C 4.056640 1.193324 1.942360 0
M  V30 28 C 4.480773 1.870271 0.683867 0
M  V30 29 C 4.284629 3.373083 0.686302 0
M  V30 30 C 2.831969 3.740848 0.874874 0
M  V30 31 N 1.955939 3.222469 -0.129065 0
M  V30 32 C 1.840089 3.498995 -1.507472 0
M  V30 33 C 2.623428 4.427474 -2.156289 0
M  V30 34 C 2.553750 4.749112 -3.497039 0
M  V30 35 C 1.612654 4.076957 -4.246896 0
M  V30 36 C 0.804744 3.138351 -3.646060 0
M  V30 37 C 0.898659 2.839664 -2.308716 0
M  V30 38 C -0.095394 1.805215 -1.995871 0
M  V30 39 O -0.324989 1.262437 -0.874702 0
M  V30 40 N -0.830980 1.451058 -3.185100 0
M  V30 41 C -1.875607 0.489527 -3.294303 0
M  V30 42 C -1.567441 -0.651792 -4.214684 0
M  V30 43 C -2.812522 -1.381068 -4.671482 0
M  V30 44 C -3.733567 -0.507803 -5.419992 0
M  V30 45 O -4.297433 -0.773623 -6.511241 0
M  V30 46 N -3.965543 0.749819 -4.787716 0
M  V30 47 C -3.158322 1.142897 -3.658997 0
M  V30 48 O -3.509066 2.084848 -2.903601 0
M  V30 49 C -0.248987 2.290828 -4.177160 0
M  V30 50 O -0.646016 2.259239 -5.375982 0
M  V30 51 H 5.283895 -2.697901 2.346179 0
M  V30 52 H 3.544763 -2.864519 1.747420 0
M  V30 53 H 4.521406 -3.077333 4.629411 0
M  V30 54 H 2.822433 -3.098078 4.058991 0
M  V30 55 H 5.144454 -4.974426 3.290963 0
M  V30 56 H 3.765613 -5.435594 4.377483 0
M  V30 57 H 2.352804 -6.107673 0.198342 0
M  V30 58 H 0.062498 -6.380121 -0.408173 0
M  V30 59 H -2.658448 -6.505536 1.742058 0
M  V30 60 H -2.137140 -6.554629 0.056927 0
M  V30 61 H -3.299214 -4.677754 -1.278486 0
M  V30 62 H -2.254960 -1.297557 -0.283457 0
M  V30 63 H -3.074926 1.078383 0.662274 0
M  V30 64 H -4.193182 1.994107 2.585204 0
M  V30 65 H -5.050283 0.346431 2.789387 0
M  V30 66 H -6.135636 2.834532 1.579626 0
M  V30 67 H -6.835606 1.137103 1.240488 0
M  V30 68 H -4.630057 2.599123 -0.186664 0
M  V30 69 H -5.615628 1.135501 -0.799504 0
M  V30 70 H -6.318686 -1.176205 1.132733 0
M  V30 71 H -1.198652 -5.026143 3.404887 0
M  V30 72 H 1.184973 -4.731594 4.074577 0
M  V30 73 H 4.675579 -0.604455 0.877517 0
M  V30 74 H 4.704093 1.568168 2.776766 0
M  V30 75 H 2.987632 1.297875 2.173647 0
M  V30 76 H 5.587503 1.710083 0.579727 0
M  V30 77 H 4.029383 1.383155 -0.203901 0
M  V30 78 H 4.818402 3.741233 1.585598 0
M  V30 79 H 4.778145 3.788876 -0.179689 0
M  V30 80 H 2.827742 4.871908 0.893030 0
M  V30 81 H 2.540954 3.458819 1.900543 0
M  V30 82 H 1.274250 2.494399 0.249528 0
M  V30 83 H 3.378547 4.996055 -1.630120 0
M  V30 84 H 3.189945 5.485166 -3.965470 0
M  V30 85 H 1.490586 4.268575 -5.296819 0
M  V30 86 H -2.041676 0.040118 -2.270109 0
M  V30 87 H -0.975718 -0.409642 -5.096376 0
M  V30 88 H -0.969029 -1.394299 -3.636458 0
M  V30 89 H -2.547139 -2.244674 -5.315699 0
M  V30 90 H -3.391811 -1.809317 -3.815077 0
M  V30 91 H -4.714923 1.415315 -5.113591 0
M  V30 END ATOM
M  V30 BEGIN BOND
M  V30 1 2 1 2
M  V30 2 1 2 3
M  V30 3 1 3 4
M  V30 4 1 4 5
M  V30 5 1 5 6
M  V30 6 1 6 7
M  V30 7 2 7 8
M  V30 8 1 8 9
M  V30 9 2 9 10
M  V30 10 1 10 11
M  V30 11 1 11 12
M  V30 12 2 12 13
M  V30 13 1 12 14
M  V30 14 1 14 15
M  V30 15 1 15 16
M  V30 16 2 16 17
M  V30 17 1 17 18
M  V30 18 1 18 19
M  V30 19 1 19 20
M  V30 20 1 20 21
M  V30 21 1 17 22
M  V30 22 1 22 23
M  V30 23 1 10 24
M  V30 24 2 24 25
M  V30 25 1 2 26
M  V30 26 1 26 27
M  V30 27 1 27 28
M  V30 28 1 28 29
M  V30 29 1 29 30
M  V30 30 1 30 31
M  V30 31 1 31 32
M  V30 32 2 32 33
M  V30 33 1 33 34
M  V30 34 2 34 35
M  V30 35 1 35 36
M  V30 36 2 36 37
M  V30 37 1 37 38
M  V30 38 2 38 39
M  V30 39 1 38 40
M  V30 40 1 40 41
M  V30 41 1 41 42
M  V30 42 1 42 43
M  V30 43 1 43 44
M  V30 44 2 44 45
M  V30 45 1 44 46
M  V30 46 1 46 47
M  V30 47 2 47 48
M  V30 48 1 40 49
M  V30 49 2 49 50
M  V30 50 1 25 7
M  V30 51 1 37 32
M  V30 52 1 47 41
M  V30 53 2 23 15
M  V30 54 1 49 36
M  V30 55 1 21 18
M  V30 56 1 3 51
M  V30 57 1 3 52
M  V30 58 1 4 53
M  V30 59 1 4 54
M  V30 60 1 5 55
M  V30 61 1 5 56
M  V30 62 1 8 57
M  V30 63 1 9 58
M  V30 64 1 11 59
M  V30 65 1 11 60
M  V30 66 1 14 61
M  V30 67 1 16 62
M  V30 68 1 18 63
M  V30 69 1 19 64
M  V30 70 1 19 65
M  V30 71 1 20 66
M  V30 72 1 20 67
M  V30 73 1 21 68
M  V30 74 1 21 69
M  V30 75 1 22 70
M  V30 76 1 24 71
M  V30 77 1 25 72
M  V30 78 1 26 73
M  V30 79 1 27 74
M  V30 80 1 27 75
M  V30 81 1 28 76
M  V30 82 1 28 77
M  V30 83 1 29 78
M  V30 84 1 29 79
M  V30 85 1 30 80
M  V30 86 1 30 81
M  V30 87 1 31 82
M  V30 88 1 33 83
M  V30 89 1 34 84
M  V30 90 1 35 85
M  V30 91 1 41 86
M  V30 92 1 42 87
M  V30 93 1 42 88
M  V30 94 1 43 89
M  V30 95 1 43 90
M  V30 96 1 46 91
M  V30 END BOND
M  V30 END CTAB
M  END
>  <Dataset>  (359) 
ChEMBL_Kinases

>  <Ligand_Instance>  (359) 
nan

>  <PDB_ID>  (359) 
nan

>  <Standardized_SMILES>  (359) 
O=C(CCCOc1ccc(CC(=O)Nc2cc(C3CCC3)[nH]n2)cc1)NCCCCNc1cccc2c1C(=O)N(C1CCC(=O)NC1=O)C2=O

>  <Name>  (359) 
nan

>  <Pocket>  (359) 
nan

>  <ATP_Site>  (359) 
nan

>  <Peripheral>  (359) 
nan

>  <Num_H_Atoms_ProtBoundConf>  (359) 
nan

>  <Num_Resolved_Atoms>  (359) 
nan

>  <Num_Not_Resolved_Atoms>  (359) 
nan

$$$$
CHEMBL402818
     RDKit          3D

  0  0  0  0  0  0  0  0  0  0999 V3000
M  V30 BEGIN CTAB
M  V30 COUNTS 55 59 0 0 0
M  V30 BEGIN ATOM
M  V30 1 C 0.014469 -4.504791 2.312508 0
M  V30 2 C 0.127623 -4.240773 0.860916 0
M  V30 3 C 1.112553 -3.441027 0.320322 0
M  V30 4 N 2.073171 -2.830266 1.159026 0
M  V30 5 C 3.090939 -2.003582 0.597361 0
M  V30 6 C 4.286239 -2.562974 0.211383 0
M  V30 7 C 4.441475 -3.997933 0.404878 0
M  V30 8 N 4.553072 -5.156652 0.547128 0
M  V30 9 C 5.359699 -1.901812 -0.343325 0
M  V30 10 N 5.146629 -0.582226 -0.492671 0
M  V30 11 C 3.999216 0.007104 -0.131520 0
M  V30 12 S 3.445142 1.737228 -0.215638 0
M  V30 13 C 1.854162 1.441935 0.484063 0
M  V30 14 C 0.888994 2.519720 0.683763 0
M  V30 15 C 1.246158 3.799011 0.309799 0
M  V30 16 C 0.259114 4.751170 0.540871 0
M  V30 17 C -0.974013 4.472010 1.092165 0
M  V30 18 C -1.270942 3.176200 1.444593 0
M  V30 19 C -2.558697 2.744356 2.045444 0
M  V30 20 N -3.519579 2.369781 1.021479 0
M  V30 21 C -3.781900 3.497282 0.149941 0
M  V30 22 C -4.760275 1.925964 1.625487 0
M  V30 23 C -0.311906 2.179364 1.232897 0
M  V30 24 C 1.831452 0.128437 0.728196 0
M  V30 25 C 2.912431 -0.644816 0.426954 0
M  V30 26 C 1.214339 -3.197585 -1.033464 0
M  V30 27 C 0.324818 -3.749053 -1.923971 0
M  V30 28 C -0.663053 -4.550518 -1.387158 0
M  V30 29 N -1.650790 -5.207006 -2.019835 0
M  V30 30 C -2.414726 -5.884655 -1.137667 0
M  V30 31 C -1.881771 -5.644574 0.125039 0
M  V30 32 C -0.781089 -4.806975 -0.025914 0
M  V30 33 H 0.378635 -3.646815 2.911140 0
M  V30 34 H -1.058623 -4.678067 2.613006 0
M  V30 35 H 0.542845 -5.443439 2.522136 0
M  V30 36 H 2.139089 -2.909064 2.191415 0
M  V30 37 H 6.300485 -2.321878 -0.650734 0
M  V30 38 H 2.199662 4.059776 -0.124512 0
M  V30 39 H 0.482285 5.789743 0.264434 0
M  V30 40 H -1.718850 5.237342 1.258165 0
M  V30 41 H -3.007251 3.553339 2.652907 0
M  V30 42 H -2.353084 1.902458 2.736441 0
M  V30 43 H -4.247542 4.333800 0.720131 0
M  V30 44 H -2.881121 3.795003 -0.404504 0
M  V30 45 H -4.589731 3.168383 -0.561401 0
M  V30 46 H -4.527184 1.290565 2.521270 0
M  V30 47 H -5.349302 2.782997 2.029749 0
M  V30 48 H -5.331650 1.313376 0.903922 0
M  V30 49 H -0.537210 1.153004 1.508019 0
M  V30 50 H 0.910803 -0.245750 1.169445 0
M  V30 51 H 1.995119 -2.565374 -1.447760 0
M  V30 52 H 0.371191 -3.583416 -2.982432 0
M  V30 53 H -1.860587 -5.234299 -3.059402 0
M  V30 54 H -3.273560 -6.497119 -1.351609 0
M  V30 55 H -2.252290 -6.037846 1.074369 0
M  V30 END ATOM
M  V30 BEGIN BOND
M  V30 1 1 1 2
M  V30 2 2 2 3
M  V30 3 1 3 4
M  V30 4 1 4 5
M  V30 5 2 5 6
M  V30 6 1 6 7
M  V30 7 3 7 8
M  V30 8 1 6 9
M  V30 9 2 9 10
M  V30 10 1 10 11
M  V30 11 1 11 12
M  V30 12 1 12 13
M  V30 13 1 13 14
M  V30 14 2 14 15
M  V30 15 1 15 16
M  V30 16 2 16 17
M  V30 17 1 17 18
M  V30 18 1 18 19
M  V30 19 1 19 20
M  V30 20 1 20 21
M  V30 21 1 20 22
M  V30 22 2 18 23
M  V30 23 2 13 24
M  V30 24 1 24 25
M  V30 25 1 3 26
M  V30 26 2 26 27
M  V30 27 1 27 28
M  V30 28 1 28 29
M  V30 29 1 29 30
M  V30 30 2 30 31
M  V30 31 1 31 32
M  V30 32 1 32 2
M  V30 33 1 25 5
M  V30 34 2 32 28
M  V30 35 2 25 11
M  V30 36 1 23 14
M  V30 37 1 1 33
M  V30 38 1 1 34
M  V30 39 1 1 35
M  V30 40 1 4 36
M  V30 41 1 9 37
M  V30 42 1 15 38
M  V30 43 1 16 39
M  V30 44 1 17 40
M  V30 45 1 19 41
M  V30 46 1 19 42
M  V30 47 1 21 43
M  V30 48 1 21 44
M  V30 49 1 21 45
M  V30 50 1 22 46
M  V30 51 1 22 47
M  V30 52 1 22 48
M  V30 53 1 23 49
M  V30 54 1 24 50
M  V30 55 1 26 51
M  V30 56 1 27 52
M  V30 57 1 29 53
M  V30 58 1 30 54
M  V30 59 1 31 55
M  V30 END BOND
M  V30 END CTAB
M  END
>  <Dataset>  (360) 
ChEMBL_Kinases

>  <Ligand_Instance>  (360) 
nan

>  <PDB_ID>  (360) 
nan

>  <Standardized_SMILES>  (360) 
Cc1c(Nc2c(C#N)cnc3sc(-c4cccc(CN(C)C)c4)cc23)ccc2[nH]ccc12

>  <Name>  (360) 
nan

>  <Pocket>  (360) 
nan

>  <ATP_Site>  (360) 
nan

>  <Peripheral>  (360) 
nan

>  <Num_H_Atoms_ProtBoundConf>  (360) 
nan

>  <Num_Resolved_Atoms>  (360) 
nan

>  <Num_Not_Resolved_Atoms>  (360) 
nan

$$$$
CHEMBL405759
     RDKit          3D

  0  0  0  0  0  0  0  0  0  0999 V3000
M  V30 BEGIN CTAB
M  V30 COUNTS 38 41 0 0 0
M  V30 BEGIN ATOM
M  V30 1 N -0.198585 -5.341965 3.736530 0
M  V30 2 C -0.068116 -3.971749 3.374524 0
M  V30 3 C 0.112035 -3.043472 4.379806 0
M  V30 4 C 0.245082 -1.690739 4.080414 0
M  V30 5 C 0.189071 -1.325711 2.747163 0
M  V30 6 C 0.008158 -2.265474 1.749433 0
M  V30 7 C -0.048964 -1.862568 0.342322 0
M  V30 8 C 0.066507 -0.564646 -0.109931 0
M  V30 9 C -0.044664 -0.658590 -1.477916 0
M  V30 10 C 0.014939 0.413161 -2.338661 0
M  V30 11 O 0.181347 1.752992 -2.162009 0
M  V30 12 C 0.343736 2.404949 -0.963126 0
M  V30 13 C -0.812445 2.847269 -0.320907 0
M  V30 14 C -0.638259 3.498057 0.875367 0
M  V30 15 C 0.644218 3.693353 1.399260 0
M  V30 16 C 1.743235 3.234726 0.719985 0
M  V30 17 O 3.034443 3.425022 1.236040 0
M  V30 18 C 1.652305 2.569596 -0.490977 0
M  V30 19 N -0.115801 0.122598 -3.666949 0
M  V30 20 C -0.293109 -1.173034 -4.060904 0
M  V30 21 N -0.350425 -2.227423 -3.195973 0
M  V30 22 C -0.223688 -1.961639 -1.883608 0
M  V30 23 N -0.221264 -2.669673 -0.745629 0
M  V30 24 C -0.124436 -3.607542 2.038329 0
M  V30 25 H -1.100296 -5.632050 4.174831 0
M  V30 26 H 0.360563 -6.226941 3.704121 0
M  V30 27 H 0.160169 -3.303691 5.441992 0
M  V30 28 H 0.387029 -0.941137 4.844094 0
M  V30 29 H 0.288126 -0.289721 2.479204 0
M  V30 30 H 0.211457 0.299396 0.515942 0
M  V30 31 H -1.766816 2.671170 -0.766211 0
M  V30 32 H -1.485399 3.870093 1.432342 0
M  V30 33 H 0.755365 4.214475 2.353394 0
M  V30 34 H 3.107840 3.267009 2.251195 0
M  V30 35 H 2.467873 2.182789 -1.078814 0
M  V30 36 H -0.402935 -1.468910 -5.095961 0
M  V30 37 H -0.337451 -3.714152 -0.698685 0
M  V30 38 H -0.266128 -4.346963 1.262153 0
M  V30 END ATOM
M  V30 BEGIN BOND
M  V30 1 1 1 2
M  V30 2 2 2 3
M  V30 3 1 3 4
M  V30 4 2 4 5
M  V30 5 1 5 6
M  V30 6 1 6 7
M  V30 7 2 7 8
M  V30 8 1 8 9
M  V30 9 2 9 10
M  V30 10 1 10 11
M  V30 11 1 11 12
M  V30 12 2 12 13
M  V30 13 1 13 14
M  V30 14 2 14 15
M  V30 15 1 15 16
M  V30 16 1 16 17
M  V30 17 2 16 18
M  V30 18 1 10 19
M  V30 19 2 19 20
M  V30 20 1 20 21
M  V30 21 2 21 22
M  V30 22 1 22 23
M  V30 23 2 6 24
M  V30 24 1 24 2
M  V30 25 1 23 7
M  V30 26 1 22 9
M  V30 27 1 18 12
M  V30 28 1 1 25
M  V30 29 1 1 26
M  V30 30 1 3 27
M  V30 31 1 4 28
M  V30 32 1 5 29
M  V30 33 1 8 30
M  V30 34 1 13 31
M  V30 35 1 14 32
M  V30 36 1 15 33
M  V30 37 1 17 34
M  V30 38 1 18 35
M  V30 39 1 20 36
M  V30 40 1 23 37
M  V30 41 1 24 38
M  V30 END BOND
M  V30 END CTAB
M  END
>  <Dataset>  (361) 
ChEMBL_Kinases

>  <Ligand_Instance>  (361) 
nan

>  <PDB_ID>  (361) 
nan

>  <Standardized_SMILES>  (361) 
Nc1cccc(-c2cc3c(Oc4cccc(O)c4)ncnc3[nH]2)c1

>  <Name>  (361) 
nan

>  <Pocket>  (361) 
nan

>  <ATP_Site>  (361) 
nan

>  <Peripheral>  (361) 
nan

>  <Num_H_Atoms_ProtBoundConf>  (361) 
nan

>  <Num_Resolved_Atoms>  (361) 
nan

>  <Num_Not_Resolved_Atoms>  (361) 
nan

$$$$
CHEMBL4060101
     RDKit          3D

  0  0  0  0  0  0  0  0  0  0999 V3000
M  V30 BEGIN CTAB
M  V30 COUNTS 52 56 0 0 0
M  V30 BEGIN ATOM
M  V30 1 C -2.918462 -4.347022 4.258315 0
M  V30 2 N -2.069242 -3.478565 3.443400 0
M  V30 3 N -1.024190 -2.808580 3.826503 0
M  V30 4 C -0.492713 -2.111348 2.782479 0
M  V30 5 C 0.681803 -1.253843 2.850004 0
M  V30 6 C 1.346511 -1.101597 4.047086 0
M  V30 7 C 2.466756 -0.317628 4.230883 0
M  V30 8 C 2.949402 0.360730 3.125943 0
M  V30 9 C 2.275380 0.199611 1.935358 0
M  V30 10 N 2.732850 0.875828 0.773958 0
M  V30 11 C 3.883690 1.750562 0.705949 0
M  V30 12 C 3.350633 3.150564 0.547937 0
M  V30 13 C 1.958611 3.234631 0.008617 0
M  V30 14 C 1.500362 2.113187 -0.843408 0 CFG=2
M  V30 15 N 0.051230 1.996797 -0.701758 0
M  V30 16 C 2.073694 0.760756 -0.512738 0
M  V30 17 N 1.184968 -0.577466 1.805025 0
M  V30 18 C -1.305353 -2.413582 1.724311 0
M  V30 19 C -1.299417 -2.034138 0.420681 0
M  V30 20 C -2.253990 -2.492998 -0.461799 0
M  V30 21 C -2.292311 -2.116773 -1.869677 0
M  V30 22 C -3.296004 -2.639495 -2.657908 0
M  V30 23 C -3.397890 -2.325379 -4.015412 0
M  V30 24 C -2.440765 -1.459523 -4.541919 0
M  V30 25 N -1.457127 -0.942345 -3.786476 0
M  V30 26 C -1.394297 -1.270014 -2.483269 0
M  V30 27 N -3.210069 -3.332100 -0.026294 0
M  V30 28 C -3.259399 -3.742258 1.271537 0
M  V30 29 C -2.304705 -3.280320 2.143558 0
M  V30 30 H -2.885412 -3.960038 5.298228 0
M  V30 31 H -3.977899 -4.318147 3.927993 0
M  V30 32 H -2.511442 -5.378664 4.226035 0
M  V30 33 H 0.958040 -1.643360 4.921774 0
M  V30 34 H 2.906307 -0.267082 5.196609 0
M  V30 35 H 3.807833 0.960758 3.271174 0
M  V30 36 H 4.588934 1.634456 1.528149 0
M  V30 37 H 4.475018 1.554294 -0.231555 0
M  V30 38 H 3.345673 3.608183 1.562650 0
M  V30 39 H 4.079430 3.765985 -0.046013 0
M  V30 40 H 1.209413 3.421971 0.827777 0
M  V30 41 H 1.909071 4.176101 -0.608007 0
M  V30 42 H 1.652059 2.357865 -1.927035 0
M  V30 43 H -0.398608 1.518044 -1.510258 0
M  V30 44 H -0.195078 1.578352 0.222571 0
M  V30 45 H 1.351756 -0.047781 -0.592101 0
M  V30 46 H 2.857823 0.559837 -1.300993 0
M  V30 47 H -0.529360 -1.360226 0.077540 0
M  V30 48 H -4.052437 -3.307706 -2.297779 0
M  V30 49 H -4.172362 -2.717862 -4.661641 0
M  V30 50 H -2.449479 -1.166119 -5.585236 0
M  V30 51 H -0.601992 -0.848943 -1.890639 0
M  V30 52 H -4.042905 -4.414155 1.573560 0
M  V30 END ATOM
M  V30 BEGIN BOND
M  V30 1 1 1 2
M  V30 2 1 2 3
M  V30 3 2 3 4
M  V30 4 1 4 5
M  V30 5 2 5 6
M  V30 6 1 6 7
M  V30 7 2 7 8
M  V30 8 1 8 9
M  V30 9 1 9 10
M  V30 10 1 10 11
M  V30 11 1 11 12
M  V30 12 1 12 13
M  V30 13 1 13 14
M  V30 14 1 14 15
M  V30 15 1 14 16
M  V30 16 2 9 17
M  V30 17 1 4 18
M  V30 18 2 18 19
M  V30 19 1 19 20
M  V30 20 1 20 21
M  V30 21 2 21 22
M  V30 22 1 22 23
M  V30 23 2 23 24
M  V30 24 1 24 25
M  V30 25 2 25 26
M  V30 26 2 20 27
M  V30 27 1 27 28
M  V30 28 2 28 29
M  V30 29 1 29 2
M  V30 30 1 17 5
M  V30 31 1 29 18
M  V30 32 1 16 10
M  V30 33 1 26 21
M  V30 34 1 1 30
M  V30 35 1 1 31
M  V30 36 1 1 32
M  V30 37 1 6 33
M  V30 38 1 7 34
M  V30 39 1 8 35
M  V30 40 1 11 36
M  V30 41 1 11 37
M  V30 42 1 12 38
M  V30 43 1 12 39
M  V30 44 1 13 40
M  V30 45 1 13 41
M  V30 46 1 14 42 CFG=3
M  V30 47 1 15 43
M  V30 48 1 15 44
M  V30 49 1 16 45
M  V30 50 1 16 46
M  V30 51 1 19 47
M  V30 52 1 22 48
M  V30 53 1 23 49
M  V30 54 1 24 50
M  V30 55 1 26 51
M  V30 56 1 28 52
M  V30 END BOND
M  V30 END CTAB
M  END
>  <Dataset>  (362) 
ChEMBL_Kinases

>  <Ligand_Instance>  (362) 
nan

>  <PDB_ID>  (362) 
nan

>  <Standardized_SMILES>  (362) 
Cn1nc(-c2cccc(N3CCC[C@H](N)C3)n2)c2cc(-c3cccnc3)ncc21

>  <Name>  (362) 
nan

>  <Pocket>  (362) 
nan

>  <ATP_Site>  (362) 
nan

>  <Peripheral>  (362) 
nan

>  <Num_H_Atoms_ProtBoundConf>  (362) 
nan

>  <Num_Resolved_Atoms>  (362) 
nan

>  <Num_Not_Resolved_Atoms>  (362) 
nan

$$$$
CHEMBL4060267
     RDKit          3D

  0  0  0  0  0  0  0  0  0  0999 V3000
M  V30 BEGIN CTAB
M  V30 COUNTS 49 52 0 0 0
M  V30 BEGIN ATOM
M  V30 1 C 1.080657 -3.758767 1.811480 0
M  V30 2 C -0.251994 -3.275895 1.437715 0
M  V30 3 C -0.522179 -1.976110 1.089173 0
M  V30 4 C 0.325986 -0.792196 0.988587 0
M  V30 5 C 1.560933 -0.848575 0.373168 0
M  V30 6 C 2.348990 0.281018 0.287556 0
M  V30 7 C 1.973123 1.503755 0.792568 0
M  V30 8 N 2.810674 2.643200 0.687826 0
M  V30 9 C 4.132755 2.595240 0.103755 0
M  V30 10 C 4.028492 3.331042 -1.210675 0
M  V30 11 N 2.921461 4.220856 -1.281373 0
M  V30 12 C 2.534032 4.870022 -0.074963 0
M  V30 13 C 2.452397 3.972023 1.138831 0
M  V30 14 C 0.737414 1.510089 1.395137 0
M  V30 15 C -0.094238 0.413887 1.510716 0
M  V30 16 N -1.851741 -1.914563 0.811652 0
M  V30 17 C -2.661833 -0.777130 0.392940 0
M  V30 18 C -2.384974 -3.152195 0.986830 0
M  V30 19 N -3.659640 -3.616401 0.839508 0
M  V30 20 C -3.973555 -4.904749 1.069671 0
M  V30 21 C -5.360263 -5.383857 0.903519 0
M  V30 22 N -6.352450 -4.459225 0.496970 0
M  V30 23 O -5.668413 -6.599942 1.118443 0
M  V30 24 C -3.021386 -5.821225 1.466409 0
M  V30 25 C -1.708415 -5.368139 1.623847 0
M  V30 26 Cl -0.425627 -6.455815 2.124973 0
M  V30 27 C -1.398894 -4.042848 1.384429 0
M  V30 28 H 1.509535 -4.461661 1.058655 0
M  V30 29 H 0.974572 -4.360595 2.758069 0
M  V30 30 H 1.772693 -2.937258 2.093500 0
M  V30 31 H 1.855942 -1.810102 -0.023661 0
M  V30 32 H 3.282567 0.109460 -0.213296 0
M  V30 33 H 4.587534 1.616205 0.028287 0
M  V30 34 H 4.818229 3.207972 0.740228 0
M  V30 35 H 3.929371 2.581902 -2.040951 0
M  V30 36 H 4.970921 3.890087 -1.422468 0
M  V30 37 H 2.181061 4.006062 -1.955287 0
M  V30 38 H 3.128929 5.775797 0.107777 0
M  V30 39 H 1.485492 5.252691 -0.248445 0
M  V30 40 H 3.301379 4.303882 1.805530 0
M  V30 41 H 1.492628 4.040718 1.651191 0
M  V30 42 H 0.336878 2.406939 1.826394 0
M  V30 43 H -1.059815 0.459943 1.992387 0
M  V30 44 H -2.043104 -0.050484 -0.158275 0
M  V30 45 H -3.452600 -1.106266 -0.334792 0
M  V30 46 H -3.202391 -0.310140 1.232651 0
M  V30 47 H -7.116979 -3.919983 0.919017 0
M  V30 48 H -6.457847 -4.138351 -0.491310 0
M  V30 49 H -3.273407 -6.857769 1.651706 0
M  V30 END ATOM
M  V30 BEGIN BOND
M  V30 1 1 1 2
M  V30 2 2 2 3
M  V30 3 1 3 4
M  V30 4 2 4 5
M  V30 5 1 5 6
M  V30 6 2 6 7
M  V30 7 1 7 8
M  V30 8 1 8 9
M  V30 9 1 9 10
M  V30 10 1 10 11
M  V30 11 1 11 12
M  V30 12 1 12 13
M  V30 13 1 7 14
M  V30 14 2 14 15
M  V30 15 1 3 16
M  V30 16 1 16 17
M  V30 17 1 16 18
M  V30 18 2 18 19
M  V30 19 1 19 20
M  V30 20 1 20 21
M  V30 21 1 21 22
M  V30 22 2 21 23
M  V30 23 2 20 24
M  V30 24 1 24 25
M  V30 25 1 25 26
M  V30 26 2 25 27
M  V30 27 1 27 2
M  V30 28 1 15 4
M  V30 29 1 27 18
M  V30 30 1 13 8
M  V30 31 1 1 28
M  V30 32 1 1 29
M  V30 33 1 1 30
M  V30 34 1 5 31
M  V30 35 1 6 32
M  V30 36 1 9 33
M  V30 37 1 9 34
M  V30 38 1 10 35
M  V30 39 1 10 36
M  V30 40 1 11 37
M  V30 41 1 12 38
M  V30 42 1 12 39
M  V30 43 1 13 40
M  V30 44 1 13 41
M  V30 45 1 14 42
M  V30 46 1 15 43
M  V30 47 1 17 44
M  V30 48 1 17 45
M  V30 49 1 17 46
M  V30 50 1 22 47
M  V30 51 1 22 48
M  V30 52 1 24 49
M  V30 END BOND
M  V30 END CTAB
M  END
>  <Dataset>  (363) 
ChEMBL_Kinases

>  <Ligand_Instance>  (363) 
nan

>  <PDB_ID>  (363) 
nan

>  <Standardized_SMILES>  (363) 
Cc1c(-c2ccc(N3CCNCC3)cc2)n(C)c2nc(C(N)=O)cc(Cl)c12

>  <Name>  (363) 
nan

>  <Pocket>  (363) 
nan

>  <ATP_Site>  (363) 
nan

>  <Peripheral>  (363) 
nan

>  <Num_H_Atoms_ProtBoundConf>  (363) 
nan

>  <Num_Resolved_Atoms>  (363) 
nan

>  <Num_Not_Resolved_Atoms>  (363) 
nan

$$$$
CHEMBL48636
     RDKit          3D

  0  0  0  0  0  0  0  0  0  0999 V3000
M  V30 BEGIN CTAB
M  V30 COUNTS 61 64 0 0 0
M  V30 BEGIN ATOM
M  V30 1 O 1.710922 -0.463108 4.031684 0
M  V30 2 C 2.730737 -1.123427 3.694820 0
M  V30 3 N 3.668299 -0.581315 2.790914 0
M  V30 4 C 3.454642 0.747737 2.245253 0
M  V30 5 C 4.604158 1.670299 2.604952 0
M  V30 6 C 5.375601 1.782915 1.327394 0
M  V30 7 C 4.246717 1.900133 0.293346 0
M  V30 8 C 3.386608 0.731963 0.738169 0
M  V30 9 O 2.056520 0.836235 0.308671 0
M  V30 10 C 1.434890 -0.107491 -0.495142 0
M  V30 11 O 2.249603 -1.039296 -0.759726 0
M  V30 12 C 0.054128 -0.014398 -0.950089 0
M  V30 13 C -0.693919 1.069991 -0.566533 0
M  V30 14 C -2.007929 1.167184 -0.994293 0
M  V30 15 O -2.681905 2.315284 -0.544834 0
M  V30 16 C -2.614545 0.226181 -1.791904 0
M  V30 17 C -3.933686 0.390546 -2.283029 0
M  V30 18 O -4.161205 1.657447 -2.257179 0
M  V30 19 C -5.061556 -0.295706 -2.781792 0
M  V30 20 C -5.855002 0.411338 -3.697990 0
M  V30 21 O -5.560295 1.719425 -4.133064 0
M  V30 22 C -7.015196 -0.094658 -4.278198 0
M  V30 23 C -7.373784 -1.358290 -3.910886 0
M  V30 24 C -6.668594 -2.127807 -3.023012 0
M  V30 25 C -5.536107 -1.551950 -2.494032 0
M  V30 26 C -4.915616 -2.349311 -1.411883 0
M  V30 27 O -4.023581 -2.220658 -0.539143 0
M  V30 28 O -5.267620 -3.637968 -1.094343 0
M  V30 29 C -1.761880 -0.836711 -2.125903 0
M  V30 30 O -2.215345 -1.891291 -2.948114 0
M  V30 31 C -0.453977 -1.010107 -1.746223 0
M  V30 32 C 2.867426 -2.447150 4.288697 0
M  V30 33 C 1.894456 -2.883233 5.162835 0
M  V30 34 C 2.002851 -4.149696 5.745630 0
M  V30 35 C 3.069317 -4.993544 5.471479 0
M  V30 36 O 3.099698 -6.242737 6.097231 0
M  V30 37 C 4.056589 -4.552980 4.585641 0
M  V30 38 C 3.913915 -3.305144 4.035190 0
M  V30 39 H 4.514831 -1.134928 2.514779 0
M  V30 40 H 2.503455 1.106606 2.691265 0
M  V30 41 H 5.206090 1.267815 3.445462 0
M  V30 42 H 4.169121 2.667929 2.862816 0
M  V30 43 H 6.057294 2.637965 1.257417 0
M  V30 44 H 5.861383 0.804495 1.098488 0
M  V30 45 H 3.783337 2.881661 0.469509 0
M  V30 46 H 4.630353 1.815319 -0.725737 0
M  V30 47 H 3.902212 -0.174594 0.379498 0
M  V30 48 H -0.244584 1.812717 0.052720 0
M  V30 49 H -2.510324 3.227698 -0.913611 0
M  V30 50 H -5.896308 2.537710 -3.665504 0
M  V30 51 H -7.616909 0.459021 -4.981801 0
M  V30 52 H -8.260884 -1.777176 -4.342855 0
M  V30 53 H -6.997783 -3.120536 -2.768050 0
M  V30 54 H -4.596142 -4.414452 -1.074146 0
M  V30 55 H -1.926978 -1.926254 -3.912781 0
M  V30 56 H 0.162050 -1.846815 -2.028050 0
M  V30 57 H 1.049965 -2.289848 5.419059 0
M  V30 58 H 1.214446 -4.461788 6.432246 0
M  V30 59 H 2.319871 -6.882876 5.900414 0
M  V30 60 H 4.882742 -5.211763 4.375848 0
M  V30 61 H 4.689613 -2.987223 3.353848 0
M  V30 END ATOM
M  V30 BEGIN BOND
M  V30 1 2 1 2
M  V30 2 1 2 3
M  V30 3 1 3 4
M  V30 4 1 4 5
M  V30 5 1 5 6
M  V30 6 1 6 7
M  V30 7 1 7 8
M  V30 8 1 8 9
M  V30 9 1 9 10
M  V30 10 2 10 11
M  V30 11 1 10 12
M  V30 12 2 12 13
M  V30 13 1 13 14
M  V30 14 1 14 15
M  V30 15 2 14 16
M  V30 16 1 16 17
M  V30 17 2 17 18
M  V30 18 1 17 19
M  V30 19 2 19 20
M  V30 20 1 20 21
M  V30 21 1 20 22
M  V30 22 2 22 23
M  V30 23 1 23 24
M  V30 24 2 24 25
M  V30 25 1 25 26
M  V30 26 2 26 27
M  V30 27 1 26 28
M  V30 28 1 16 29
M  V30 29 1 29 30
M  V30 30 2 29 31
M  V30 31 1 2 32
M  V30 32 2 32 33
M  V30 33 1 33 34
M  V30 34 2 34 35
M  V30 35 1 35 36
M  V30 36 1 35 37
M  V30 37 2 37 38
M  V30 38 1 8 4
M  V30 39 1 31 12
M  V30 40 1 38 32
M  V30 41 1 25 19
M  V30 42 1 3 39
M  V30 43 1 4 40
M  V30 44 1 5 41
M  V30 45 1 5 42
M  V30 46 1 6 43
M  V30 47 1 6 44
M  V30 48 1 7 45
M  V30 49 1 7 46
M  V30 50 1 8 47
M  V30 51 1 13 48
M  V30 52 1 15 49
M  V30 53 1 21 50
M  V30 54 1 22 51
M  V30 55 1 23 52
M  V30 56 1 24 53
M  V30 57 1 28 54
M  V30 58 1 30 55
M  V30 59 1 31 56
M  V30 60 1 33 57
M  V30 61 1 34 58
M  V30 62 1 36 59
M  V30 63 1 37 60
M  V30 64 1 38 61
M  V30 END BOND
M  V30 END CTAB
M  END
>  <Dataset>  (364) 
ChEMBL_Kinases

>  <Ligand_Instance>  (364) 
nan

>  <PDB_ID>  (364) 
nan

>  <Standardized_SMILES>  (364) 
O=C(NC1CCCC1OC(=O)c1cc(O)c(C(=O)c2c(O)cccc2C(=O)O)c(O)c1)c1ccc(O)cc1

>  <Name>  (364) 
nan

>  <Pocket>  (364) 
nan

>  <ATP_Site>  (364) 
nan

>  <Peripheral>  (364) 
nan

>  <Num_H_Atoms_ProtBoundConf>  (364) 
nan

>  <Num_Resolved_Atoms>  (364) 
nan

>  <Num_Not_Resolved_Atoms>  (364) 
nan

$$$$
CHEMBL4060481
     RDKit          3D

  0  0  0  0  0  0  0  0  0  0999 V3000
M  V30 BEGIN CTAB
M  V30 COUNTS 29 32 0 0 0
M  V30 BEGIN ATOM
M  V30 1 N 1.293106 -1.575076 2.573517 0
M  V30 2 C 1.266756 -0.474307 1.672742 0
M  V30 3 C 2.248767 0.430268 1.869530 0
M  V30 4 C 3.330226 0.586160 2.756258 0
M  V30 5 N 3.613931 -0.298523 3.727271 0
M  V30 6 N 4.677851 0.091910 4.411258 0
M  V30 7 C 5.058003 1.266053 3.829888 0
M  V30 8 S 6.341118 2.145598 4.326950 0
M  V30 9 O 4.232059 1.529367 2.847734 0
M  V30 10 S 1.970096 1.734738 0.569527 0
M  V30 11 C 0.468454 0.848877 -0.127514 0
M  V30 12 N -0.322002 1.191827 -1.141803 0
M  V30 13 C -1.377037 0.398753 -1.498605 0
M  V30 14 C -1.518906 -0.735100 -0.728103 0
M  V30 15 C -2.639291 -1.627455 -1.081850 0
M  V30 16 C -3.043339 -1.740726 -2.369525 0
M  V30 17 C -4.117571 -2.605439 -2.646535 0
M  V30 18 S -4.592254 -3.308163 -0.972079 0
M  V30 19 C -3.283154 -2.355353 -0.074021 0
M  V30 20 C -0.700971 -1.085556 0.318516 0
M  V30 21 C 0.361315 -0.288595 0.679143 0
M  V30 22 H 1.503114 -2.558235 2.278793 0
M  V30 23 H 1.098597 -1.444792 3.599133 0
M  V30 24 H 5.081790 -0.443326 5.216451 0
M  V30 25 H -1.976286 0.729621 -2.325218 0
M  V30 26 H -2.641356 -1.245886 -3.230894 0
M  V30 27 H -4.602295 -2.844997 -3.624557 0
M  V30 28 H -3.085058 -2.371059 0.953169 0
M  V30 29 H -0.922767 -2.002984 0.839514 0
M  V30 END ATOM
M  V30 BEGIN BOND
M  V30 1 1 1 2
M  V30 2 2 2 3
M  V30 3 1 3 4
M  V30 4 2 4 5
M  V30 5 1 5 6
M  V30 6 1 6 7
M  V30 7 2 7 8
M  V30 8 1 7 9
M  V30 9 1 3 10
M  V30 10 1 10 11
M  V30 11 2 11 12
M  V30 12 1 12 13
M  V30 13 2 13 14
M  V30 14 1 14 15
M  V30 15 1 15 16
M  V30 16 2 16 17
M  V30 17 1 17 18
M  V30 18 1 18 19
M  V30 19 1 14 20
M  V30 20 2 20 21
M  V30 21 1 21 2
M  V30 22 1 9 4
M  V30 23 1 21 11
M  V30 24 2 19 15
M  V30 25 1 1 22
M  V30 26 1 1 23
M  V30 27 1 6 24
M  V30 28 1 13 25
M  V30 29 1 16 26
M  V30 30 1 17 27
M  V30 31 1 19 28
M  V30 32 1 20 29
M  V30 END BOND
M  V30 END CTAB
M  END
>  <Dataset>  (365) 
ChEMBL_Kinases

>  <Ligand_Instance>  (365) 
nan

>  <PDB_ID>  (365) 
nan

>  <Standardized_SMILES>  (365) 
Nc1c(-c2n[nH]c(=S)o2)sc2ncc(-c3ccsc3)cc12

>  <Name>  (365) 
nan

>  <Pocket>  (365) 
nan

>  <ATP_Site>  (365) 
nan

>  <Peripheral>  (365) 
nan

>  <Num_H_Atoms_ProtBoundConf>  (365) 
nan

>  <Num_Resolved_Atoms>  (365) 
nan

>  <Num_Not_Resolved_Atoms>  (365) 
nan

$$$$
CHEMBL4060973
     RDKit          3D

  0  0  0  0  0  0  0  0  0  0999 V3000
M  V30 BEGIN CTAB
M  V30 COUNTS 53 56 0 0 0
M  V30 BEGIN ATOM
M  V30 1 C 6.142978 -0.414701 6.134146 0
M  V30 2 O 6.129951 -1.413976 5.143995 0
M  V30 3 C 5.850446 -1.204838 3.805588 0
M  V30 4 C 5.915216 -2.386971 3.074616 0
M  V30 5 C 5.659953 -2.360004 1.701622 0
M  V30 6 C 5.352825 -1.141373 1.139290 0
M  V30 7 C 5.279000 0.049354 1.829278 0
M  V30 8 C 4.943771 1.365001 1.226602 0
M  V30 9 N 3.532153 1.576355 1.310193 0
M  V30 10 C 2.492158 1.034923 0.546364 0
M  V30 11 O 2.830866 0.221063 -0.378935 0
M  V30 12 C 1.076602 1.322420 0.721339 0
M  V30 13 C 0.550943 2.170427 1.670572 0
M  V30 14 C -0.783440 2.458018 1.854028 0
M  V30 15 C -1.662785 1.814778 0.980700 0
M  V30 16 C -1.222608 0.948348 -0.000650 0
M  V30 17 N -2.146926 0.303953 -0.879972 0
M  V30 18 C -3.544932 0.650722 -0.636728 0
M  V30 19 C -4.391367 -0.092457 -1.608378 0
M  V30 20 N -4.835382 0.206935 -2.851481 0
M  V30 21 N -5.570467 -0.784823 -3.326745 0
M  V30 22 C -5.640687 -1.774249 -2.419944 0
M  V30 23 C -6.337879 -3.053384 -2.508128 0
M  V30 24 C -7.047064 -3.404916 -3.617663 0
M  V30 25 C -7.695109 -4.641561 -3.646127 0
M  V30 26 N -7.616467 -5.482423 -2.576462 0
M  V30 27 C -6.915804 -5.145443 -1.469449 0
M  V30 28 C -6.274077 -3.922613 -1.439063 0
M  V30 29 N -4.912586 -1.323528 -1.383571 0
M  V30 30 C 0.135891 0.733382 -0.094361 0
M  V30 31 C 5.535265 -0.019765 3.168524 0
M  V30 32 H 5.593074 0.494930 5.890122 0
M  V30 33 H 5.644191 -0.858562 7.037535 0
M  V30 34 H 7.198094 -0.214083 6.474670 0
M  V30 35 H 6.153581 -3.369177 3.477370 0
M  V30 36 H 5.705300 -3.268140 1.115395 0
M  V30 37 H 5.160086 -1.133065 0.076214 0
M  V30 38 H 5.319397 1.352316 0.177680 0
M  V30 39 H 5.470865 2.142052 1.822249 0
M  V30 40 H 3.167581 2.241792 2.056173 0
M  V30 41 H 1.222200 2.672111 2.350185 0
M  V30 42 H -1.114803 3.139513 2.627693 0
M  V30 43 H -2.721794 2.032331 1.113261 0
M  V30 44 H -1.764819 -0.343011 -1.603819 0
M  V30 45 H -3.796552 0.298406 0.370365 0
M  V30 46 H -3.710409 1.742105 -0.735012 0
M  V30 47 H -7.129852 -2.761305 -4.483711 0
M  V30 48 H -8.269539 -4.964131 -4.503281 0
M  V30 49 H -6.851429 -5.822375 -0.606138 0
M  V30 50 H -5.721537 -3.706031 -0.512871 0
M  V30 51 H -4.774351 -1.874399 -0.509715 0
M  V30 52 H 0.464641 0.052372 -0.867679 0
M  V30 53 H 5.511701 0.843717 3.831714 0
M  V30 END ATOM
M  V30 BEGIN BOND
M  V30 1 1 1 2
M  V30 2 1 2 3
M  V30 3 2 3 4
M  V30 4 1 4 5
M  V30 5 2 5 6
M  V30 6 1 6 7
M  V30 7 1 7 8
M  V30 8 1 8 9
M  V30 9 1 9 10
M  V30 10 2 10 11
M  V30 11 1 10 12
M  V30 12 2 12 13
M  V30 13 1 13 14
M  V30 14 2 14 15
M  V30 15 1 15 16
M  V30 16 1 16 17
M  V30 17 1 17 18
M  V30 18 1 18 19
M  V30 19 2 19 20
M  V30 20 1 20 21
M  V30 21 2 21 22
M  V30 22 1 22 23
M  V30 23 2 23 24
M  V30 24 1 24 25
M  V30 25 2 25 26
M  V30 26 1 26 27
M  V30 27 2 27 28
M  V30 28 1 22 29
M  V30 29 2 16 30
M  V30 30 2 7 31
M  V30 31 1 31 3
M  V30 32 1 30 12
M  V30 33 1 29 19
M  V30 34 1 28 23
M  V30 35 1 1 32
M  V30 36 1 1 33
M  V30 37 1 1 34
M  V30 38 1 4 35
M  V30 39 1 5 36
M  V30 40 1 6 37
M  V30 41 1 8 38
M  V30 42 1 8 39
M  V30 43 1 9 40
M  V30 44 1 13 41
M  V30 45 1 14 42
M  V30 46 1 15 43
M  V30 47 1 17 44
M  V30 48 1 18 45
M  V30 49 1 18 46
M  V30 50 1 24 47
M  V30 51 1 25 48
M  V30 52 1 27 49
M  V30 53 1 28 50
M  V30 54 1 29 51
M  V30 55 1 30 52
M  V30 56 1 31 53
M  V30 END BOND
M  V30 END CTAB
M  END
>  <Dataset>  (366) 
ChEMBL_Kinases

>  <Ligand_Instance>  (366) 
nan

>  <PDB_ID>  (366) 
nan

>  <Standardized_SMILES>  (366) 
COc1cccc(CNC(=O)c2cccc(NCc3nnc(-c4ccncc4)[nH]3)c2)c1

>  <Name>  (366) 
nan

>  <Pocket>  (366) 
nan

>  <ATP_Site>  (366) 
nan

>  <Peripheral>  (366) 
nan

>  <Num_H_Atoms_ProtBoundConf>  (366) 
nan

>  <Num_Resolved_Atoms>  (366) 
nan

>  <Num_Not_Resolved_Atoms>  (366) 
nan

$$$$
CHEMBL4061176
     RDKit          3D

  0  0  0  0  0  0  0  0  0  0999 V3000
M  V30 BEGIN CTAB
M  V30 COUNTS 48 52 0 0 0
M  V30 BEGIN ATOM
M  V30 1 O 3.336702 -0.772466 4.368317 0
M  V30 2 C 2.334751 -0.737781 3.633795 0
M  V30 3 C 2.211759 0.000604 2.389691 0
M  V30 4 C 3.068697 0.765207 1.764369 0
M  V30 5 C 2.925263 1.500816 0.515716 0
M  V30 6 C 3.954610 1.455984 -0.433050 0
M  V30 7 N 3.619255 2.210903 -1.491410 0
M  V30 8 C 2.409201 2.763063 -1.297665 0
M  V30 9 N 1.605291 3.585886 -1.996414 0
M  V30 10 C 0.400234 3.984039 -1.508407 0
M  V30 11 Cl -0.623572 5.056145 -2.445788 0
M  V30 12 C -0.018452 3.536224 -0.259015 0
M  V30 13 C 0.791331 2.686130 0.483713 0
M  V30 14 C 1.983167 2.325385 -0.062223 0
M  V30 15 O 0.947897 -0.233914 1.900627 0
M  V30 16 C 0.228062 -1.071750 2.728830 0
M  V30 17 C 1.039957 -1.399872 3.795920 0
M  V30 18 C 0.553721 -2.245185 4.798146 0
M  V30 19 C -0.737023 -2.711371 4.656190 0
M  V30 20 C -1.555931 -2.387235 3.589101 0
M  V30 21 O -2.830003 -2.939473 3.594376 0
M  V30 22 C -1.058866 -1.541331 2.594491 0
M  V30 23 C -1.985381 -1.267629 1.498833 0
M  V30 24 N -1.820790 -1.987062 0.303321 0
M  V30 25 C -0.614518 -1.934675 -0.397699 0
M  V30 26 C -0.536550 -2.822788 -1.613715 0
M  V30 27 N -1.703556 -2.790452 -2.446956 0
M  V30 28 C -2.847149 -3.120622 -1.624024 0
M  V30 29 C -3.006535 -2.240451 -0.445334 0
M  V30 30 H 4.035344 0.842626 2.294224 0
M  V30 31 H 4.910312 0.917966 -0.391813 0
M  V30 32 H 4.165739 2.389337 -2.365589 0
M  V30 33 H -0.976069 3.884091 0.070408 0
M  V30 34 H 0.448228 2.365410 1.441215 0
M  V30 35 H 1.181859 -2.511512 5.650494 0
M  V30 36 H -1.101105 -3.371115 5.448559 0
M  V30 37 H -3.255675 -3.334585 2.762167 0
M  V30 38 H -1.891288 -0.169313 1.244170 0
M  V30 39 H -3.059779 -1.359377 1.808912 0
M  V30 40 H -0.390561 -0.899259 -0.718860 0
M  V30 41 H 0.211561 -2.278161 0.269879 0
M  V30 42 H 0.319553 -2.454714 -2.226540 0
M  V30 43 H -0.340269 -3.872139 -1.308729 0
M  V30 44 H -1.821535 -1.863898 -2.867702 0
M  V30 45 H -2.833784 -4.211501 -1.357609 0
M  V30 46 H -3.749950 -3.007626 -2.274830 0
M  V30 47 H -3.791411 -2.659530 0.215030 0
M  V30 48 H -3.388716 -1.240241 -0.792393 0
M  V30 END ATOM
M  V30 BEGIN BOND
M  V30 1 2 1 2
M  V30 2 1 2 3
M  V30 3 2 3 4
M  V30 4 1 4 5
M  V30 5 2 5 6
M  V30 6 1 6 7
M  V30 7 1 7 8
M  V30 8 2 8 9
M  V30 9 1 9 10
M  V30 10 1 10 11
M  V30 11 2 10 12
M  V30 12 1 12 13
M  V30 13 2 13 14
M  V30 14 1 3 15
M  V30 15 1 15 16
M  V30 16 2 16 17
M  V30 17 1 17 18
M  V30 18 2 18 19
M  V30 19 1 19 20
M  V30 20 1 20 21
M  V30 21 2 20 22
M  V30 22 1 22 23
M  V30 23 1 23 24
M  V30 24 1 24 25
M  V30 25 1 25 26
M  V30 26 1 26 27
M  V30 27 1 27 28
M  V30 28 1 28 29
M  V30 29 1 17 2
M  V30 30 1 29 24
M  V30 31 1 14 5
M  V30 32 1 22 16
M  V30 33 1 14 8
M  V30 34 1 4 30
M  V30 35 1 6 31
M  V30 36 1 7 32
M  V30 37 1 12 33
M  V30 38 1 13 34
M  V30 39 1 18 35
M  V30 40 1 19 36
M  V30 41 1 21 37
M  V30 42 1 23 38
M  V30 43 1 23 39
M  V30 44 1 25 40
M  V30 45 1 25 41
M  V30 46 1 26 42
M  V30 47 1 26 43
M  V30 48 1 27 44
M  V30 49 1 28 45
M  V30 50 1 28 46
M  V30 51 1 29 47
M  V30 52 1 29 48
M  V30 END BOND
M  V30 END CTAB
M  END
>  <Dataset>  (367) 
ChEMBL_Kinases

>  <Ligand_Instance>  (367) 
nan

>  <PDB_ID>  (367) 
nan

>  <Standardized_SMILES>  (367) 
O=C1/C(=C/c2c[nH]c3nc(Cl)ccc23)Oc2c1ccc(O)c2CN1CCNCC1

>  <Name>  (367) 
nan

>  <Pocket>  (367) 
nan

>  <ATP_Site>  (367) 
nan

>  <Peripheral>  (367) 
nan

>  <Num_H_Atoms_ProtBoundConf>  (367) 
nan

>  <Num_Resolved_Atoms>  (367) 
nan

>  <Num_Not_Resolved_Atoms>  (367) 
nan

$$$$
CHEMBL4061438
     RDKit          3D

  0  0  0  0  0  0  0  0  0  0999 V3000
M  V30 BEGIN CTAB
M  V30 COUNTS 52 55 0 0 0
M  V30 BEGIN ATOM
M  V30 1 C 0.890861 -2.159767 -1.280512 0
M  V30 2 N 1.044601 -3.291999 -0.434692 0
M  V30 3 C 2.176964 -3.541051 0.204889 0
M  V30 4 C 3.518740 -2.928582 0.388476 0
M  V30 5 N 3.698437 -2.167594 1.571294 0
M  V30 6 C 3.282973 -0.981890 2.222758 0
M  V30 7 C 3.685075 -0.548936 3.476247 0
M  V30 8 C 3.221488 0.624947 3.991353 0
M  V30 9 C 2.344422 1.407926 3.281157 0
M  V30 10 C 1.899177 1.054368 2.040706 0
M  V30 11 C 0.977041 1.845135 1.250112 0
M  V30 12 O 0.618084 1.417600 0.112314 0
M  V30 13 N 0.451393 3.079367 1.683524 0
M  V30 14 C -0.472916 3.855829 0.872350 0
M  V30 15 C -1.723286 3.135785 0.561062 0
M  V30 16 C -1.932295 2.606440 -0.677485 0
M  V30 17 C -3.107025 1.937318 -0.955652 0
M  V30 18 C -4.066529 1.808895 0.028759 0
M  V30 19 C -3.819616 2.355056 1.262472 0
M  V30 20 C -2.658551 3.035187 1.592008 0
M  V30 21 Cl -2.360762 3.727342 3.175810 0
M  V30 22 C 2.397740 -0.134457 1.572644 0
M  V30 23 N 1.949482 -4.706921 0.889235 0
M  V30 24 N 0.713100 -5.095572 0.633258 0
M  V30 25 C 0.111202 -4.226201 -0.199132 0
M  V30 26 C -1.249137 -4.297744 -0.717508 0
M  V30 27 C -1.664980 -4.428350 -2.031617 0
M  V30 28 C -3.014340 -4.477441 -2.309592 0
M  V30 29 N -3.966498 -4.404848 -1.363079 0
M  V30 30 C -3.565573 -4.278221 -0.087526 0
M  V30 31 C -2.224047 -4.222266 0.263957 0
M  V30 32 H 0.310164 -1.323850 -0.823881 0
M  V30 33 H 1.860503 -1.759788 -1.672726 0
M  V30 34 H 0.267122 -2.445980 -2.161944 0
M  V30 35 H 3.745890 -2.266366 -0.528167 0
M  V30 36 H 4.275787 -3.728264 0.276025 0
M  V30 37 H 4.387134 -2.654266 2.199208 0
M  V30 38 H 4.386326 -1.199455 4.015708 0
M  V30 39 H 3.612570 0.847310 4.977331 0
M  V30 40 H 2.011400 2.326947 3.739902 0
M  V30 41 H 0.738389 3.449011 2.624757 0
M  V30 42 H 0.018875 4.185583 -0.076655 0
M  V30 43 H -0.735085 4.791202 1.403500 0
M  V30 44 H -1.229995 2.669682 -1.488449 0
M  V30 45 H -3.383843 1.476766 -1.898671 0
M  V30 46 H -5.012321 1.290945 -0.135331 0
M  V30 47 H -4.555617 2.275218 2.070652 0
M  V30 48 H 2.061901 -0.424355 0.592425 0
M  V30 49 H -0.855310 -4.481712 -2.742923 0
M  V30 50 H -3.218956 -4.581611 -3.383652 0
M  V30 51 H -4.389808 -4.224353 0.634797 0
M  V30 52 H -2.086008 -4.118562 1.344193 0
M  V30 END ATOM
M  V30 BEGIN BOND
M  V30 1 1 1 2
M  V30 2 1 2 3
M  V30 3 1 3 4
M  V30 4 1 4 5
M  V30 5 1 5 6
M  V30 6 2 6 7
M  V30 7 1 7 8
M  V30 8 2 8 9
M  V30 9 1 9 10
M  V30 10 1 10 11
M  V30 11 2 11 12
M  V30 12 1 11 13
M  V30 13 1 13 14
M  V30 14 1 14 15
M  V30 15 2 15 16
M  V30 16 1 16 17
M  V30 17 2 17 18
M  V30 18 1 18 19
M  V30 19 2 19 20
M  V30 20 1 20 21
M  V30 21 2 10 22
M  V30 22 2 3 23
M  V30 23 1 23 24
M  V30 24 2 24 25
M  V30 25 1 25 26
M  V30 26 2 26 27
M  V30 27 1 27 28
M  V30 28 2 28 29
M  V30 29 1 29 30
M  V30 30 2 30 31
M  V30 31 1 25 2
M  V30 32 1 31 26
M  V30 33 1 22 6
M  V30 34 1 20 15
M  V30 35 1 1 32
M  V30 36 1 1 33
M  V30 37 1 1 34
M  V30 38 1 4 35
M  V30 39 1 4 36
M  V30 40 1 5 37
M  V30 41 1 7 38
M  V30 42 1 8 39
M  V30 43 1 9 40
M  V30 44 1 13 41
M  V30 45 1 14 42
M  V30 46 1 14 43
M  V30 47 1 16 44
M  V30 48 1 17 45
M  V30 49 1 18 46
M  V30 50 1 19 47
M  V30 51 1 22 48
M  V30 52 1 27 49
M  V30 53 1 28 50
M  V30 54 1 30 51
M  V30 55 1 31 52
M  V30 END BOND
M  V30 END CTAB
M  END
>  <Dataset>  (368) 
ChEMBL_Kinases

>  <Ligand_Instance>  (368) 
nan

>  <PDB_ID>  (368) 
nan

>  <Standardized_SMILES>  (368) 
Cn1c(CNc2cccc(C(=O)NCc3ccccc3Cl)c2)nnc1-c1ccncc1

>  <Name>  (368) 
nan

>  <Pocket>  (368) 
nan

>  <ATP_Site>  (368) 
nan

>  <Peripheral>  (368) 
nan

>  <Num_H_Atoms_ProtBoundConf>  (368) 
nan

>  <Num_Resolved_Atoms>  (368) 
nan

>  <Num_Not_Resolved_Atoms>  (368) 
nan

$$$$
CHEMBL4061455
     RDKit          3D

  0  0  0  0  0  0  0  0  0  0999 V3000
M  V30 BEGIN CTAB
M  V30 COUNTS 22 23 0 0 0
M  V30 BEGIN ATOM
M  V30 1 C -0.642547 -2.131706 2.605496 0
M  V30 2 N 0.379078 -1.738651 1.623907 0
M  V30 3 C 1.343133 -2.560063 1.134168 0
M  V30 4 I 1.624419 -4.588436 1.646092 0
M  V30 5 C 2.127658 -1.862386 0.235503 0
M  V30 6 Cl 3.503132 -2.404034 -0.693947 0
M  V30 7 C 1.564159 -0.597103 0.234314 0
M  V30 8 C 1.923949 0.532812 -0.474341 0
M  V30 9 Cl 3.287567 0.501959 -1.581115 0
M  V30 10 C 1.246618 1.748951 -0.364194 0
M  V30 11 C 0.180163 1.744393 0.511893 0
M  V30 12 C -0.553707 3.002181 0.653158 0
M  V30 13 N -1.666498 3.209196 1.489785 0
M  V30 14 O -0.250755 4.058171 0.018169 0
M  V30 15 N -0.197457 0.650520 1.221965 0
M  V30 16 C 0.482639 -0.496237 1.084154 0
M  V30 17 H -0.842485 -1.310602 3.315921 0
M  V30 18 H -0.331224 -3.071572 3.082593 0
M  V30 19 H -1.601579 -2.378300 2.063393 0
M  V30 20 H 1.525698 2.631418 -0.916078 0
M  V30 21 H -2.409013 2.474939 1.548330 0
M  V30 22 H -1.806423 4.076969 2.077092 0
M  V30 END ATOM
M  V30 BEGIN BOND
M  V30 1 1 1 2
M  V30 2 1 2 3
M  V30 3 1 3 4
M  V30 4 2 3 5
M  V30 5 1 5 6
M  V30 6 1 5 7
M  V30 7 2 7 8
M  V30 8 1 8 9
M  V30 9 1 8 10
M  V30 10 2 10 11
M  V30 11 1 11 12
M  V30 12 1 12 13
M  V30 13 2 12 14
M  V30 14 1 11 15
M  V30 15 2 15 16
M  V30 16 1 16 2
M  V30 17 1 16 7
M  V30 18 1 1 17
M  V30 19 1 1 18
M  V30 20 1 1 19
M  V30 21 1 10 20
M  V30 22 1 13 21
M  V30 23 1 13 22
M  V30 END BOND
M  V30 END CTAB
M  END
>  <Dataset>  (369) 
ChEMBL_Kinases

>  <Ligand_Instance>  (369) 
nan

>  <PDB_ID>  (369) 
nan

>  <Standardized_SMILES>  (369) 
Cn1c(I)c(Cl)c2c(Cl)cc(C(N)=O)nc21

>  <Name>  (369) 
nan

>  <Pocket>  (369) 
nan

>  <ATP_Site>  (369) 
nan

>  <Peripheral>  (369) 
nan

>  <Num_H_Atoms_ProtBoundConf>  (369) 
nan

>  <Num_Resolved_Atoms>  (369) 
nan

>  <Num_Not_Resolved_Atoms>  (369) 
nan

$$$$
CHEMBL4061456
     RDKit          3D

  0  0  0  0  0  0  0  0  0  0999 V3000
M  V30 BEGIN CTAB
M  V30 COUNTS 51 55 0 0 0
M  V30 BEGIN ATOM
M  V30 1 C -1.077885 -2.525773 4.056727 0
M  V30 2 C 0.190208 -3.224538 3.714861 0
M  V30 3 C 0.703972 -4.289441 4.417340 0
M  V30 4 N 1.861429 -4.898627 4.074558 0
M  V30 5 C 2.534665 -4.442712 3.003644 0
M  V30 6 C 2.036685 -3.388108 2.298641 0
M  V30 7 C 2.774739 -2.900883 1.138076 0
M  V30 8 C 2.327141 -1.837073 0.379451 0
M  V30 9 N 2.969989 -1.350874 -0.698078 0
M  V30 10 C 2.707869 -0.346821 -1.552734 0
M  V30 11 C 1.569843 0.564881 -1.552952 0
M  V30 12 C 1.503479 1.535547 -2.546009 0
M  V30 13 C 0.496166 2.467704 -2.683027 0
M  V30 14 C -0.497647 2.383397 -1.731588 0
M  V30 15 C -0.468613 1.424154 -0.718541 0
M  V30 16 N -1.518561 1.376570 0.240458 0
M  V30 17 C -1.489454 0.403823 1.303093 0
M  V30 18 C -2.632736 -0.564916 1.239018 0
M  V30 19 C -3.825036 -0.039513 0.495020 0
M  V30 20 N -4.433007 1.125836 1.078548 0
M  V30 21 C -3.622158 2.303845 1.097310 0
M  V30 22 C -2.567719 2.358856 0.045641 0
M  V30 23 N 0.567361 0.571486 -0.692441 0
M  V30 24 N 3.730888 -0.355097 -2.426430 0
M  V30 25 C 4.596600 -1.335780 -2.117636 0
M  V30 26 C 4.116151 -1.985780 -1.003422 0
M  V30 27 C 4.633142 -3.047814 -0.306555 0
M  V30 28 N 3.936482 -3.489621 0.769633 0
M  V30 29 N 0.886522 -2.775949 2.631912 0
M  V30 30 H -1.313305 -2.773575 5.126031 0
M  V30 31 H -0.928909 -1.424683 4.041406 0
M  V30 32 H -1.908198 -2.848958 3.393733 0
M  V30 33 H 0.110207 -4.614667 5.279212 0
M  V30 34 H 3.472790 -4.911221 2.698675 0
M  V30 35 H 1.400464 -1.383542 0.690313 0
M  V30 36 H 2.308885 1.569614 -3.280125 0
M  V30 37 H 0.508784 3.195278 -3.481362 0
M  V30 38 H -1.309785 3.116044 -1.821328 0
M  V30 39 H -0.526880 -0.126342 1.331468 0
M  V30 40 H -1.574116 0.925074 2.301939 0
M  V30 41 H -2.955014 -0.854642 2.252384 0
M  V30 42 H -2.286196 -1.464517 0.728993 0
M  V30 43 H -4.596865 -0.838159 0.529606 0
M  V30 44 H -3.635816 0.165190 -0.568062 0
M  V30 45 H -5.274939 1.329055 0.488397 0
M  V30 46 H -3.077376 2.293676 2.085575 0
M  V30 47 H -4.207069 3.222489 1.080047 0
M  V30 48 H -2.055137 3.349008 0.172889 0
M  V30 49 H -2.965993 2.268556 -0.987296 0
M  V30 50 H 5.493125 -1.513461 -2.699793 0
M  V30 51 H 5.558527 -3.523703 -0.592560 0
M  V30 END ATOM
M  V30 BEGIN BOND
M  V30 1 1 1 2
M  V30 2 2 2 3
M  V30 3 1 3 4
M  V30 4 2 4 5
M  V30 5 1 5 6
M  V30 6 1 6 7
M  V30 7 2 7 8
M  V30 8 1 8 9
M  V30 9 1 9 10
M  V30 10 1 10 11
M  V30 11 2 11 12
M  V30 12 1 12 13
M  V30 13 2 13 14
M  V30 14 1 14 15
M  V30 15 1 15 16
M  V30 16 1 16 17
M  V30 17 1 17 18
M  V30 18 1 18 19
M  V30 19 1 19 20
M  V30 20 1 20 21
M  V30 21 1 21 22
M  V30 22 2 15 23
M  V30 23 2 10 24
M  V30 24 1 24 25
M  V30 25 2 25 26
M  V30 26 1 26 27
M  V30 27 2 27 28
M  V30 28 2 6 29
M  V30 29 1 29 2
M  V30 30 1 28 7
M  V30 31 1 26 9
M  V30 32 1 23 11
M  V30 33 1 22 16
M  V30 34 1 1 30
M  V30 35 1 1 31
M  V30 36 1 1 32
M  V30 37 1 3 33
M  V30 38 1 5 34
M  V30 39 1 8 35
M  V30 40 1 12 36
M  V30 41 1 13 37
M  V30 42 1 14 38
M  V30 43 1 17 39
M  V30 44 1 17 40
M  V30 45 1 18 41
M  V30 46 1 18 42
M  V30 47 1 19 43
M  V30 48 1 19 44
M  V30 49 1 20 45
M  V30 50 1 21 46
M  V30 51 1 21 47
M  V30 52 1 22 48
M  V30 53 1 22 49
M  V30 54 1 25 50
M  V30 55 1 27 51
M  V30 END BOND
M  V30 END CTAB
M  END
>  <Dataset>  (370) 
ChEMBL_Kinases

>  <Ligand_Instance>  (370) 
nan

>  <PDB_ID>  (370) 
nan

>  <Standardized_SMILES>  (370) 
Cc1cncc(-c2cn3c(-c4cccc(N5CCCNCC5)n4)ncc3cn2)n1

>  <Name>  (370) 
nan

>  <Pocket>  (370) 
nan

>  <ATP_Site>  (370) 
nan

>  <Peripheral>  (370) 
nan

>  <Num_H_Atoms_ProtBoundConf>  (370) 
nan

>  <Num_Resolved_Atoms>  (370) 
nan

>  <Num_Not_Resolved_Atoms>  (370) 
nan

$$$$
CHEMBL4865214
     RDKit          3D

  0  0  0  0  0  0  0  0  0  0999 V3000
M  V30 BEGIN CTAB
M  V30 COUNTS 58 61 0 0 0
M  V30 BEGIN ATOM
M  V30 1 C -1.592431 -3.853109 5.296905 0
M  V30 2 C -1.076860 -3.555036 3.942998 0
M  V30 3 N 0.238139 -3.299990 3.828894 0
M  V30 4 C 0.737486 -3.027390 2.608132 0
M  V30 5 N 2.080248 -2.736983 2.257418 0
M  V30 6 C 2.789708 -1.560421 1.899483 0
M  V30 7 N 3.896799 -1.175953 1.615027 0
M  V30 8 C 4.144938 0.078875 1.302021 0
M  V30 9 C 3.181810 1.023175 1.276894 0
M  V30 10 C 3.530171 2.435737 0.900990 0
M  V30 11 O 4.678883 2.828779 0.610140 0
M  V30 12 N 2.424237 3.302967 0.902585 0
M  V30 13 C 2.720526 4.651170 0.544429 0
M  V30 14 N 3.948683 5.052183 0.222157 0
M  V30 15 C 4.275633 6.326300 -0.127260 0
M  V30 16 C 3.259075 7.252795 -0.144709 0
M  V30 17 C 1.949593 6.923355 0.176774 0
M  V30 18 C 1.702441 5.610184 0.520030 0
M  V30 19 C 0.339937 5.131068 0.886843 0
M  V30 20 S 1.785807 0.043978 1.742482 0
M  V30 21 C -0.086391 -3.005939 1.471594 0
M  V30 22 C -1.432231 -3.274816 1.641320 0
M  V30 23 N -2.330328 -3.250385 0.520354 0
M  V30 24 C -3.655722 -3.849036 0.474468 0
M  V30 25 C -3.768382 -4.784672 -0.710992 0
M  V30 26 N -3.374563 -4.107253 -1.951731 0
M  V30 27 C -2.410726 -4.870437 -2.656435 0
M  V30 28 C -1.901711 -4.336938 -3.948272 0
M  V30 29 O -1.251200 -3.119630 -3.855350 0
M  V30 30 C -3.085669 -2.731303 -1.707786 0
M  V30 31 C -1.943168 -2.555628 -0.725500 0
M  V30 32 N -1.870776 -3.536785 2.860592 0
M  V30 33 H -2.246453 -4.762265 5.252680 0
M  V30 34 H -0.766952 -4.122049 5.996915 0
M  V30 35 H -2.240964 -3.057062 5.707126 0
M  V30 36 H 2.722146 -3.555881 2.252373 0
M  V30 37 H 5.221286 0.215515 1.075496 0
M  V30 38 H 1.443048 3.038881 1.137535 0
M  V30 39 H 5.304142 6.575366 -0.378218 0
M  V30 40 H 3.483085 8.275172 -0.418405 0
M  V30 41 H 1.122028 7.610361 0.178505 0
M  V30 42 H 0.331564 4.652652 1.904829 0
M  V30 43 H -0.400304 5.945685 0.848988 0
M  V30 44 H 0.078764 4.331606 0.166833 0
M  V30 45 H 0.234176 -2.797116 0.467920 0
M  V30 46 H -3.748831 -4.428553 1.422378 0
M  V30 47 H -4.426194 -3.072285 0.502640 0
M  V30 48 H -4.803481 -5.141552 -0.868584 0
M  V30 49 H -3.023725 -5.590475 -0.551124 0
M  V30 50 H -1.527965 -5.054165 -1.993469 0
M  V30 51 H -2.893798 -5.878763 -2.852338 0
M  V30 52 H -1.189221 -5.064611 -4.408275 0
M  V30 53 H -2.755038 -4.166665 -4.643258 0
M  V30 54 H -0.302731 -3.133559 -4.053988 0
M  V30 55 H -4.014199 -2.255298 -1.305986 0
M  V30 56 H -2.877170 -2.209989 -2.642372 0
M  V30 57 H -1.877430 -1.487012 -0.457397 0
M  V30 58 H -1.005132 -2.934649 -1.128032 0
M  V30 END ATOM
M  V30 BEGIN BOND
M  V30 1 1 1 2
M  V30 2 2 2 3
M  V30 3 1 3 4
M  V30 4 1 4 5
M  V30 5 1 5 6
M  V30 6 2 6 7
M  V30 7 1 7 8
M  V30 8 2 8 9
M  V30 9 1 9 10
M  V30 10 2 10 11
M  V30 11 1 10 12
M  V30 12 1 12 13
M  V30 13 2 13 14
M  V30 14 1 14 15
M  V30 15 2 15 16
M  V30 16 1 16 17
M  V30 17 2 17 18
M  V30 18 1 18 19
M  V30 19 1 9 20
M  V30 20 2 4 21
M  V30 21 1 21 22
M  V30 22 1 22 23
M  V30 23 1 23 24
M  V30 24 1 24 25
M  V30 25 1 25 26
M  V30 26 1 26 27
M  V30 27 1 27 28
M  V30 28 1 28 29
M  V30 29 1 26 30
M  V30 30 1 30 31
M  V30 31 2 22 32
M  V30 32 1 32 2
M  V30 33 1 20 6
M  V30 34 1 31 23
M  V30 35 1 18 13
M  V30 36 1 1 33
M  V30 37 1 1 34
M  V30 38 1 1 35
M  V30 39 1 5 36
M  V30 40 1 8 37
M  V30 41 1 12 38
M  V30 42 1 15 39
M  V30 43 1 16 40
M  V30 44 1 17 41
M  V30 45 1 19 42
M  V30 46 1 19 43
M  V30 47 1 19 44
M  V30 48 1 21 45
M  V30 49 1 24 46
M  V30 50 1 24 47
M  V30 51 1 25 48
M  V30 52 1 25 49
M  V30 53 1 27 50
M  V30 54 1 27 51
M  V30 55 1 28 52
M  V30 56 1 28 53
M  V30 57 1 29 54
M  V30 58 1 30 55
M  V30 59 1 30 56
M  V30 60 1 31 57
M  V30 61 1 31 58
M  V30 END BOND
M  V30 END CTAB
M  END
>  <Dataset>  (371) 
ChEMBL_Kinases

>  <Ligand_Instance>  (371) 
nan

>  <PDB_ID>  (371) 
nan

>  <Standardized_SMILES>  (371) 
Cc1nc(Nc2ncc(C(=O)Nc3ncccc3C)s2)cc(N2CCN(CCO)CC2)n1

>  <Name>  (371) 
nan

>  <Pocket>  (371) 
nan

>  <ATP_Site>  (371) 
nan

>  <Peripheral>  (371) 
nan

>  <Num_H_Atoms_ProtBoundConf>  (371) 
nan

>  <Num_Resolved_Atoms>  (371) 
nan

>  <Num_Not_Resolved_Atoms>  (371) 
nan

$$$$
CHEMBL4874549
     RDKit          3D

  0  0  0  0  0  0  0  0  0  0999 V3000
M  V30 BEGIN CTAB
M  V30 COUNTS 47 48 0 0 0
M  V30 BEGIN ATOM
M  V30 1 C -0.904328 -4.784841 1.502949 0
M  V30 2 C -0.660978 -3.336710 1.134137 0
M  V30 3 C 0.745142 -2.969185 1.540342 0
M  V30 4 C -0.753487 -3.186896 -0.367316 0
M  V30 5 N -1.607989 -2.532205 1.837066 0
M  V30 6 C -1.673359 -1.118195 1.701780 0
M  V30 7 N -0.843627 -0.413393 0.888463 0
M  V30 8 C -0.912536 0.921877 0.762244 0
M  V30 9 N 0.000064 1.594744 -0.122525 0
M  V30 10 C 0.981799 0.828967 -0.858969 0 CFG=1
M  V30 11 C 1.761494 1.794002 -1.723080 0
M  V30 12 C 2.570941 2.762479 -0.918850 0
M  V30 13 C 3.307086 2.104972 0.217503 0 CFG=2
M  V30 14 O 4.638563 2.495459 0.300708 0
M  V30 15 C 3.269762 0.601635 0.135142 0
M  V30 16 C 1.860989 0.061525 0.079000 0
M  V30 17 N -1.820662 1.657203 1.443194 0
M  V30 18 C -2.685416 1.049698 2.273300 0
M  V30 19 C -2.572207 -0.317441 2.365486 0
M  V30 20 C -3.531006 -0.924094 3.275428 0
M  V30 21 N -4.519276 -0.240436 4.031360 0
M  V30 22 O -3.956000 -1.980005 3.788109 0
M  V30 23 H -0.078586 -5.407390 1.121623 0
M  V30 24 H -1.037300 -4.801052 2.598007 0
M  V30 25 H -1.891569 -5.069445 1.059942 0
M  V30 26 H 1.063772 -3.680794 2.329403 0
M  V30 27 H 1.468902 -3.100892 0.715880 0
M  V30 28 H 0.787231 -1.957500 2.002185 0
M  V30 29 H -0.475949 -2.194508 -0.719557 0
M  V30 30 H -0.065255 -3.905683 -0.857161 0
M  V30 31 H -1.780025 -3.493080 -0.707271 0
M  V30 32 H -2.300353 -2.945036 2.486468 0
M  V30 33 H -0.066133 2.641419 -0.216611 0
M  V30 34 H 0.437889 0.118013 -1.506499 0
M  V30 35 H 1.085083 2.374133 -2.381871 0
M  V30 36 H 2.453967 1.234322 -2.412338 0
M  V30 37 H 1.968125 3.613533 -0.580950 0
M  V30 38 H 3.363255 3.154141 -1.618559 0
M  V30 39 H 2.805827 2.434899 1.148116 0
M  V30 40 H 5.133352 2.387828 -0.539299 0
M  V30 41 H 3.744145 0.190012 1.049269 0
M  V30 42 H 3.841744 0.219810 -0.728854 0
M  V30 43 H 1.963539 -0.980497 -0.285312 0
M  V30 44 H 1.454946 0.156112 1.099252 0
M  V30 45 H -3.411314 1.633556 2.818402 0
M  V30 46 H -4.297156 0.692223 4.491061 0
M  V30 47 H -4.273017 0.672447 4.470798 0
M  V30 END ATOM
M  V30 BEGIN BOND
M  V30 1 1 1 2
M  V30 2 1 2 3
M  V30 3 1 2 4
M  V30 4 1 2 5
M  V30 5 1 5 6
M  V30 6 2 6 7
M  V30 7 1 7 8
M  V30 8 1 8 9
M  V30 9 1 9 10
M  V30 10 1 10 11
M  V30 11 1 11 12
M  V30 12 1 12 13
M  V30 13 1 13 14
M  V30 14 1 13 15
M  V30 15 1 15 16
M  V30 16 2 8 17
M  V30 17 1 17 18
M  V30 18 2 18 19
M  V30 19 1 19 20
M  V30 20 1 20 21
M  V30 21 2 20 22
M  V30 22 1 19 6
M  V30 23 1 16 10
M  V30 24 1 1 23
M  V30 25 1 1 24
M  V30 26 1 1 25
M  V30 27 1 3 26
M  V30 28 1 3 27
M  V30 29 1 3 28
M  V30 30 1 4 29
M  V30 31 1 4 30
M  V30 32 1 4 31
M  V30 33 1 5 32
M  V30 34 1 9 33
M  V30 35 1 10 34 CFG=3
M  V30 36 1 11 35
M  V30 37 1 11 36
M  V30 38 1 12 37
M  V30 39 1 12 38
M  V30 40 1 13 39 CFG=1
M  V30 41 1 14 40
M  V30 42 1 15 41
M  V30 43 1 15 42
M  V30 44 1 16 43
M  V30 45 1 16 44
M  V30 46 1 18 45
M  V30 47 1 21 46
M  V30 48 1 21 47
M  V30 END BOND
M  V30 END CTAB
M  END
>  <Dataset>  (372) 
ChEMBL_Kinases

>  <Ligand_Instance>  (372) 
nan

>  <PDB_ID>  (372) 
nan

>  <Standardized_SMILES>  (372) 
CC(C)(C)Nc1nc(N[C@H]2CC[C@H](O)CC2)ncc1C(N)=O

>  <Name>  (372) 
nan

>  <Pocket>  (372) 
nan

>  <ATP_Site>  (372) 
nan

>  <Peripheral>  (372) 
nan

>  <Num_H_Atoms_ProtBoundConf>  (372) 
nan

>  <Num_Resolved_Atoms>  (372) 
nan

>  <Num_Not_Resolved_Atoms>  (372) 
nan

$$$$
CHEMBL3956349
     RDKit          3D

  0  0  0  0  0  0  0  0  0  0999 V3000
M  V30 BEGIN CTAB
M  V30 COUNTS 49 53 0 0 0
M  V30 BEGIN ATOM
M  V30 1 N -0.551729 -4.212695 0.866497 0
M  V30 2 C 0.780188 -3.832308 0.457867 0 CFG=1
M  V30 3 C 1.242422 -4.577219 -0.772008 0
M  V30 4 C 2.591821 -4.026906 -1.168875 0
M  V30 5 C 3.165470 -3.064322 -0.152400 0
M  V30 6 N 2.251168 -1.995581 0.192009 0
M  V30 7 C 2.661655 -0.696764 0.592794 0
M  V30 8 C 3.997707 -0.377433 0.694596 0
M  V30 9 C 4.374735 0.890539 1.084898 0
M  V30 10 C 3.372831 1.826148 1.369277 0
M  V30 11 C 2.040452 1.475872 1.258004 0
M  V30 12 C 1.027123 2.480692 1.563509 0
M  V30 13 N 1.245548 3.766469 1.958217 0
M  V30 14 N 0.086720 4.372400 2.140987 0
M  V30 15 C -0.946867 3.540352 1.883292 0
M  V30 16 C -2.322452 3.681212 1.922980 0
M  V30 17 N -3.076625 2.601060 1.589932 0
M  V30 18 C -2.555491 1.416724 1.228212 0
M  V30 19 C -3.451314 0.339727 0.895529 0
M  V30 20 C -4.808392 0.580559 0.965311 0
M  V30 21 C -5.737128 -0.406793 0.659962 0
M  V30 22 C -5.267959 -1.658961 0.277608 0
M  V30 23 N -3.949652 -1.907159 0.205455 0
M  V30 24 C -3.065037 -0.915030 0.512145 0
M  V30 25 C -1.180037 1.310136 1.199027 0
M  V30 26 C -0.344210 2.334352 1.515121 0
M  V30 27 N 1.714862 0.215821 0.870281 0
M  V30 28 C 0.851584 -2.352514 0.097987 0
M  V30 29 H -0.772484 -5.119389 0.405873 0
M  V30 30 H -0.587616 -4.298537 1.887883 0
M  V30 31 H 1.488475 -3.980505 1.290581 0
M  V30 32 H 1.258496 -5.676988 -0.581303 0
M  V30 33 H 0.515786 -4.403091 -1.602436 0
M  V30 34 H 2.521290 -3.485325 -2.146415 0
M  V30 35 H 3.311745 -4.851759 -1.269961 0
M  V30 36 H 3.580929 -3.579263 0.739105 0
M  V30 37 H 4.056772 -2.596948 -0.664664 0
M  V30 38 H 4.788786 -1.082330 0.480756 0
M  V30 39 H 5.395976 1.222952 1.189883 0
M  V30 40 H 3.627396 2.827296 1.677370 0
M  V30 41 H 0.020999 5.367835 2.445998 0
M  V30 42 H -2.766480 4.620440 2.209833 0
M  V30 43 H -5.224252 1.531952 1.255736 0
M  V30 44 H -6.813306 -0.216182 0.715056 0
M  V30 45 H -5.967177 -2.456570 0.031050 0
M  V30 46 H -2.026004 -1.143018 0.445205 0
M  V30 47 H -0.752290 0.379611 0.914799 0
M  V30 48 H 0.252082 -1.797331 0.851834 0
M  V30 49 H 0.536384 -2.178676 -0.938798 0
M  V30 END ATOM
M  V30 BEGIN BOND
M  V30 1 1 1 2
M  V30 2 1 2 3
M  V30 3 1 3 4
M  V30 4 1 4 5
M  V30 5 1 5 6
M  V30 6 1 6 7
M  V30 7 2 7 8
M  V30 8 1 8 9
M  V30 9 2 9 10
M  V30 10 1 10 11
M  V30 11 1 11 12
M  V30 12 2 12 13
M  V30 13 1 13 14
M  V30 14 1 14 15
M  V30 15 2 15 16
M  V30 16 1 16 17
M  V30 17 2 17 18
M  V30 18 1 18 19
M  V30 19 2 19 20
M  V30 20 1 20 21
M  V30 21 2 21 22
M  V30 22 1 22 23
M  V30 23 2 23 24
M  V30 24 1 18 25
M  V30 25 2 25 26
M  V30 26 2 11 27
M  V30 27 1 6 28
M  V30 28 1 28 2
M  V30 29 1 27 7
M  V30 30 1 26 12
M  V30 31 1 26 15
M  V30 32 1 24 19
M  V30 33 1 1 29
M  V30 34 1 1 30
M  V30 35 1 2 31 CFG=1
M  V30 36 1 3 32
M  V30 37 1 3 33
M  V30 38 1 4 34
M  V30 39 1 4 35
M  V30 40 1 5 36
M  V30 41 1 5 37
M  V30 42 1 8 38
M  V30 43 1 9 39
M  V30 44 1 10 40
M  V30 45 1 14 41
M  V30 46 1 16 42
M  V30 47 1 20 43
M  V30 48 1 21 44
M  V30 49 1 22 45
M  V30 50 1 24 46
M  V30 51 1 25 47
M  V30 52 1 28 48
M  V30 53 1 28 49
M  V30 END BOND
M  V30 END CTAB
M  END
>  <Dataset>  (373) 
ChEMBL_Kinases

>  <Ligand_Instance>  (373) 
nan

>  <PDB_ID>  (373) 
nan

>  <Standardized_SMILES>  (373) 
N[C@H]1CCCN(c2cccc(-c3n[nH]c4cnc(-c5cccnc5)cc34)n2)C1

>  <Name>  (373) 
nan

>  <Pocket>  (373) 
nan

>  <ATP_Site>  (373) 
nan

>  <Peripheral>  (373) 
nan

>  <Num_H_Atoms_ProtBoundConf>  (373) 
nan

>  <Num_Resolved_Atoms>  (373) 
nan

>  <Num_Not_Resolved_Atoms>  (373) 
nan

$$$$
CHEMBL3956461
     RDKit          3D

  0  0  0  0  0  0  0  0  0  0999 V3000
M  V30 BEGIN CTAB
M  V30 COUNTS 53 57 0 0 0
M  V30 BEGIN ATOM
M  V30 1 C -2.654192 -1.978490 5.707035 0
M  V30 2 C -1.199762 -1.893056 6.112217 0
M  V30 3 N -0.377863 -2.802830 5.320984 0
M  V30 4 C 0.168670 -2.392303 4.168533 0
M  V30 5 C 0.879267 -3.450771 3.647463 0
M  V30 6 C 1.665498 -3.640685 2.448641 0
M  V30 7 C 1.778751 -2.588598 1.567048 0
M  V30 8 C 2.452858 -2.400076 0.294434 0
M  V30 9 C 2.686260 -1.471604 -0.814354 0
M  V30 10 C 1.941502 -0.329923 -0.214508 0
M  V30 11 C 1.885083 0.286132 1.005139 0
M  V30 12 C 1.170461 1.436797 1.215791 0
M  V30 13 C 0.502273 1.958422 0.132573 0
M  V30 14 C 0.534660 1.371967 -1.109628 0
M  V30 15 N -0.193848 1.977725 -2.164325 0
M  V30 16 C -0.329714 1.370771 -3.496519 0
M  V30 17 C -1.727092 0.740734 -3.454634 0
M  V30 18 N -2.553625 1.491563 -2.513271 0
M  V30 19 C -3.948822 1.202518 -2.724014 0
M  V30 20 C -2.329692 2.913034 -2.595746 0
M  V30 21 C -0.896115 3.212171 -2.129051 0
M  V30 22 N 1.250521 0.247471 -1.251565 0
M  V30 23 N 3.307671 -2.424214 -1.314721 0
M  V30 24 N 3.583338 -3.578160 -1.004273 0
M  V30 25 C 3.002065 -3.686597 0.186869 0
M  V30 26 C 3.003343 -4.832073 0.932937 0
M  V30 27 N 2.309869 -4.765910 2.080991 0
M  V30 28 C 0.753333 -4.509786 4.506617 0
M  V30 29 N -0.022467 -4.052275 5.505117 0
M  V30 30 H -3.335194 -1.960169 6.576055 0
M  V30 31 H -2.930774 -1.110893 5.041283 0
M  V30 32 H -2.885785 -2.908245 5.138862 0
M  V30 33 H -0.872786 -0.841177 5.969573 0
M  V30 34 H -1.147326 -2.105108 7.201111 0
M  V30 35 H 0.115475 -1.435428 3.669506 0
M  V30 36 H 1.149813 -1.776953 1.953539 0
M  V30 37 H 2.516044 -0.226884 1.714991 0
M  V30 38 H 1.234855 1.780918 2.215883 0
M  V30 39 H -0.034710 2.862192 0.383400 0
M  V30 40 H 0.399823 0.543227 -3.585411 0
M  V30 41 H -0.231150 2.104405 -4.313611 0
M  V30 42 H -1.582046 -0.280436 -3.017319 0
M  V30 43 H -2.175810 0.613425 -4.439170 0
M  V30 44 H -4.351627 0.510444 -1.944814 0
M  V30 45 H -4.541784 2.150290 -2.618813 0
M  V30 46 H -4.164134 0.704382 -3.700366 0
M  V30 47 H -3.077893 3.399321 -1.939018 0
M  V30 48 H -2.509364 3.250275 -3.635719 0
M  V30 49 H -0.489736 3.969199 -2.848237 0
M  V30 50 H -0.991739 3.719178 -1.176707 0
M  V30 51 H 4.160230 -4.138728 -1.702210 0
M  V30 52 H 3.506290 -5.734407 0.655895 0
M  V30 53 H 1.183166 -5.514767 4.423119 0
M  V30 END ATOM
M  V30 BEGIN BOND
M  V30 1 1 1 2
M  V30 2 1 2 3
M  V30 3 1 3 4
M  V30 4 2 4 5
M  V30 5 1 5 6
M  V30 6 2 6 7
M  V30 7 1 7 8
M  V30 8 1 8 9
M  V30 9 1 9 10
M  V30 10 2 10 11
M  V30 11 1 11 12
M  V30 12 2 12 13
M  V30 13 1 13 14
M  V30 14 1 14 15
M  V30 15 1 15 16
M  V30 16 1 16 17
M  V30 17 1 17 18
M  V30 18 1 18 19
M  V30 19 1 18 20
M  V30 20 1 20 21
M  V30 21 2 14 22
M  V30 22 2 9 23
M  V30 23 1 23 24
M  V30 24 1 24 25
M  V30 25 1 25 26
M  V30 26 2 26 27
M  V30 27 1 5 28
M  V30 28 2 28 29
M  V30 29 1 29 3
M  V30 30 1 27 6
M  V30 31 2 25 8
M  V30 32 1 22 10
M  V30 33 1 21 15
M  V30 34 1 1 30
M  V30 35 1 1 31
M  V30 36 1 1 32
M  V30 37 1 2 33
M  V30 38 1 2 34
M  V30 39 1 4 35
M  V30 40 1 7 36
M  V30 41 1 11 37
M  V30 42 1 12 38
M  V30 43 1 13 39
M  V30 44 1 16 40
M  V30 45 1 16 41
M  V30 46 1 17 42
M  V30 47 1 17 43
M  V30 48 1 19 44
M  V30 49 1 19 45
M  V30 50 1 19 46
M  V30 51 1 20 47
M  V30 52 1 20 48
M  V30 53 1 21 49
M  V30 54 1 21 50
M  V30 55 1 24 51
M  V30 56 1 26 52
M  V30 57 1 28 53
M  V30 END BOND
M  V30 END CTAB
M  END
>  <Dataset>  (374) 
ChEMBL_Kinases

>  <Ligand_Instance>  (374) 
nan

>  <PDB_ID>  (374) 
nan

>  <Standardized_SMILES>  (374) 
CCn1cc(-c2cc3c(-c4cccc(N5CCN(C)CC5)n4)n[nH]c3cn2)cn1

>  <Name>  (374) 
nan

>  <Pocket>  (374) 
nan

>  <ATP_Site>  (374) 
nan

>  <Peripheral>  (374) 
nan

>  <Num_H_Atoms_ProtBoundConf>  (374) 
nan

>  <Num_Resolved_Atoms>  (374) 
nan

>  <Num_Not_Resolved_Atoms>  (374) 
nan

$$$$
CHEMBL3956625
     RDKit          3D

  0  0  0  0  0  0  0  0  0  0999 V3000
M  V30 BEGIN CTAB
M  V30 COUNTS 134 137 0 0 0
M  V30 BEGIN ATOM
M  V30 1 C 3.970318 -4.513572 -0.221615 0
M  V30 2 C 3.352999 -3.162393 -0.316704 0
M  V30 3 O 2.839778 -3.056225 -1.488236 0
M  V30 4 N 3.447174 -2.296585 0.849301 0
M  V30 5 C 4.149096 -2.799776 2.064743 0
M  V30 6 C 5.207508 -1.696547 2.210381 0
M  V30 7 C 4.511937 -0.450189 1.676906 0
M  V30 8 C 3.124384 -1.026011 1.397180 0 CFG=1
M  V30 9 C 2.248244 -0.109950 0.746201 0
M  V30 10 O 2.195074 0.901817 1.547305 0
M  V30 11 N 1.458329 0.092358 -0.390361 0
M  V30 12 C 0.561663 0.963711 -1.099855 0 CFG=1
M  V30 13 C 1.364667 1.639317 -2.188667 0
M  V30 14 C 0.630561 2.590855 -3.049687 0
M  V30 15 C 0.015208 3.750273 -2.282594 0
M  V30 16 C 1.699520 3.252977 -3.940611 0
M  V30 17 C -0.572349 0.193521 -1.604844 0
M  V30 18 O -1.353509 0.875078 -2.336502 0
M  V30 19 N -0.890517 -1.183616 -1.392461 0
M  V30 20 C -1.973227 -1.879882 -1.969432 0 CFG=1
M  V30 21 C -3.347447 -1.470944 -1.695359 0
M  V30 22 C -3.810328 -1.544632 -0.325230 0
M  V30 23 C -4.225337 -2.855780 -0.006428 0
M  V30 24 N -4.644417 -2.961373 1.278745 0
M  V30 25 C -4.503970 -1.711852 1.811038 0
M  V30 26 N -4.018931 -0.924638 0.847983 0
M  V30 27 C -3.764847 0.456439 1.018078 0
M  V30 28 C -2.447027 0.741781 1.675113 0
M  V30 29 C -2.230751 2.246157 1.774385 0
M  V30 30 C -1.004461 2.723137 2.384907 0
M  V30 31 C -0.609120 2.584192 3.797652 0
M  V30 32 C -1.368645 3.272413 4.837489 0
M  V30 33 C -2.698077 3.020127 5.329524 0
M  V30 34 C -3.030852 1.883464 6.205592 0
M  V30 35 C -2.810887 0.495920 5.886918 0
M  V30 36 C -1.530413 -0.053648 6.019541 0
M  V30 37 F -0.432916 0.661960 6.419405 0
M  V30 38 C -1.259237 -1.386132 5.788555 0
M  V30 39 C -2.283902 -2.224939 5.411076 0
M  V30 40 C -3.520684 -1.648807 5.293206 0
M  V30 41 C -3.876157 -0.334187 5.503243 0
M  V30 42 O -5.047823 0.328297 5.421265 0
M  V30 43 C -6.311483 -0.069035 5.129186 0
M  V30 44 C -7.079117 -0.185931 3.993210 0
M  V30 45 C -8.375535 -0.636529 4.033955 0
M  V30 46 C -9.009321 -1.005345 5.202337 0
M  V30 47 C -8.255904 -0.894792 6.350021 0
M  V30 48 C -6.928985 -0.437340 6.339809 0
M  V30 49 C -1.706965 -1.901385 -3.472614 0
M  V30 50 O -2.627805 -2.461002 -4.130455 0
M  V30 51 N -0.607608 -1.396927 -4.206954 0
M  V30 52 C -0.499484 -1.487513 -5.636282 0 CFG=1
M  V30 53 C -0.741869 -0.095093 -6.270467 0
M  V30 54 O -0.622060 -0.257084 -7.645558 0
M  V30 55 C 0.847182 -1.906254 -6.027102 0
M  V30 56 O 0.952694 -2.006275 -7.274637 0
M  V30 57 N 1.978556 -2.194478 -5.225282 0
M  V30 58 C 3.255709 -2.600249 -5.804285 0 CFG=2
M  V30 59 C 3.652956 -3.886312 -5.180408 0
M  V30 60 N 4.911551 -4.289960 -5.760011 0
M  V30 61 O 3.029549 -4.538832 -4.300485 0
M  V30 62 C 4.304819 -1.584375 -5.426632 0 CFG=1
M  V30 63 C 4.421742 -1.587521 -3.917708 0
M  V30 64 O 5.554517 -1.919469 -5.952551 0
M  V30 65 P 6.186294 -0.576954 -6.751227 0
M  V30 66 O 6.989935 0.287655 -5.792973 0
M  V30 67 O 7.235674 -1.010080 -8.005595 0
M  V30 68 O 4.907632 0.301557 -7.422924 0
M  V30 69 H 5.049481 -4.306247 0.054819 0
M  V30 70 H 3.582710 -5.076657 0.652743 0
M  V30 71 H 4.014395 -5.078791 -1.138264 0
M  V30 72 H 3.393387 -2.743526 2.869574 0
M  V30 73 H 4.561102 -3.790812 1.946206 0
M  V30 74 H 5.394963 -1.592316 3.289440 0
M  V30 75 H 6.100358 -1.960186 1.614488 0
M  V30 76 H 4.499285 0.383830 2.382088 0
M  V30 77 H 5.017684 -0.185631 0.720714 0
M  V30 78 H 2.699613 -1.249998 2.434483 0
M  V30 79 H 1.596673 -0.787614 -0.969252 0
M  V30 80 H 0.230649 1.761001 -0.421737 0
M  V30 81 H 1.786187 0.851348 -2.847166 0
M  V30 82 H 2.227108 2.151944 -1.719983 0
M  V30 83 H -0.054170 2.131518 -3.782031 0
M  V30 84 H 0.394699 3.820901 -1.243151 0
M  V30 85 H -1.109934 3.672878 -2.295858 0
M  V30 86 H 0.207530 4.736003 -2.754894 0
M  V30 87 H 1.288647 4.227827 -4.294292 0
M  V30 88 H 2.513812 3.519533 -3.232423 0
M  V30 89 H 2.057686 2.587987 -4.725881 0
M  V30 90 H -0.212724 -1.658454 -0.731816 0
M  V30 91 H -1.865666 -2.989270 -1.696684 0
M  V30 92 H -4.072186 -2.017479 -2.386683 0
M  V30 93 H -3.509616 -0.362431 -1.988141 0
M  V30 94 H -4.313911 -3.844488 -0.494476 0
M  V30 95 H -4.742057 -1.401573 2.808334 0
M  V30 96 H -4.565889 0.910054 1.675001 0
M  V30 97 H -3.880937 1.032059 0.062284 0
M  V30 98 H -1.620086 0.306851 1.092660 0
M  V30 99 H -2.450484 0.316422 2.677083 0
M  V30 100 H -2.364469 2.697473 0.725551 0
M  V30 101 H -3.138620 2.653164 2.302538 0
M  V30 102 H -0.150079 2.186812 1.809175 0
M  V30 103 H -0.827538 3.810295 2.033047 0
M  V30 104 H -0.397058 1.497145 3.958224 0
M  V30 105 H 0.459051 3.019751 3.866945 0
M  V30 106 H -0.700741 3.347170 5.804482 0
M  V30 107 H -1.339363 4.405592 4.540023 0
M  V30 108 H -3.481681 3.159597 4.516456 0
M  V30 109 H -2.973501 3.950244 5.985095 0
M  V30 110 H -2.402626 2.073717 7.164962 0
M  V30 111 H -4.077520 2.029667 6.664066 0
M  V30 112 H -0.273264 -1.822159 5.886434 0
M  V30 113 H -2.198950 -3.287079 5.201161 0
M  V30 114 H -4.382555 -2.264344 5.000799 0
M  V30 115 H -6.521658 0.122771 3.127106 0
M  V30 116 H -8.905359 -0.696877 3.095153 0
M  V30 117 H -10.024426 -1.346982 5.152721 0
M  V30 118 H -8.779816 -1.189944 7.262309 0
M  V30 119 H -6.521904 -0.430424 7.360471 0
M  V30 120 H 0.135230 -0.958480 -3.628924 0
M  V30 121 H -1.274226 -2.137405 -6.070847 0
M  V30 122 H -1.805497 0.128438 -6.033582 0
M  V30 123 H -0.035226 0.637119 -5.870403 0
M  V30 124 H -1.100037 -1.086398 -7.898434 0
M  V30 125 H 1.807946 -2.090753 -4.205244 0
M  V30 126 H 3.191925 -2.670067 -6.904551 0
M  V30 127 H 4.891166 -4.523173 -6.795643 0
M  V30 128 H 5.849292 -4.390112 -5.318680 0
M  V30 129 H 4.050193 -0.545847 -5.713706 0
M  V30 130 H 4.653699 -2.555613 -3.476984 0
M  V30 131 H 5.281837 -0.922992 -3.678851 0
M  V30 132 H 3.486401 -1.202656 -3.491193 0
M  V30 133 H 8.001573 -0.365085 -8.073721 0
M  V30 134 H 4.843831 1.193468 -6.977173 0
M  V30 END ATOM
M  V30 BEGIN BOND
M  V30 1 1 1 2
M  V30 2 2 2 3
M  V30 3 1 2 4
M  V30 4 1 4 5
M  V30 5 1 5 6
M  V30 6 1 6 7
M  V30 7 1 7 8
M  V30 8 1 8 9
M  V30 9 2 9 10
M  V30 10 1 9 11
M  V30 11 1 11 12
M  V30 12 1 12 13
M  V30 13 1 13 14
M  V30 14 1 14 15
M  V30 15 1 14 16
M  V30 16 1 12 17
M  V30 17 2 17 18
M  V30 18 1 17 19
M  V30 19 1 19 20
M  V30 20 1 20 21
M  V30 21 1 21 22
M  V30 22 2 22 23
M  V30 23 1 23 24
M  V30 24 2 24 25
M  V30 25 1 25 26
M  V30 26 1 26 27
M  V30 27 1 27 28
M  V30 28 1 28 29
M  V30 29 1 29 30
M  V30 30 1 30 31
M  V30 31 1 31 32
M  V30 32 1 32 33
M  V30 33 1 33 34
M  V30 34 1 34 35
M  V30 35 2 35 36
M  V30 36 1 36 37
M  V30 37 1 36 38
M  V30 38 2 38 39
M  V30 39 1 39 40
M  V30 40 2 40 41
M  V30 41 1 41 42
M  V30 42 1 42 43
M  V30 43 2 43 44
M  V30 44 1 44 45
M  V30 45 2 45 46
M  V30 46 1 46 47
M  V30 47 2 47 48
M  V30 48 1 20 49
M  V30 49 2 49 50
M  V30 50 1 49 51
M  V30 51 1 51 52
M  V30 52 1 52 53
M  V30 53 1 53 54
M  V30 54 1 52 55
M  V30 55 2 55 56
M  V30 56 1 55 57
M  V30 57 1 57 58
M  V30 58 1 58 59
M  V30 59 1 59 60
M  V30 60 2 59 61
M  V30 61 1 58 62
M  V30 62 1 62 63
M  V30 63 1 62 64
M  V30 64 1 64 65
M  V30 65 2 65 66
M  V30 66 1 65 67
M  V30 67 1 65 68
M  V30 68 1 8 4
M  V30 69 1 26 22
M  V30 70 1 41 35
M  V30 71 1 48 43
M  V30 72 1 1 69
M  V30 73 1 1 70
M  V30 74 1 1 71
M  V30 75 1 5 72
M  V30 76 1 5 73
M  V30 77 1 6 74
M  V30 78 1 6 75
M  V30 79 1 7 76
M  V30 80 1 7 77
M  V30 81 1 8 78 CFG=1
M  V30 82 1 11 79
M  V30 83 1 12 80 CFG=1
M  V30 84 1 13 81
M  V30 85 1 13 82
M  V30 86 1 14 83
M  V30 87 1 15 84
M  V30 88 1 15 85
M  V30 89 1 15 86
M  V30 90 1 16 87
M  V30 91 1 16 88
M  V30 92 1 16 89
M  V30 93 1 19 90
M  V30 94 1 20 91 CFG=1
M  V30 95 1 21 92
M  V30 96 1 21 93
M  V30 97 1 23 94
M  V30 98 1 25 95
M  V30 99 1 27 96
M  V30 100 1 27 97
M  V30 101 1 28 98
M  V30 102 1 28 99
M  V30 103 1 29 100
M  V30 104 1 29 101
M  V30 105 1 30 102
M  V30 106 1 30 103
M  V30 107 1 31 104
M  V30 108 1 31 105
M  V30 109 1 32 106
M  V30 110 1 32 107
M  V30 111 1 33 108
M  V30 112 1 33 109
M  V30 113 1 34 110
M  V30 114 1 34 111
M  V30 115 1 38 112
M  V30 116 1 39 113
M  V30 117 1 40 114
M  V30 118 1 44 115
M  V30 119 1 45 116
M  V30 120 1 46 117
M  V30 121 1 47 118
M  V30 122 1 48 119
M  V30 123 1 51 120
M  V30 124 1 52 121 CFG=3
M  V30 125 1 53 122
M  V30 126 1 53 123
M  V30 127 1 54 124
M  V30 128 1 57 125
M  V30 129 1 58 126 CFG=3
M  V30 130 1 60 127
M  V30 131 1 60 128
M  V30 132 1 62 129 CFG=3
M  V30 133 1 63 130
M  V30 134 1 63 131
M  V30 135 1 63 132
M  V30 136 1 67 133
M  V30 137 1 68 134
M  V30 END BOND
M  V30 END CTAB
M  END
>  <Dataset>  (375) 
ChEMBL_Kinases

>  <Ligand_Instance>  (375) 
nan

>  <PDB_ID>  (375) 
nan

>  <Standardized_SMILES>  (375) 
CC(=O)N1CCC[C@H]1C(=O)N[C@@H](CC(C)C)C(=O)N[C@@H](Cc1cncn1CCCCCCCCc1c(F)cccc1Oc1ccccc1)C(=O)N[C@@H](CO)C(=O)N[C@H](C(N)=O)[C@@H](C)OP(=O)(O)O

>  <Name>  (375) 
nan

>  <Pocket>  (375) 
nan

>  <ATP_Site>  (375) 
nan

>  <Peripheral>  (375) 
nan

>  <Num_H_Atoms_ProtBoundConf>  (375) 
nan

>  <Num_Resolved_Atoms>  (375) 
nan

>  <Num_Not_Resolved_Atoms>  (375) 
nan

$$$$
CHEMBL4874419
     RDKit          3D

  0  0  0  0  0  0  0  0  0  0999 V3000
M  V30 BEGIN CTAB
M  V30 COUNTS 44 45 0 0 0
M  V30 BEGIN ATOM
M  V30 1 C -1.866884 -3.431302 2.510448 0
M  V30 2 C -0.938227 -4.400518 1.824429 0
M  V30 3 C 0.414492 -4.489808 2.505431 0
M  V30 4 N -0.789099 -4.138305 0.404847 0
M  V30 5 C -0.277809 -2.882000 0.008664 0
M  V30 6 N 0.067195 -1.940656 0.905192 0
M  V30 7 C 0.556569 -0.735477 0.555391 0
M  V30 8 N 0.916705 0.248290 1.541250 0
M  V30 9 C 1.440035 1.545422 1.210965 0 CFG=1
M  V30 10 C 0.487637 2.348647 0.386135 0
M  V30 11 C 0.895910 3.795597 0.299444 0
M  V30 12 C 1.004109 4.324046 1.714867 0 CFG=2
M  V30 13 O 1.031175 5.698630 1.798193 0
M  V30 14 C 2.284944 3.672425 2.253789 0
M  V30 15 C 1.913919 2.218694 2.457590 0
M  V30 16 N 0.724244 -0.417010 -0.741747 0
M  V30 17 C 0.410945 -1.286401 -1.736987 0
M  V30 18 C -0.083149 -2.496472 -1.299942 0
M  V30 19 C -0.414326 -3.417234 -2.373075 0
M  V30 20 N -0.277851 -3.184037 -3.747250 0
M  V30 21 O -0.860865 -4.561791 -2.615712 0
M  V30 22 H -2.211806 -3.936001 3.450031 0
M  V30 23 H -2.733742 -3.282969 1.840693 0
M  V30 24 H -1.333694 -2.514853 2.761699 0
M  V30 25 H -1.412898 -5.398505 1.918247 0
M  V30 26 H 0.936012 -5.382318 2.120323 0
M  V30 27 H 0.213284 -4.671218 3.589829 0
M  V30 28 H 0.986390 -3.545928 2.402446 0
M  V30 29 H -1.046322 -4.844326 -0.319495 0
M  V30 30 H 0.775977 -0.030773 2.552945 0
M  V30 31 H 2.357990 1.391669 0.574337 0
M  V30 32 H 0.408864 1.932050 -0.625198 0
M  V30 33 H -0.491296 2.357262 0.921036 0
M  V30 34 H 0.191988 4.369486 -0.306427 0
M  V30 35 H 1.893977 3.884031 -0.179386 0
M  V30 36 H 0.145981 3.871784 2.277547 0
M  V30 37 H 0.512595 6.062306 1.016154 0
M  V30 38 H 2.586110 4.099027 3.208605 0
M  V30 39 H 3.032959 3.770138 1.442748 0
M  V30 40 H 1.039477 2.227191 3.162167 0
M  V30 41 H 2.775341 1.654288 2.856107 0
M  V30 42 H 0.547715 -1.023494 -2.755279 0
M  V30 43 H 0.525579 -3.356512 -4.423304 0
M  V30 44 H -0.942267 -2.773894 -4.470161 0
M  V30 END ATOM
M  V30 BEGIN BOND
M  V30 1 1 1 2
M  V30 2 1 2 3
M  V30 3 1 2 4
M  V30 4 1 4 5
M  V30 5 2 5 6
M  V30 6 1 6 7
M  V30 7 1 7 8
M  V30 8 1 8 9
M  V30 9 1 9 10
M  V30 10 1 10 11
M  V30 11 1 11 12
M  V30 12 1 12 13
M  V30 13 1 12 14
M  V30 14 1 14 15
M  V30 15 2 7 16
M  V30 16 1 16 17
M  V30 17 2 17 18
M  V30 18 1 18 19
M  V30 19 1 19 20
M  V30 20 2 19 21
M  V30 21 1 18 5
M  V30 22 1 15 9
M  V30 23 1 1 22
M  V30 24 1 1 23
M  V30 25 1 1 24
M  V30 26 1 2 25
M  V30 27 1 3 26
M  V30 28 1 3 27
M  V30 29 1 3 28
M  V30 30 1 4 29
M  V30 31 1 8 30
M  V30 32 1 9 31 CFG=3
M  V30 33 1 10 32
M  V30 34 1 10 33
M  V30 35 1 11 34
M  V30 36 1 11 35
M  V30 37 1 12 36 CFG=1
M  V30 38 1 13 37
M  V30 39 1 14 38
M  V30 40 1 14 39
M  V30 41 1 15 40
M  V30 42 1 15 41
M  V30 43 1 17 42
M  V30 44 1 20 43
M  V30 45 1 20 44
M  V30 END BOND
M  V30 END CTAB
M  END
>  <Dataset>  (376) 
ChEMBL_Kinases

>  <Ligand_Instance>  (376) 
nan

>  <PDB_ID>  (376) 
nan

>  <Standardized_SMILES>  (376) 
CC(C)Nc1nc(N[C@H]2CC[C@H](O)CC2)ncc1C(N)=O

>  <Name>  (376) 
nan

>  <Pocket>  (376) 
nan

>  <ATP_Site>  (376) 
nan

>  <Peripheral>  (376) 
nan

>  <Num_H_Atoms_ProtBoundConf>  (376) 
nan

>  <Num_Resolved_Atoms>  (376) 
nan

>  <Num_Not_Resolved_Atoms>  (376) 
nan

$$$$
CHEMBL4873647
     RDKit          3D

  0  0  0  0  0  0  0  0  0  0999 V3000
M  V30 BEGIN CTAB
M  V30 COUNTS 59 61 0 0 0
M  V30 BEGIN ATOM
M  V30 1 C 4.368923 -2.138148 4.897285 0
M  V30 2 C 4.939987 -0.810280 4.548602 0
M  V30 3 F 5.459272 -0.277316 5.744147 0
M  V30 4 F 6.091690 -0.967402 3.750505 0
M  V30 5 C 4.034052 0.218726 3.996175 0
M  V30 6 O 3.369041 -0.004983 2.823567 0
M  V30 7 C 2.449537 -0.971718 2.575490 0
M  V30 8 N 1.865914 -1.969617 3.247890 0
M  V30 9 C 0.961630 -2.766882 2.680053 0
M  V30 10 N 0.547933 -2.659879 1.406279 0
M  V30 11 C 1.071907 -1.688673 0.640858 0
M  V30 12 C 2.019853 -0.855053 1.240707 0
M  V30 13 C 2.554122 0.196386 0.299951 0
M  V30 14 N 1.925550 1.443213 0.676950 0
M  V30 15 C 0.577479 1.887291 0.643679 0
M  V30 16 N 0.358065 3.129218 1.104875 0
M  V30 17 C -0.875137 3.637738 1.092051 0
M  V30 18 C -1.891601 2.861600 0.600284 0
M  V30 19 C -3.198072 3.484121 0.620159 0
M  V30 20 N -4.261897 3.972000 0.640344 0
M  V30 21 C -1.696011 1.566063 0.113485 0
M  V30 22 N -2.820635 0.890603 -0.379863 0
M  V30 23 C -2.978948 -0.435772 -0.921611 0 CFG=2
M  V30 24 C -2.714567 -1.446948 0.176547 0
M  V30 25 C -2.838583 -2.818517 -0.392226 0
M  V30 26 C -2.042660 -3.093022 -1.616153 0 CFG=2
M  V30 27 O -0.807383 -3.633467 -1.263142 0
M  V30 28 C -1.958169 -1.986433 -2.596895 0
M  V30 29 C -3.133153 -2.096971 -3.566480 0
M  V30 30 C -0.711409 -2.114783 -3.447069 0
M  V30 31 C -1.965437 -0.598498 -2.041542 0
M  V30 32 N -0.425630 1.130730 0.162877 0
M  V30 33 H 3.430745 -2.077813 5.479556 0
M  V30 34 H 4.335186 -2.839419 4.036464 0
M  V30 35 H 5.066114 -2.689299 5.621859 0
M  V30 36 H 4.666931 1.171670 3.929494 0
M  V30 37 H 3.329696 0.499983 4.844071 0
M  V30 38 H 0.564089 -3.538294 3.335192 0
M  V30 39 H 0.759062 -1.581937 -0.375515 0
M  V30 40 H 3.640799 0.215002 0.330122 0
M  V30 41 H 2.272559 -0.023725 -0.759366 0
M  V30 42 H 2.670963 2.111758 1.041670 0
M  V30 43 H -1.037303 4.636823 1.465767 0
M  V30 44 H -3.752743 1.409411 -0.374499 0
M  V30 45 H -3.983243 -0.629073 -1.290939 0
M  V30 46 H -3.555345 -1.325907 0.908104 0
M  V30 47 H -1.755288 -1.261413 0.652587 0
M  V30 48 H -3.918759 -3.091738 -0.515920 0
M  V30 49 H -2.467672 -3.522642 0.410862 0
M  V30 50 H -2.568403 -3.947947 -2.146945 0
M  V30 51 H -0.833320 -4.596865 -1.082362 0
M  V30 52 H -3.063706 -3.117932 -4.009550 0
M  V30 53 H -4.071511 -1.970465 -2.996215 0
M  V30 54 H -2.968020 -1.315840 -4.341070 0
M  V30 55 H -0.282078 -1.128222 -3.732582 0
M  V30 56 H -0.899974 -2.666057 -4.387204 0
M  V30 57 H 0.101323 -2.657352 -2.896124 0
M  V30 58 H -0.967984 -0.246023 -1.735437 0
M  V30 59 H -2.318913 0.085055 -2.860254 0
M  V30 END ATOM
M  V30 BEGIN BOND
M  V30 1 1 1 2
M  V30 2 1 2 3
M  V30 3 1 2 4
M  V30 4 1 2 5
M  V30 5 1 5 6
M  V30 6 1 6 7
M  V30 7 2 7 8
M  V30 8 1 8 9
M  V30 9 2 9 10
M  V30 10 1 10 11
M  V30 11 2 11 12
M  V30 12 1 12 13
M  V30 13 1 13 14
M  V30 14 1 14 15
M  V30 15 2 15 16
M  V30 16 1 16 17
M  V30 17 2 17 18
M  V30 18 1 18 19
M  V30 19 3 19 20
M  V30 20 1 18 21
M  V30 21 1 21 22
M  V30 22 1 22 23
M  V30 23 1 23 24
M  V30 24 1 24 25
M  V30 25 1 25 26
M  V30 26 1 26 27
M  V30 27 1 26 28
M  V30 28 1 28 29
M  V30 29 1 28 30
M  V30 30 1 28 31
M  V30 31 2 21 32
M  V30 32 1 12 7
M  V30 33 1 32 15
M  V30 34 1 31 23
M  V30 35 1 1 33
M  V30 36 1 1 34
M  V30 37 1 1 35
M  V30 38 1 5 36
M  V30 39 1 5 37
M  V30 40 1 9 38
M  V30 41 1 11 39
M  V30 42 1 13 40
M  V30 43 1 13 41
M  V30 44 1 14 42
M  V30 45 1 17 43
M  V30 46 1 22 44
M  V30 47 1 23 45 CFG=3
M  V30 48 1 24 46
M  V30 49 1 24 47
M  V30 50 1 25 48
M  V30 51 1 25 49
M  V30 52 1 26 50 CFG=3
M  V30 53 1 27 51
M  V30 54 1 29 52
M  V30 55 1 29 53
M  V30 56 1 29 54
M  V30 57 1 30 55
M  V30 58 1 30 56
M  V30 59 1 30 57
M  V30 60 1 31 58
M  V30 61 1 31 59
M  V30 END BOND
M  V30 END CTAB
M  END
>  <Dataset>  (377) 
ChEMBL_Kinases

>  <Ligand_Instance>  (377) 
nan

>  <PDB_ID>  (377) 
nan

>  <Standardized_SMILES>  (377) 
CC(F)(F)COc1ncncc1CNc1ncc(C#N)c(N[C@@H]2CC[C@H](O)C(C)(C)C2)n1

>  <Name>  (377) 
nan

>  <Pocket>  (377) 
nan

>  <ATP_Site>  (377) 
nan

>  <Peripheral>  (377) 
nan

>  <Num_H_Atoms_ProtBoundConf>  (377) 
nan

>  <Num_Resolved_Atoms>  (377) 
nan

>  <Num_Not_Resolved_Atoms>  (377) 
nan

$$$$
CHEMBL3652000
     RDKit          3D

  0  0  0  0  0  0  0  0  0  0999 V3000
M  V30 BEGIN CTAB
M  V30 COUNTS 60 63 0 0 0
M  V30 BEGIN ATOM
M  V30 1 N -1.692919 2.926640 -0.560709 0
M  V30 2 C -0.394068 2.515819 -0.167118 0
M  V30 3 C 0.671117 3.337371 -0.551133 0
M  V30 4 C 1.944007 2.924225 -0.158858 0
M  V30 5 C 2.149740 1.755903 0.576709 0
M  V30 6 C 3.562845 1.398604 0.950559 0
M  V30 7 C 3.768180 1.482408 2.445296 0
M  V30 8 C 3.249949 0.307020 3.203191 0
M  V30 9 C 3.354261 -0.987706 2.467693 0
M  V30 10 C 4.369924 -0.938833 1.369075 0
M  V30 11 C 3.987608 0.105562 0.342114 0
M  V30 12 N 1.095262 0.986646 0.929979 0
M  V30 13 C -0.107817 1.377705 0.558877 0
M  V30 14 C -1.290641 0.596272 0.905772 0
M  V30 15 O -2.448612 0.959189 0.557204 0
M  V30 16 N -1.271809 -0.639485 1.661802 0
M  V30 17 C -2.606867 -1.106682 1.799840 0
M  V30 18 C -3.313373 -0.582042 2.862894 0
M  V30 19 N -4.583375 -0.960045 3.091489 0
M  V30 20 C -5.158284 -1.855508 2.272536 0
M  V30 21 C -4.423751 -2.358909 1.221342 0
M  V30 22 C -3.095039 -2.030107 0.897812 0
M  V30 23 C -2.421869 -2.643472 -0.231727 0 CFG=2
M  V30 24 C -1.684369 -3.921781 0.105682 0
M  V30 25 C -1.652919 -4.806408 -1.115343 0
M  V30 26 C -1.991260 -4.012223 -2.331090 0
M  V30 27 C -1.392915 -2.641078 -2.402820 0 CFG=2
M  V30 28 N 0.007437 -2.770558 -2.758603 0
M  V30 29 C -1.588080 -1.818698 -1.127822 0
M  V30 30 H -1.944147 2.771842 -1.564379 0
M  V30 31 H -2.418884 3.366973 0.053595 0
M  V30 32 H 0.514535 4.243526 -1.121294 0
M  V30 33 H 2.744940 3.580067 -0.470791 0
M  V30 34 H 4.193489 2.218395 0.520588 0
M  V30 35 H 3.275179 2.438682 2.758400 0
M  V30 36 H 4.840875 1.624646 2.631110 0
M  V30 37 H 2.208758 0.515572 3.570265 0
M  V30 38 H 3.844502 0.206315 4.152474 0
M  V30 39 H 2.400214 -1.323955 2.010264 0
M  V30 40 H 3.630164 -1.817386 3.168166 0
M  V30 41 H 5.378379 -0.778404 1.777935 0
M  V30 42 H 4.344386 -1.920297 0.826498 0
M  V30 43 H 4.904979 0.239859 -0.293428 0
M  V30 44 H 3.188362 -0.280483 -0.320798 0
M  V30 45 H -0.338984 -0.977944 1.970891 0
M  V30 46 H -2.870610 0.140002 3.534888 0
M  V30 47 H -6.164426 -2.169062 2.435301 0
M  V30 48 H -4.949447 -3.089769 0.584492 0
M  V30 49 H -3.259686 -3.007360 -0.909159 0
M  V30 50 H -0.619113 -3.733055 0.364424 0
M  V30 51 H -2.233547 -4.397039 0.934115 0
M  V30 52 H -0.686701 -5.348209 -1.197244 0
M  V30 53 H -2.459867 -5.578808 -0.963034 0
M  V30 54 H -3.071302 -4.053133 -2.608686 0
M  V30 55 H -1.494469 -4.575921 -3.189304 0
M  V30 56 H -1.879343 -2.144055 -3.289654 0
M  V30 57 H 0.311584 -1.982818 -3.378109 0
M  V30 58 H 0.129864 -3.644124 -3.321142 0
M  V30 59 H -2.037165 -0.865828 -1.454956 0
M  V30 60 H -0.568205 -1.603022 -0.761198 0
M  V30 END ATOM
M  V30 BEGIN BOND
M  V30 1 1 1 2
M  V30 2 2 2 3
M  V30 3 1 3 4
M  V30 4 2 4 5
M  V30 5 1 5 6
M  V30 6 1 6 7
M  V30 7 1 7 8
M  V30 8 1 8 9
M  V30 9 1 9 10
M  V30 10 1 10 11
M  V30 11 1 5 12
M  V30 12 2 12 13
M  V30 13 1 13 14
M  V30 14 2 14 15
M  V30 15 1 14 16
M  V30 16 1 16 17
M  V30 17 2 17 18
M  V30 18 1 18 19
M  V30 19 2 19 20
M  V30 20 1 20 21
M  V30 21 2 21 22
M  V30 22 1 22 23
M  V30 23 1 23 24
M  V30 24 1 24 25
M  V30 25 1 25 26
M  V30 26 1 26 27
M  V30 27 1 27 28
M  V30 28 1 27 29
M  V30 29 1 13 2
M  V30 30 1 22 17
M  V30 31 1 29 23
M  V30 32 1 11 6
M  V30 33 1 1 30
M  V30 34 1 1 31
M  V30 35 1 3 32
M  V30 36 1 4 33
M  V30 37 1 6 34
M  V30 38 1 7 35
M  V30 39 1 7 36
M  V30 40 1 8 37
M  V30 41 1 8 38
M  V30 42 1 9 39
M  V30 43 1 9 40
M  V30 44 1 10 41
M  V30 45 1 10 42
M  V30 46 1 11 43
M  V30 47 1 11 44
M  V30 48 1 16 45
M  V30 49 1 18 46
M  V30 50 1 20 47
M  V30 51 1 21 48
M  V30 52 1 23 49 CFG=3
M  V30 53 1 24 50
M  V30 54 1 24 51
M  V30 55 1 25 52
M  V30 56 1 25 53
M  V30 57 1 26 54
M  V30 58 1 26 55
M  V30 59 1 27 56 CFG=3
M  V30 60 1 28 57
M  V30 61 1 28 58
M  V30 62 1 29 59
M  V30 63 1 29 60
M  V30 END BOND
M  V30 END CTAB
M  END
>  <Dataset>  (378) 
ChEMBL_Kinases

>  <Ligand_Instance>  (378) 
nan

>  <PDB_ID>  (378) 
nan

>  <Standardized_SMILES>  (378) 
Nc1ccc(C2CCCCC2)nc1C(=O)Nc1cnccc1[C@@H]1CCC[C@H](N)C1

>  <Name>  (378) 
nan

>  <Pocket>  (378) 
nan

>  <ATP_Site>  (378) 
nan

>  <Peripheral>  (378) 
nan

>  <Num_H_Atoms_ProtBoundConf>  (378) 
nan

>  <Num_Resolved_Atoms>  (378) 
nan

>  <Num_Not_Resolved_Atoms>  (378) 
nan

$$$$
CHEMBL4872832
     RDKit          3D

  0  0  0  0  0  0  0  0  0  0999 V3000
M  V30 BEGIN CTAB
M  V30 COUNTS 45 49 0 0 0
M  V30 BEGIN ATOM
M  V30 1 O 5.664085 1.247140 -0.648282 0
M  V30 2 C 5.027833 0.227288 -0.953537 0
M  V30 3 N 5.652948 -0.477747 -2.009573 0
M  V30 4 C 6.874429 0.017138 -2.585187 0
M  V30 5 C 7.879438 -1.099688 -2.779955 0
M  V30 6 O 8.280105 -0.453682 -3.963410 0
M  V30 7 C 6.945964 -0.030874 -4.092685 0
M  V30 8 C 3.800249 -0.309822 -0.405707 0
M  V30 9 C 3.035142 0.168568 0.580340 0
M  V30 10 C 1.893789 -0.451399 0.993922 0
M  V30 11 N 0.989481 -0.064042 2.019825 0
M  V30 12 N 1.364315 0.317858 3.248916 0
M  V30 13 C 0.285513 0.624652 3.995545 0
M  V30 14 C -0.777129 0.403902 3.138299 0
M  V30 15 C -2.130006 0.554647 3.362066 0
M  V30 16 C -3.052065 0.282218 2.373165 0
M  V30 17 N -4.466682 0.372488 2.413996 0
M  V30 18 C -5.529948 -0.519686 2.694567 0
M  V30 19 C -6.437293 -0.699487 1.645352 0
M  V30 20 C -7.531236 -1.529824 1.731126 0
M  V30 21 C -7.760466 -2.227393 2.903301 0
M  V30 22 C -6.881753 -2.063891 3.943011 0
M  V30 23 C -5.812295 -1.241305 3.834750 0
M  V30 24 Cl -4.683248 -1.019518 5.144493 0
M  V30 25 N -2.609079 -0.143129 1.154332 0
M  V30 26 C -1.275104 -0.297994 0.914025 0
M  V30 27 C -0.345752 -0.030500 1.889927 0
M  V30 28 C 1.600996 -1.691195 0.242783 0
M  V30 29 S 2.990183 -1.800640 -0.946074 0
M  V30 30 H 5.310032 -1.369691 -2.446541 0
M  V30 31 H 7.298654 0.940704 -2.178452 0
M  V30 32 H 8.672912 -1.123009 -2.000340 0
M  V30 33 H 7.406920 -2.078188 -2.975819 0
M  V30 34 H 6.887973 1.019317 -4.483993 0
M  V30 35 H 6.303643 -0.774930 -4.572849 0
M  V30 36 H 3.318053 1.088150 1.086129 0
M  V30 37 H 0.257390 0.963350 5.020808 0
M  V30 38 H -2.564532 0.889232 4.293423 0
M  V30 39 H -4.656901 1.359657 2.164291 0
M  V30 40 H -6.366191 -0.210342 0.682201 0
M  V30 41 H -8.242675 -1.684516 0.937489 0
M  V30 42 H -8.584898 -2.899392 3.071041 0
M  V30 43 H -7.020227 -2.594373 4.892425 0
M  V30 44 H -0.905280 -0.632040 -0.041522 0
M  V30 45 H 0.721544 -2.331017 0.432522 0
M  V30 END ATOM
M  V30 BEGIN BOND
M  V30 1 2 1 2
M  V30 2 1 2 3
M  V30 3 1 3 4
M  V30 4 1 4 5
M  V30 5 1 5 6
M  V30 6 1 6 7
M  V30 7 1 2 8
M  V30 8 2 8 9
M  V30 9 1 9 10
M  V30 10 1 10 11
M  V30 11 1 11 12
M  V30 12 2 12 13
M  V30 13 1 13 14
M  V30 14 2 14 15
M  V30 15 1 15 16
M  V30 16 1 16 17
M  V30 17 1 17 18
M  V30 18 2 18 19
M  V30 19 1 19 20
M  V30 20 2 20 21
M  V30 21 1 21 22
M  V30 22 2 22 23
M  V30 23 1 23 24
M  V30 24 2 16 25
M  V30 25 1 25 26
M  V30 26 2 26 27
M  V30 27 2 10 28
M  V30 28 1 28 29
M  V30 29 1 7 4
M  V30 30 1 29 8
M  V30 31 1 27 11
M  V30 32 1 27 14
M  V30 33 1 23 18
M  V30 34 1 3 30
M  V30 35 1 4 31
M  V30 36 1 5 32
M  V30 37 1 5 33
M  V30 38 1 7 34
M  V30 39 1 7 35
M  V30 40 1 9 36
M  V30 41 1 13 37
M  V30 42 1 15 38
M  V30 43 1 17 39
M  V30 44 1 19 40
M  V30 45 1 20 41
M  V30 46 1 21 42
M  V30 47 1 22 43
M  V30 48 1 26 44
M  V30 49 1 28 45
M  V30 END BOND
M  V30 END CTAB
M  END
>  <Dataset>  (379) 
ChEMBL_Kinases

>  <Ligand_Instance>  (379) 
nan

>  <PDB_ID>  (379) 
nan

>  <Standardized_SMILES>  (379) 
O=C(NC1COC1)c1cc(-n2ncc3cc(Nc4ccccc4Cl)ncc32)cs1

>  <Name>  (379) 
nan

>  <Pocket>  (379) 
nan

>  <ATP_Site>  (379) 
nan

>  <Peripheral>  (379) 
nan

>  <Num_H_Atoms_ProtBoundConf>  (379) 
nan

>  <Num_Resolved_Atoms>  (379) 
nan

>  <Num_Not_Resolved_Atoms>  (379) 
nan

$$$$
CHEMBL4872654
     RDKit          3D

  0  0  0  0  0  0  0  0  0  0999 V3000
M  V30 BEGIN CTAB
M  V30 COUNTS 58 61 0 0 0
M  V30 BEGIN ATOM
M  V30 1 C -1.359501 -3.595926 5.034530 0
M  V30 2 C -0.804503 -3.340917 3.676197 0
M  V30 3 N 0.512116 -3.103967 3.485780 0
M  V30 4 C 0.960860 -2.873913 2.220547 0
M  V30 5 N 2.331877 -2.622108 1.965267 0
M  V30 6 C 3.010272 -1.395481 1.710803 0
M  V30 7 N 4.066752 -0.949257 1.523580 0
M  V30 8 C 4.423101 0.278970 1.282847 0
M  V30 9 C 3.366884 1.206167 1.244216 0
M  V30 10 C 3.601745 2.666612 0.963831 0
M  V30 11 O 4.741774 3.088313 0.777002 0
M  V30 12 N 2.508124 3.525035 0.919092 0
M  V30 13 C 2.472820 4.920949 0.675977 0
M  V30 14 C 3.571566 5.714950 0.457301 0
M  V30 15 C 3.484679 7.063413 0.222139 0
M  V30 16 C 2.242217 7.693960 0.195991 0
M  V30 17 N 1.175130 6.905639 0.411675 0
M  V30 18 C 1.285835 5.604929 0.636555 0
M  V30 19 C 0.009400 4.844319 0.858355 0
M  V30 20 S 1.951258 0.173659 1.567492 0
M  V30 21 C 0.040625 -2.893757 1.190260 0
M  V30 22 C -1.290831 -3.138055 1.424750 0
M  V30 23 N -2.231905 -3.142750 0.367753 0
M  V30 24 C -3.599431 -3.606601 0.501176 0
M  V30 25 C -3.968846 -4.636730 -0.521537 0
M  V30 26 N -3.430534 -4.321131 -1.864991 0
M  V30 27 C -2.404982 -5.245494 -2.213157 0
M  V30 28 C -1.908620 -5.067159 -3.596094 0
M  V30 29 O -1.331861 -3.847716 -3.886987 0
M  V30 30 C -3.064369 -2.927754 -1.880688 0
M  V30 31 C -1.884261 -2.658071 -0.960207 0
M  V30 32 N -1.692298 -3.358622 2.666937 0
M  V30 33 H -2.125005 -2.826967 5.306724 0
M  V30 34 H -0.566361 -3.531258 5.816964 0
M  V30 35 H -1.866419 -4.580448 5.042681 0
M  V30 36 H 2.995143 -3.417649 1.947441 0
M  V30 37 H 5.485509 0.495758 1.133300 0
M  V30 38 H 1.571936 3.069432 1.092551 0
M  V30 39 H 4.567261 5.314534 0.459609 0
M  V30 40 H 4.326093 7.710649 0.047044 0
M  V30 41 H 2.137573 8.758888 0.011752 0
M  V30 42 H -0.874091 5.464446 0.755354 0
M  V30 43 H 0.000756 4.360298 1.844623 0
M  V30 44 H -0.020145 4.070471 0.044579 0
M  V30 45 H 0.408274 -2.708377 0.189069 0
M  V30 46 H -4.251661 -2.729552 0.547445 0
M  V30 47 H -3.659661 -4.081749 1.509560 0
M  V30 48 H -5.071843 -4.661054 -0.617448 0
M  V30 49 H -3.572459 -5.634026 -0.246948 0
M  V30 50 H -1.511337 -5.162915 -1.531611 0
M  V30 51 H -2.808989 -6.292763 -2.084485 0
M  V30 52 H -1.140166 -5.862114 -3.835255 0
M  V30 53 H -2.733087 -5.212447 -4.366962 0
M  V30 54 H -0.843526 -3.907934 -4.736702 0
M  V30 55 H -2.830493 -2.590787 -2.874125 0
M  V30 56 H -3.953709 -2.390109 -1.437565 0
M  V30 57 H -0.950111 -3.099218 -1.310796 0
M  V30 58 H -1.753967 -1.554468 -0.875931 0
M  V30 END ATOM
M  V30 BEGIN BOND
M  V30 1 1 1 2
M  V30 2 2 2 3
M  V30 3 1 3 4
M  V30 4 1 4 5
M  V30 5 1 5 6
M  V30 6 2 6 7
M  V30 7 1 7 8
M  V30 8 2 8 9
M  V30 9 1 9 10
M  V30 10 2 10 11
M  V30 11 1 10 12
M  V30 12 1 12 13
M  V30 13 2 13 14
M  V30 14 1 14 15
M  V30 15 2 15 16
M  V30 16 1 16 17
M  V30 17 2 17 18
M  V30 18 1 18 19
M  V30 19 1 9 20
M  V30 20 2 4 21
M  V30 21 1 21 22
M  V30 22 1 22 23
M  V30 23 1 23 24
M  V30 24 1 24 25
M  V30 25 1 25 26
M  V30 26 1 26 27
M  V30 27 1 27 28
M  V30 28 1 28 29
M  V30 29 1 26 30
M  V30 30 1 30 31
M  V30 31 2 22 32
M  V30 32 1 32 2
M  V30 33 1 20 6
M  V30 34 1 31 23
M  V30 35 1 18 13
M  V30 36 1 1 33
M  V30 37 1 1 34
M  V30 38 1 1 35
M  V30 39 1 5 36
M  V30 40 1 8 37
M  V30 41 1 12 38
M  V30 42 1 14 39
M  V30 43 1 15 40
M  V30 44 1 16 41
M  V30 45 1 19 42
M  V30 46 1 19 43
M  V30 47 1 19 44
M  V30 48 1 21 45
M  V30 49 1 24 46
M  V30 50 1 24 47
M  V30 51 1 25 48
M  V30 52 1 25 49
M  V30 53 1 27 50
M  V30 54 1 27 51
M  V30 55 1 28 52
M  V30 56 1 28 53
M  V30 57 1 29 54
M  V30 58 1 30 55
M  V30 59 1 30 56
M  V30 60 1 31 57
M  V30 61 1 31 58
M  V30 END BOND
M  V30 END CTAB
M  END
>  <Dataset>  (380) 
ChEMBL_Kinases

>  <Ligand_Instance>  (380) 
nan

>  <PDB_ID>  (380) 
nan

>  <Standardized_SMILES>  (380) 
Cc1nc(Nc2ncc(C(=O)Nc3cccnc3C)s2)cc(N2CCN(CCO)CC2)n1

>  <Name>  (380) 
nan

>  <Pocket>  (380) 
nan

>  <ATP_Site>  (380) 
nan

>  <Peripheral>  (380) 
nan

>  <Num_H_Atoms_ProtBoundConf>  (380) 
nan

>  <Num_Resolved_Atoms>  (380) 
nan

>  <Num_Not_Resolved_Atoms>  (380) 
nan

$$$$
CHEMBL4872066
     RDKit          3D

  0  0  0  0  0  0  0  0  0  0999 V3000
M  V30 BEGIN CTAB
M  V30 COUNTS 48 50 0 0 0
M  V30 BEGIN ATOM
M  V30 1 C -1.956880 -2.456034 4.744937 0
M  V30 2 C -1.755127 -2.423250 3.263784 0 CFG=2
M  V30 3 C -0.421645 -1.813087 2.884418 0
M  V30 4 C -0.225667 -1.939103 1.390402 0
M  V30 5 C -1.359248 -1.171989 0.719910 0 CFG=1
M  V30 6 N -1.206581 -1.034081 -0.689172 0
M  V30 7 C -0.113613 -0.381299 -1.285848 0
M  V30 8 N 0.892143 0.175230 -0.552990 0
M  V30 9 C 1.929440 0.794991 -1.116022 0
M  V30 10 N 2.971690 1.371894 -0.340037 0
M  V30 11 C 3.066927 1.377236 1.106648 0
M  V30 12 C 3.117164 0.027931 1.741127 0
M  V30 13 C 2.024668 2.307468 1.748383 0
M  V30 14 C 3.465979 2.601984 1.833549 0
M  V30 15 N 2.041936 0.906362 -2.449088 0
M  V30 16 C 1.094241 0.386448 -3.270816 0
M  V30 17 C 0.053017 -0.238279 -2.629448 0
M  V30 18 C -0.950687 -0.787611 -3.530721 0
M  V30 19 N -0.929620 -0.725574 -4.949804 0
M  V30 20 O -2.017386 -1.401161 -3.640947 0
M  V30 21 C -2.617968 -1.943238 1.057458 0
M  V30 22 C -2.850489 -1.686753 2.547045 0 CFG=1
M  V30 23 O -4.113242 -2.061748 2.939556 0
M  V30 24 H -1.132855 -1.954911 5.265739 0
M  V30 25 H -2.874448 -1.896300 4.992977 0
M  V30 26 H -2.068022 -3.494052 5.137917 0
M  V30 27 H -1.729372 -3.466528 2.885842 0
M  V30 28 H -0.452034 -0.747640 3.160224 0
M  V30 29 H 0.402815 -2.353658 3.394446 0
M  V30 30 H 0.750931 -1.525784 1.122811 0
M  V30 31 H -0.311910 -3.016137 1.092563 0
M  V30 32 H -1.366623 -0.178977 1.254384 0
M  V30 33 H -1.925429 -1.427536 -1.314613 0
M  V30 34 H 3.788626 1.858887 -0.741792 0
M  V30 35 H 4.084439 -0.123540 2.261856 0
M  V30 36 H 3.021119 -0.764048 0.973249 0
M  V30 37 H 2.259209 -0.152874 2.442933 0
M  V30 38 H 1.375091 2.918451 1.102363 0
M  V30 39 H 1.479803 1.951159 2.651782 0
M  V30 40 H 3.866964 3.423710 1.208936 0
M  V30 41 H 3.956307 2.436530 2.804430 0
M  V30 42 H 1.220547 0.496212 -4.326422 0
M  V30 43 H -0.252204 -0.184895 -5.559749 0
M  V30 44 H -0.319440 -0.234930 -5.614092 0
M  V30 45 H -2.475698 -3.022588 0.907214 0
M  V30 46 H -3.490702 -1.515553 0.523861 0
M  V30 47 H -2.724512 -0.595270 2.703542 0
M  V30 48 H -4.477630 -1.483280 3.642000 0
M  V30 END ATOM
M  V30 BEGIN BOND
M  V30 1 1 1 2
M  V30 2 1 2 3
M  V30 3 1 3 4
M  V30 4 1 4 5
M  V30 5 1 5 6
M  V30 6 1 6 7
M  V30 7 2 7 8
M  V30 8 1 8 9
M  V30 9 1 9 10
M  V30 10 1 10 11
M  V30 11 1 11 12
M  V30 12 1 11 13
M  V30 13 1 13 14
M  V30 14 2 9 15
M  V30 15 1 15 16
M  V30 16 2 16 17
M  V30 17 1 17 18
M  V30 18 1 18 19
M  V30 19 2 18 20
M  V30 20 1 5 21
M  V30 21 1 21 22
M  V30 22 1 22 23
M  V30 23 1 22 2
M  V30 24 1 17 7
M  V30 25 1 14 11
M  V30 26 1 1 24
M  V30 27 1 1 25
M  V30 28 1 1 26
M  V30 29 1 2 27 CFG=3
M  V30 30 1 3 28
M  V30 31 1 3 29
M  V30 32 1 4 30
M  V30 33 1 4 31
M  V30 34 1 5 32 CFG=1
M  V30 35 1 6 33
M  V30 36 1 10 34
M  V30 37 1 12 35
M  V30 38 1 12 36
M  V30 39 1 12 37
M  V30 40 1 13 38
M  V30 41 1 13 39
M  V30 42 1 14 40
M  V30 43 1 14 41
M  V30 44 1 16 42
M  V30 45 1 19 43
M  V30 46 1 19 44
M  V30 47 1 21 45
M  V30 48 1 21 46
M  V30 49 1 22 47 CFG=3
M  V30 50 1 23 48
M  V30 END BOND
M  V30 END CTAB
M  END
>  <Dataset>  (381) 
ChEMBL_Kinases

>  <Ligand_Instance>  (381) 
nan

>  <PDB_ID>  (381) 
nan

>  <Standardized_SMILES>  (381) 
C[C@@H]1CC[C@@H](Nc2nc(NC3(C)CC3)ncc2C(N)=O)C[C@H]1O

>  <Name>  (381) 
nan

>  <Pocket>  (381) 
nan

>  <ATP_Site>  (381) 
nan

>  <Peripheral>  (381) 
nan

>  <Num_H_Atoms_ProtBoundConf>  (381) 
nan

>  <Num_Resolved_Atoms>  (381) 
nan

>  <Num_Not_Resolved_Atoms>  (381) 
nan

$$$$
CHEMBL3960554
     RDKit          3D

  0  0  0  0  0  0  0  0  0  0999 V3000
M  V30 BEGIN CTAB
M  V30 COUNTS 51 55 0 0 0
M  V30 BEGIN ATOM
M  V30 1 C 2.554982 -1.565736 5.101572 0
M  V30 2 C 3.568025 -1.157728 4.092735 0
M  V30 3 C 4.922640 -1.398994 4.252682 0
M  V30 4 N 5.869161 -1.051032 3.373937 0
M  V30 5 C 5.488005 -0.410570 2.230981 0
M  V30 6 C 4.148175 -0.148920 2.028647 0
M  V30 7 C 3.709297 0.534759 0.815986 0
M  V30 8 C 2.368244 0.791188 0.623785 0
M  V30 9 C 1.888271 1.439185 -0.511410 0
M  V30 10 C 2.842147 1.816801 -1.448387 0
M  V30 11 C 4.187655 1.559517 -1.255583 0
M  V30 12 N 4.592776 0.919717 -0.119363 0
M  V30 13 C 2.099272 2.423513 -2.445811 0
M  V30 14 N 0.789604 2.403950 -2.115905 0
M  V30 15 N 0.644420 1.803022 -0.931339 0
M  V30 16 C -0.495296 1.514113 -0.123111 0
M  V30 17 C -1.055954 2.344660 0.822182 0
M  V30 18 C -2.160644 1.864522 1.492912 0
M  V30 19 C -2.635164 0.605576 1.188284 0
M  V30 20 C -2.074240 -0.226593 0.241886 0
M  V30 21 N -2.602305 -1.519217 -0.035682 0
M  V30 22 C -3.760259 -1.844828 0.774763 0
M  V30 23 C -4.092474 -3.307944 0.468006 0
M  V30 24 C -4.846213 -3.287446 -0.831718 0
M  V30 25 N -4.028604 -2.934379 -1.961019 0
M  V30 26 C -2.634632 -3.268445 -1.781460 0
M  V30 27 C -1.835263 -2.200036 -1.080077 0
M  V30 28 N -1.009277 0.298541 -0.369689 0
M  V30 29 N 3.263966 -0.527112 2.951422 0
M  V30 30 H 2.631650 -0.965952 6.033692 0
M  V30 31 H 1.558385 -1.278686 4.667721 0
M  V30 32 H 2.610678 -2.660108 5.289277 0
M  V30 33 H 5.265444 -1.906598 5.149479 0
M  V30 34 H 6.224580 -0.113207 1.496126 0
M  V30 35 H 1.664427 0.472082 1.392732 0
M  V30 36 H 4.916908 1.872498 -2.018462 0
M  V30 37 H 2.529786 2.842833 -3.345805 0
M  V30 38 H -0.579085 3.301201 0.954468 0
M  V30 39 H -2.602076 2.514778 2.235196 0
M  V30 40 H -3.502607 0.302217 1.756231 0
M  V30 41 H -3.435573 -1.733657 1.833642 0
M  V30 42 H -4.605356 -1.189616 0.522457 0
M  V30 43 H -3.209339 -3.938727 0.472647 0
M  V30 44 H -4.789923 -3.643562 1.257811 0
M  V30 45 H -5.679851 -2.561881 -0.734681 0
M  V30 46 H -5.311498 -4.288829 -0.977224 0
M  V30 47 H -4.083707 -1.908106 -2.135623 0
M  V30 48 H -2.454679 -4.280535 -1.396038 0
M  V30 49 H -2.216451 -3.291129 -2.831552 0
M  V30 50 H -0.981839 -2.681049 -0.558150 0
M  V30 51 H -1.408488 -1.460759 -1.788511 0
M  V30 END ATOM
M  V30 BEGIN BOND
M  V30 1 1 1 2
M  V30 2 2 2 3
M  V30 3 1 3 4
M  V30 4 2 4 5
M  V30 5 1 5 6
M  V30 6 1 6 7
M  V30 7 2 7 8
M  V30 8 1 8 9
M  V30 9 2 9 10
M  V30 10 1 10 11
M  V30 11 2 11 12
M  V30 12 1 10 13
M  V30 13 2 13 14
M  V30 14 1 14 15
M  V30 15 1 15 16
M  V30 16 2 16 17
M  V30 17 1 17 18
M  V30 18 2 18 19
M  V30 19 1 19 20
M  V30 20 1 20 21
M  V30 21 1 21 22
M  V30 22 1 22 23
M  V30 23 1 23 24
M  V30 24 1 24 25
M  V30 25 1 25 26
M  V30 26 1 26 27
M  V30 27 2 20 28
M  V30 28 2 6 29
M  V30 29 1 29 2
M  V30 30 1 12 7
M  V30 31 1 28 16
M  V30 32 1 15 9
M  V30 33 1 27 21
M  V30 34 1 1 30
M  V30 35 1 1 31
M  V30 36 1 1 32
M  V30 37 1 3 33
M  V30 38 1 5 34
M  V30 39 1 8 35
M  V30 40 1 11 36
M  V30 41 1 13 37
M  V30 42 1 17 38
M  V30 43 1 18 39
M  V30 44 1 19 40
M  V30 45 1 22 41
M  V30 46 1 22 42
M  V30 47 1 23 43
M  V30 48 1 23 44
M  V30 49 1 24 45
M  V30 50 1 24 46
M  V30 51 1 25 47
M  V30 52 1 26 48
M  V30 53 1 26 49
M  V30 54 1 27 50
M  V30 55 1 27 51
M  V30 END BOND
M  V30 END CTAB
M  END
>  <Dataset>  (382) 
ChEMBL_Kinases

>  <Ligand_Instance>  (382) 
nan

>  <PDB_ID>  (382) 
nan

>  <Standardized_SMILES>  (382) 
Cc1cncc(-c2cc3c(cn2)cnn3-c2cccc(N3CCCNCC3)n2)n1

>  <Name>  (382) 
nan

>  <Pocket>  (382) 
nan

>  <ATP_Site>  (382) 
nan

>  <Peripheral>  (382) 
nan

>  <Num_H_Atoms_ProtBoundConf>  (382) 
nan

>  <Num_Resolved_Atoms>  (382) 
nan

>  <Num_Not_Resolved_Atoms>  (382) 
nan

$$$$
CHEMBL3962025
     RDKit          3D

  0  0  0  0  0  0  0  0  0  0999 V3000
M  V30 BEGIN CTAB
M  V30 COUNTS 61 64 0 0 0
M  V30 BEGIN ATOM
M  V30 1 C 5.991150 -3.657315 6.352415 0
M  V30 2 O 6.487743 -2.420009 5.894827 0
M  V30 3 C 6.003981 -1.794228 4.753715 0
M  V30 4 C 4.994585 -2.373767 4.008882 0
M  V30 5 C 4.568575 -1.690719 2.890829 0
M  V30 6 C 5.049279 -0.480464 2.435839 0
M  V30 7 C 4.590178 0.239697 1.252652 0
M  V30 8 O 5.113314 1.334495 0.932466 0
M  V30 9 N 3.553152 -0.364600 0.525764 0
M  V30 10 C 2.838892 0.000236 -0.651277 0
M  V30 11 C 3.237704 -0.365838 -1.918803 0
M  V30 12 C 2.461461 0.044005 -3.003212 0
M  V30 13 C 1.298478 0.809534 -2.848415 0
M  V30 14 C 0.902249 1.176464 -1.555945 0
M  V30 15 C -0.329206 1.996725 -1.448546 0
M  V30 16 N -1.531190 1.179598 -1.417539 0
M  V30 17 C -1.944379 0.193599 -0.487030 0
M  V30 18 N -1.110019 -0.044734 0.532779 0
M  V30 19 C -1.324093 -0.933672 1.505467 0
M  V30 20 N -2.483002 -1.643589 1.441518 0
M  V30 21 C -3.350305 -1.437248 0.434782 0
M  V30 22 C -4.535703 -2.142451 0.348694 0
M  V30 23 C -4.855220 -3.142053 1.384977 0
M  V30 24 N -3.998951 -3.428383 2.478523 0
M  V30 25 O -5.929740 -3.825552 1.375039 0
M  V30 26 C -5.468253 -1.980322 -0.649723 0
M  V30 27 C -5.141446 -1.028229 -1.610088 0
M  V30 28 C -6.180830 -0.859372 -2.686908 0
M  V30 29 O -7.423868 -0.736189 -2.103163 0
M  V30 30 C -5.837133 0.266675 -3.610477 0
M  V30 31 O -5.821040 1.496034 -2.986170 0
M  V30 32 C -3.986267 -0.275587 -1.611129 0
M  V30 33 C -3.123772 -0.518848 -0.565291 0
M  V30 34 C 1.687740 0.755763 -0.530894 0
M  V30 35 C 6.063071 0.081175 3.201481 0
M  V30 36 C 6.514850 -0.584116 4.335759 0
M  V30 37 H 5.932885 -4.419484 5.567101 0
M  V30 38 H 6.574483 -4.058843 7.201584 0
M  V30 39 H 4.941396 -3.559242 6.766171 0
M  V30 40 H 4.538327 -3.330183 4.273791 0
M  V30 41 H 3.782676 -2.160469 2.323580 0
M  V30 42 H 3.043153 -1.257517 0.684262 0
M  V30 43 H 4.132089 -0.957750 -2.058011 0
M  V30 44 H 2.783730 -0.247970 -3.981558 0
M  V30 45 H 0.786397 1.061721 -3.760814 0
M  V30 46 H -0.296069 2.454110 -0.404109 0
M  V30 47 H -0.357288 2.831791 -2.139555 0
M  V30 48 H -2.124755 1.419642 -2.239378 0
M  V30 49 H -0.632173 -1.113039 2.324548 0
M  V30 50 H -3.109099 -3.844172 2.111399 0
M  V30 51 H -4.459062 -3.155254 3.395670 0
M  V30 52 H -6.382358 -2.556054 -0.676243 0
M  V30 53 H -6.184358 -1.809237 -3.252965 0
M  V30 54 H -8.068439 -1.384222 -2.460309 0
M  V30 55 H -4.929299 0.038829 -4.207447 0
M  V30 56 H -6.665583 0.291952 -4.379872 0
M  V30 57 H -6.711258 1.902023 -2.990500 0
M  V30 58 H -3.801102 0.430279 -2.375480 0
M  V30 59 H 1.406305 1.038448 0.473843 0
M  V30 60 H 6.476245 1.027923 2.889962 0
M  V30 61 H 7.313354 -0.150614 4.947962 0
M  V30 END ATOM
M  V30 BEGIN BOND
M  V30 1 1 1 2
M  V30 2 1 2 3
M  V30 3 2 3 4
M  V30 4 1 4 5
M  V30 5 2 5 6
M  V30 6 1 6 7
M  V30 7 2 7 8
M  V30 8 1 7 9
M  V30 9 1 9 10
M  V30 10 2 10 11
M  V30 11 1 11 12
M  V30 12 2 12 13
M  V30 13 1 13 14
M  V30 14 1 14 15
M  V30 15 1 15 16
M  V30 16 1 16 17
M  V30 17 2 17 18
M  V30 18 1 18 19
M  V30 19 2 19 20
M  V30 20 1 20 21
M  V30 21 2 21 22
M  V30 22 1 22 23
M  V30 23 1 23 24
M  V30 24 2 23 25
M  V30 25 1 22 26
M  V30 26 2 26 27
M  V30 27 1 27 28
M  V30 28 1 28 29
M  V30 29 1 28 30
M  V30 30 1 30 31
M  V30 31 1 27 32
M  V30 32 2 32 33
M  V30 33 2 14 34
M  V30 34 1 6 35
M  V30 35 2 35 36
M  V30 36 1 36 3
M  V30 37 1 34 10
M  V30 38 1 33 17
M  V30 39 1 33 21
M  V30 40 1 1 37
M  V30 41 1 1 38
M  V30 42 1 1 39
M  V30 43 1 4 40
M  V30 44 1 5 41
M  V30 45 1 9 42
M  V30 46 1 11 43
M  V30 47 1 12 44
M  V30 48 1 13 45
M  V30 49 1 15 46
M  V30 50 1 15 47
M  V30 51 1 16 48
M  V30 52 1 19 49
M  V30 53 1 24 50
M  V30 54 1 24 51
M  V30 55 1 26 52
M  V30 56 1 28 53
M  V30 57 1 29 54
M  V30 58 1 30 55
M  V30 59 1 30 56
M  V30 60 1 31 57
M  V30 61 1 32 58
M  V30 62 1 34 59
M  V30 63 1 35 60
M  V30 64 1 36 61
M  V30 END BOND
M  V30 END CTAB
M  END
>  <Dataset>  (383) 
ChEMBL_Kinases

>  <Ligand_Instance>  (383) 
nan

>  <PDB_ID>  (383) 
nan

>  <Standardized_SMILES>  (383) 
COc1ccc(C(=O)Nc2cccc(CNc3ncnc4c(C(N)=O)cc(C(O)CO)cc34)c2)cc1

>  <Name>  (383) 
nan

>  <Pocket>  (383) 
nan

>  <ATP_Site>  (383) 
nan

>  <Peripheral>  (383) 
nan

>  <Num_H_Atoms_ProtBoundConf>  (383) 
nan

>  <Num_Resolved_Atoms>  (383) 
nan

>  <Num_Not_Resolved_Atoms>  (383) 
nan

$$$$
CHEMBL3645235
     RDKit          3D

  0  0  0  0  0  0  0  0  0  0999 V3000
M  V30 BEGIN CTAB
M  V30 COUNTS 81 87 0 0 0
M  V30 BEGIN ATOM
M  V30 1 C -1.721598 -4.462313 5.375076 0
M  V30 2 S -3.020577 -3.602849 4.443081 0
M  V30 3 C -2.474030 -3.522978 2.716162 0 CFG=1
M  V30 4 C -1.269207 -2.643502 2.650286 0
M  V30 5 O -0.067039 -2.712135 2.274757 0
M  V30 6 N -1.656184 -1.386173 3.174716 0
M  V30 7 C -0.972200 -0.155469 3.373867 0
M  V30 8 C -0.294126 0.099808 4.563915 0
M  V30 9 C 0.387174 1.271729 4.830035 0
M  V30 10 C 0.399534 2.254321 3.859032 0
M  V30 11 N 0.947223 3.480627 3.787569 0
M  V30 12 N 0.662715 4.032676 2.621134 0
M  V30 13 C -0.085277 3.183450 1.882985 0
M  V30 14 C -0.593803 3.442121 0.538791 0
M  V30 15 C -1.143132 4.725082 0.429420 0
M  V30 16 C -1.683135 5.168248 -0.770146 0
M  V30 17 C -1.661396 4.305558 -1.849528 0
M  V30 18 F -2.177327 4.714490 -3.013580 0
M  V30 19 C -1.115827 3.033739 -1.737791 0
M  V30 20 C -0.575424 2.586284 -0.542652 0
M  V30 21 C -0.254980 2.054084 2.663512 0
M  V30 22 C -0.920967 0.864517 2.447628 0
M  V30 23 C -2.198047 -4.893936 2.178668 0
M  V30 24 C -3.514154 -5.184513 1.464619 0
M  V30 25 N -3.782719 -3.921524 0.755475 0
M  V30 26 C -2.922856 -3.762541 -0.374061 0
M  V30 27 C -3.101685 -2.515993 -1.135741 0
M  V30 28 O -3.912317 -1.594991 -0.893898 0
M  V30 29 N -2.183213 -2.485406 -2.248938 0
M  V30 30 C -1.198524 -3.465351 -2.663289 0
M  V30 31 C 0.151721 -2.896385 -2.422812 0
M  V30 32 C 0.288060 -1.673245 -2.909775 0
M  V30 33 C 1.577143 -1.015440 -2.730875 0
M  V30 34 C 1.845618 0.249549 -3.209386 0
M  V30 35 C 3.044899 0.913823 -3.065455 0
M  V30 36 C 4.078787 0.295245 -2.396597 0
M  V30 37 C 5.368489 0.950333 -2.217253 0
M  V30 38 N 6.354498 0.314724 -1.561312 0
M  V30 39 C 7.579123 0.824519 -1.340299 0
M  V30 40 C 7.794819 2.105715 -1.845613 0
M  V30 41 C 6.817669 2.786328 -2.518878 0
M  V30 42 N 5.607755 2.186152 -2.693167 0
M  V30 43 C 3.878565 -0.971292 -1.891981 0
M  V30 44 C 2.652016 -1.573920 -2.074099 0
M  V30 45 C -0.796271 -0.958053 -3.617896 0
M  V30 46 C -2.161773 -1.351505 -3.147477 0
M  V30 47 C -3.521225 -2.950752 1.792821 0
M  V30 48 H -1.642142 -5.506101 4.999333 0
M  V30 49 H -1.912045 -4.438940 6.467639 0
M  V30 50 H -0.745360 -3.965494 5.121547 0
M  V30 51 H -2.569589 -1.011100 3.566961 0
M  V30 52 H -0.281562 -0.649571 5.352779 0
M  V30 53 H 0.900194 1.423972 5.771125 0
M  V30 54 H 1.518718 3.963964 4.519412 0
M  V30 55 H -1.195625 5.455937 1.232251 0
M  V30 56 H -2.117991 6.151773 -0.900354 0
M  V30 57 H -1.089220 2.340641 -2.575657 0
M  V30 58 H -0.131205 1.621835 -0.356539 0
M  V30 59 H -1.425352 0.731665 1.503996 0
M  V30 60 H -2.083994 -5.656880 2.994072 0
M  V30 61 H -1.320214 -4.982923 1.541890 0
M  V30 62 H -4.287553 -5.260449 2.256662 0
M  V30 63 H -3.442454 -6.041591 0.793174 0
M  V30 64 H -1.833665 -3.860029 -0.102802 0
M  V30 65 H -3.141541 -4.601216 -1.084657 0
M  V30 66 H -1.341995 -3.685406 -3.762511 0
M  V30 67 H -1.283616 -4.408633 -2.100555 0
M  V30 68 H 0.884121 -3.487754 -1.897987 0
M  V30 69 H 1.124658 0.827570 -3.746991 0
M  V30 70 H 3.244282 1.905190 -3.444463 0
M  V30 71 H 8.284526 0.210542 -0.798086 0
M  V30 72 H 8.796985 2.496465 -1.652657 0
M  V30 73 H 7.016845 3.775576 -2.897532 0
M  V30 74 H 4.697105 -1.426977 -1.377885 0
M  V30 75 H 2.598362 -2.555507 -1.645195 0
M  V30 76 H -0.689661 -1.212428 -4.707848 0
M  V30 77 H -0.721936 0.150320 -3.478535 0
M  V30 78 H -2.721310 -0.485632 -2.722661 0
M  V30 79 H -2.753635 -1.699999 -4.048579 0
M  V30 80 H -3.175017 -2.012717 1.320685 0
M  V30 81 H -4.455429 -2.675898 2.340094 0
M  V30 END ATOM
M  V30 BEGIN BOND
M  V30 1 1 1 2
M  V30 2 1 3 2 CFG=1
M  V30 3 1 3 4
M  V30 4 2 4 5
M  V30 5 1 4 6
M  V30 6 1 6 7
M  V30 7 2 7 8
M  V30 8 1 8 9
M  V30 9 2 9 10
M  V30 10 1 10 11
M  V30 11 1 11 12
M  V30 12 2 12 13
M  V30 13 1 13 14
M  V30 14 2 14 15
M  V30 15 1 15 16
M  V30 16 2 16 17
M  V30 17 1 17 18
M  V30 18 1 17 19
M  V30 19 2 19 20
M  V30 20 1 13 21
M  V30 21 2 21 22
M  V30 22 1 3 23
M  V30 23 1 23 24
M  V30 24 1 24 25
M  V30 25 1 25 26
M  V30 26 1 26 27
M  V30 27 2 27 28
M  V30 28 1 27 29
M  V30 29 1 29 30
M  V30 30 1 30 31
M  V30 31 2 31 32
M  V30 32 1 32 33
M  V30 33 2 33 34
M  V30 34 1 34 35
M  V30 35 2 35 36
M  V30 36 1 36 37
M  V30 37 2 37 38
M  V30 38 1 38 39
M  V30 39 2 39 40
M  V30 40 1 40 41
M  V30 41 2 41 42
M  V30 42 1 36 43
M  V30 43 2 43 44
M  V30 44 1 32 45
M  V30 45 1 45 46
M  V30 46 1 25 47
M  V30 47 1 47 3
M  V30 48 1 22 7
M  V30 49 1 46 29
M  V30 50 1 21 10
M  V30 51 1 44 33
M  V30 52 1 20 14
M  V30 53 1 42 37
M  V30 54 1 1 48
M  V30 55 1 1 49
M  V30 56 1 1 50
M  V30 57 1 6 51
M  V30 58 1 8 52
M  V30 59 1 9 53
M  V30 60 1 11 54
M  V30 61 1 15 55
M  V30 62 1 16 56
M  V30 63 1 19 57
M  V30 64 1 20 58
M  V30 65 1 22 59
M  V30 66 1 23 60
M  V30 67 1 23 61
M  V30 68 1 24 62
M  V30 69 1 24 63
M  V30 70 1 26 64
M  V30 71 1 26 65
M  V30 72 1 30 66
M  V30 73 1 30 67
M  V30 74 1 31 68
M  V30 75 1 34 69
M  V30 76 1 35 70
M  V30 77 1 39 71
M  V30 78 1 40 72
M  V30 79 1 41 73
M  V30 80 1 43 74
M  V30 81 1 44 75
M  V30 82 1 45 76
M  V30 83 1 45 77
M  V30 84 1 46 78
M  V30 85 1 46 79
M  V30 86 1 47 80
M  V30 87 1 47 81
M  V30 END BOND
M  V30 END CTAB
M  END
>  <Dataset>  (384) 
ChEMBL_Kinases

>  <Ligand_Instance>  (384) 
nan

>  <PDB_ID>  (384) 
nan

>  <Standardized_SMILES>  (384) 
CS[C@@]1(C(=O)Nc2ccc3[nH]nc(-c4ccc(F)cc4)c3c2)CCN(CC(=O)N2CC=C(c3ccc(-c4ncccn4)cc3)CC2)C1

>  <Name>  (384) 
nan

>  <Pocket>  (384) 
nan

>  <ATP_Site>  (384) 
nan

>  <Peripheral>  (384) 
nan

>  <Num_H_Atoms_ProtBoundConf>  (384) 
nan

>  <Num_Resolved_Atoms>  (384) 
nan

>  <Num_Not_Resolved_Atoms>  (384) 
nan

$$$$
CHEMBL397009
     RDKit          3D

  0  0  0  0  0  0  0  0  0  0999 V3000
M  V30 BEGIN CTAB
M  V30 COUNTS 42 44 0 0 0
M  V30 BEGIN ATOM
M  V30 1 N 3.879811 0.938577 4.138312 0
M  V30 2 C 3.230567 -0.093975 3.429618 0
M  V30 3 O 3.689311 -1.226303 3.710405 0
M  V30 4 C 2.152451 0.173038 2.486860 0
M  V30 5 C 1.765203 1.477459 2.293735 0
M  V30 6 C 0.727799 1.642344 1.376149 0
M  V30 7 C 0.256471 3.002157 1.113582 0
M  V30 8 C -1.064762 3.197657 0.784654 0
M  V30 9 C -1.505973 4.485627 0.537090 0
M  V30 10 N -0.636521 5.502574 0.624496 0
M  V30 11 C 0.638067 5.283973 0.945188 0
M  V30 12 C 1.190103 4.037044 1.213876 0
M  V30 13 C 0.153537 0.547252 0.725604 0
M  V30 14 C 0.602324 -0.754641 0.974624 0
M  V30 15 C 0.016719 -1.899521 0.307740 0
M  V30 16 C -0.210283 -1.809353 -1.067420 0
M  V30 17 C -0.774376 -2.920650 -1.692192 0
M  V30 18 C -1.117981 -4.087694 -1.047785 0
M  V30 19 S -1.816206 -5.373372 -2.009857 0
M  V30 20 N -0.624235 -6.431838 -2.644849 0
M  V30 21 O -2.570609 -4.780844 -3.160831 0
M  V30 22 O -2.769497 -6.138807 -1.174862 0
M  V30 23 C -0.882186 -4.147352 0.309605 0
M  V30 24 C -0.323933 -3.067996 0.970620 0
M  V30 25 C 1.635705 -0.954130 1.884428 0
M  V30 26 N 2.160224 -2.245342 2.202810 0
M  V30 27 H 3.413503 1.385859 4.959469 0
M  V30 28 H 4.373654 1.688472 4.637647 0
M  V30 29 H 2.246795 2.271700 2.824399 0
M  V30 30 H -1.723364 2.335287 0.728849 0
M  V30 31 H -2.544477 4.642166 0.278233 0
M  V30 32 H 1.300450 6.140391 1.002562 0
M  V30 33 H 2.207575 3.849132 1.471388 0
M  V30 34 H -0.660680 0.701187 0.008401 0
M  V30 35 H 0.050279 -0.909693 -1.586724 0
M  V30 36 H -0.917518 -2.763794 -2.768462 0
M  V30 37 H -0.278031 -6.164756 -3.581824 0
M  V30 38 H -0.926498 -7.416203 -2.701131 0
M  V30 39 H -1.155323 -5.067924 0.806978 0
M  V30 40 H -0.146099 -3.131746 2.033315 0
M  V30 41 H 2.091061 -2.817119 3.087588 0
M  V30 42 H 2.731836 -2.891386 1.599427 0
M  V30 END ATOM
M  V30 BEGIN BOND
M  V30 1 1 1 2
M  V30 2 2 2 3
M  V30 3 1 2 4
M  V30 4 2 4 5
M  V30 5 1 5 6
M  V30 6 1 6 7
M  V30 7 2 7 8
M  V30 8 1 8 9
M  V30 9 2 9 10
M  V30 10 1 10 11
M  V30 11 2 11 12
M  V30 12 2 6 13
M  V30 13 1 13 14
M  V30 14 1 14 15
M  V30 15 2 15 16
M  V30 16 1 16 17
M  V30 17 2 17 18
M  V30 18 1 18 19
M  V30 19 1 19 20
M  V30 20 2 19 21
M  V30 21 2 19 22
M  V30 22 1 18 23
M  V30 23 2 23 24
M  V30 24 2 14 25
M  V30 25 1 25 26
M  V30 26 1 25 4
M  V30 27 1 12 7
M  V30 28 1 24 15
M  V30 29 1 1 27
M  V30 30 1 1 28
M  V30 31 1 5 29
M  V30 32 1 8 30
M  V30 33 1 9 31
M  V30 34 1 11 32
M  V30 35 1 12 33
M  V30 36 1 13 34
M  V30 37 1 16 35
M  V30 38 1 17 36
M  V30 39 1 20 37
M  V30 40 1 20 38
M  V30 41 1 23 39
M  V30 42 1 24 40
M  V30 43 1 26 41
M  V30 44 1 26 42
M  V30 END BOND
M  V30 END CTAB
M  END
>  <Dataset>  (385) 
ChEMBL_Kinases

>  <Ligand_Instance>  (385) 
nan

>  <PDB_ID>  (385) 
nan

>  <Standardized_SMILES>  (385) 
NC(=O)c1cc(-c2ccncc2)cc(-c2ccc(S(N)(=O)=O)cc2)c1N

>  <Name>  (385) 
nan

>  <Pocket>  (385) 
nan

>  <ATP_Site>  (385) 
nan

>  <Peripheral>  (385) 
nan

>  <Num_H_Atoms_ProtBoundConf>  (385) 
nan

>  <Num_Resolved_Atoms>  (385) 
nan

>  <Num_Not_Resolved_Atoms>  (385) 
nan

$$$$
CHEMBL4869300
     RDKit          3D

  0  0  0  0  0  0  0  0  0  0999 V3000
M  V30 BEGIN CTAB
M  V30 COUNTS 59 63 0 0 0
M  V30 BEGIN ATOM
M  V30 1 C 4.012826 1.355809 5.721949 0
M  V30 2 C 3.497601 1.839009 4.390261 0
M  V30 3 C 2.790862 3.152442 4.649086 0
M  V30 4 N 4.560869 2.111081 3.449871 0
M  V30 5 C 5.380812 0.976247 3.150295 0
M  V30 6 C 4.648368 0.332236 1.984944 0
M  V30 7 C 4.344647 1.574308 1.151709 0 CFG=1
M  V30 8 N 3.183098 1.317702 0.321450 0
M  V30 9 C 3.330632 1.462548 -1.085873 0
M  V30 10 O 4.377696 1.792173 -1.661973 0
M  V30 11 C 2.161978 1.203844 -1.914591 0
M  V30 12 C 0.919077 0.837598 -1.568780 0
M  V30 13 C -0.041702 0.645589 -2.529239 0
M  V30 14 N -1.395652 0.259476 -2.326615 0
M  V30 15 N -2.454352 1.045687 -2.228899 0
M  V30 16 C -3.574081 0.295557 -2.037312 0
M  V30 17 C -3.171454 -1.019220 -2.017800 0
M  V30 18 C -3.791858 -2.239759 -1.866674 0
M  V30 19 C -3.188322 -3.472324 -1.877990 0
M  V30 20 N -3.831086 -4.708086 -1.694715 0
M  V30 21 C -4.909757 -5.147402 -0.917310 0
M  V30 22 C -5.652141 -4.411943 -0.023215 0
M  V30 23 C -6.712369 -4.869936 0.711889 0
M  V30 24 C -7.084821 -6.182000 0.557338 0
M  V30 25 C -6.382869 -6.962282 -0.317853 0
M  V30 26 C -5.333692 -6.446178 -1.023050 0
M  V30 27 Cl -4.519900 -7.563869 -2.114026 0
M  V30 28 C -1.813506 -3.379533 -2.067518 0
M  V30 29 C -1.119484 -2.202300 -2.226299 0
M  V30 30 C -1.808233 -1.023739 -2.199851 0
M  V30 31 C 0.383118 0.862055 -3.877610 0
M  V30 32 S 2.192767 1.342272 -3.666437 0
M  V30 33 C 3.972276 2.556039 2.218525 0
M  V30 34 H 4.644104 2.141852 6.179427 0
M  V30 35 H 4.460937 0.360447 5.699206 0
M  V30 36 H 3.109328 1.281978 6.382618 0
M  V30 37 H 2.803857 1.103342 3.963410 0
M  V30 38 H 3.356411 4.028805 4.219878 0
M  V30 39 H 2.711625 3.398645 5.734244 0
M  V30 40 H 1.783788 3.178269 4.169511 0
M  V30 41 H 5.539139 0.277325 3.968725 0
M  V30 42 H 6.338308 1.347042 2.725504 0
M  V30 43 H 3.704063 -0.122185 2.321071 0
M  V30 44 H 5.343630 -0.354323 1.473423 0
M  V30 45 H 5.219912 1.858547 0.552097 0
M  V30 46 H 2.294797 1.039246 0.794280 0
M  V30 47 H 0.677957 0.694105 -0.525339 0
M  V30 48 H -4.598168 0.620501 -1.918499 0
M  V30 49 H -4.860816 -2.153009 -1.743615 0
M  V30 50 H -3.358309 -5.429090 -2.304469 0
M  V30 51 H -5.393163 -3.380087 0.143165 0
M  V30 52 H -7.253293 -4.240291 1.396517 0
M  V30 53 H -7.916735 -6.581594 1.119693 0
M  V30 54 H -6.696509 -7.995743 -0.422147 0
M  V30 55 H -1.200188 -4.270612 -2.100007 0
M  V30 56 H -0.047966 -2.182922 -2.370974 0
M  V30 57 H -0.183777 0.773864 -4.782605 0
M  V30 58 H 4.346424 3.583166 1.963055 0
M  V30 59 H 2.872164 2.674684 2.307693 0
M  V30 END ATOM
M  V30 BEGIN BOND
M  V30 1 1 1 2
M  V30 2 1 2 3
M  V30 3 1 2 4
M  V30 4 1 4 5
M  V30 5 1 5 6
M  V30 6 1 6 7
M  V30 7 1 7 8
M  V30 8 1 8 9
M  V30 9 2 9 10
M  V30 10 1 9 11
M  V30 11 2 11 12
M  V30 12 1 12 13
M  V30 13 1 13 14
M  V30 14 1 14 15
M  V30 15 2 15 16
M  V30 16 1 16 17
M  V30 17 2 17 18
M  V30 18 1 18 19
M  V30 19 1 19 20
M  V30 20 1 20 21
M  V30 21 2 21 22
M  V30 22 1 22 23
M  V30 23 2 23 24
M  V30 24 1 24 25
M  V30 25 2 25 26
M  V30 26 1 26 27
M  V30 27 2 19 28
M  V30 28 1 28 29
M  V30 29 2 29 30
M  V30 30 2 13 31
M  V30 31 1 31 32
M  V30 32 1 7 33
M  V30 33 1 33 4
M  V30 34 1 32 11
M  V30 35 1 30 14
M  V30 36 1 30 17
M  V30 37 1 26 21
M  V30 38 1 1 34
M  V30 39 1 1 35
M  V30 40 1 1 36
M  V30 41 1 2 37
M  V30 42 1 3 38
M  V30 43 1 3 39
M  V30 44 1 3 40
M  V30 45 1 5 41
M  V30 46 1 5 42
M  V30 47 1 6 43
M  V30 48 1 6 44
M  V30 49 1 7 45 CFG=3
M  V30 50 1 8 46
M  V30 51 1 12 47
M  V30 52 1 16 48
M  V30 53 1 18 49
M  V30 54 1 20 50
M  V30 55 1 22 51
M  V30 56 1 23 52
M  V30 57 1 24 53
M  V30 58 1 25 54
M  V30 59 1 28 55
M  V30 60 1 29 56
M  V30 61 1 31 57
M  V30 62 1 33 58
M  V30 63 1 33 59
M  V30 END BOND
M  V30 END CTAB
M  END
>  <Dataset>  (386) 
ChEMBL_Kinases

>  <Ligand_Instance>  (386) 
nan

>  <PDB_ID>  (386) 
nan

>  <Standardized_SMILES>  (386) 
CC(C)N1CC[C@@H](NC(=O)c2cc(-n3ncc4cc(Nc5ccccc5Cl)ccc43)cs2)C1

>  <Name>  (386) 
nan

>  <Pocket>  (386) 
nan

>  <ATP_Site>  (386) 
nan

>  <Peripheral>  (386) 
nan

>  <Num_H_Atoms_ProtBoundConf>  (386) 
nan

>  <Num_Resolved_Atoms>  (386) 
nan

>  <Num_Not_Resolved_Atoms>  (386) 
nan

$$$$
CHEMBL4869199
     RDKit          3D

  0  0  0  0  0  0  0  0  0  0999 V3000
M  V30 BEGIN CTAB
M  V30 COUNTS 58 61 0 0 0
M  V30 BEGIN ATOM
M  V30 1 C 3.484036 -3.977465 3.809786 0
M  V30 2 C 2.138425 -3.373584 3.558165 0
M  V30 3 N 1.741213 -2.288079 4.241570 0
M  V30 4 C 0.551275 -1.704264 4.071573 0
M  V30 5 N 0.061686 -0.520987 4.736284 0
M  V30 6 C -0.039109 0.731399 4.047340 0
M  V30 7 N -0.296018 1.832908 4.115337 0
M  V30 8 C -0.298501 2.787358 3.213198 0
M  V30 9 C 0.055356 2.462464 1.974586 0
M  V30 10 C 0.266277 2.920357 0.590847 0
M  V30 11 O 0.648513 2.039772 -0.266659 0
M  V30 12 N 0.129147 4.177874 -0.007895 0
M  V30 13 C 0.496110 3.896139 -1.377039 0
M  V30 14 C 1.831651 3.975981 -1.704736 0
M  V30 15 C 2.829703 4.360852 -0.679869 0
M  V30 16 C 2.209081 3.693198 -2.994383 0
M  V30 17 N 1.259359 3.352884 -3.871103 0
M  V30 18 C -0.030135 3.283147 -3.530337 0
M  V30 19 C -0.523446 3.544758 -2.271397 0
M  V30 20 Cl -2.208590 3.458642 -1.812875 0
M  V30 21 S 0.396957 0.698480 2.173221 0
M  V30 22 C -0.305205 -2.256289 3.142609 0
M  V30 23 C 0.099940 -3.379325 2.431310 0
M  V30 24 N -0.767505 -3.949670 1.466734 0
M  V30 25 C -2.136568 -3.558137 1.252773 0
M  V30 26 C -2.653955 -4.098348 -0.053925 0
M  V30 27 N -1.732166 -4.055765 -1.138202 0
M  V30 28 C -1.784114 -2.879851 -1.965628 0
M  V30 29 C -3.041133 -2.778628 -2.780842 0
M  V30 30 O -2.986808 -1.605336 -3.554253 0
M  V30 31 C -0.384040 -4.408863 -0.820591 0
M  V30 32 C -0.277293 -5.009709 0.591337 0
M  V30 33 N 1.309286 -3.923047 2.644570 0
M  V30 34 H 4.250102 -3.605188 3.114051 0
M  V30 35 H 3.796765 -3.679087 4.839148 0
M  V30 36 H 3.363682 -5.076349 3.776251 0
M  V30 37 H -0.251102 -0.407351 5.702559 0
M  V30 38 H -0.549058 3.859538 3.271815 0
M  V30 39 H -0.185685 4.912852 0.692374 0
M  V30 40 H 3.639040 4.907236 -1.251091 0
M  V30 41 H 3.360602 3.478635 -0.231417 0
M  V30 42 H 2.459028 5.083824 0.046571 0
M  V30 43 H 3.249733 3.739371 -3.304613 0
M  V30 44 H -0.749269 2.999854 -4.297710 0
M  V30 45 H -1.278930 -1.825968 2.968098 0
M  V30 46 H -2.276613 -2.459208 1.307320 0
M  V30 47 H -2.731668 -4.075941 2.054039 0
M  V30 48 H -3.561831 -3.508777 -0.293943 0
M  V30 49 H -2.991576 -5.155883 0.076301 0
M  V30 50 H -0.931988 -2.928626 -2.679948 0
M  V30 51 H -1.603472 -1.956045 -1.368635 0
M  V30 52 H -3.084293 -3.666814 -3.425759 0
M  V30 53 H -3.893874 -2.676502 -2.097506 0
M  V30 54 H -2.394139 -1.748264 -4.317862 0
M  V30 55 H 0.025070 -5.101929 -1.568070 0
M  V30 56 H 0.216979 -3.456869 -0.750343 0
M  V30 57 H -0.954924 -5.877978 0.642840 0
M  V30 58 H 0.778600 -5.261246 0.751292 0
M  V30 END ATOM
M  V30 BEGIN BOND
M  V30 1 1 1 2
M  V30 2 2 2 3
M  V30 3 1 3 4
M  V30 4 1 4 5
M  V30 5 1 5 6
M  V30 6 2 6 7
M  V30 7 1 7 8
M  V30 8 2 8 9
M  V30 9 1 9 10
M  V30 10 2 10 11
M  V30 11 1 10 12
M  V30 12 1 12 13
M  V30 13 2 13 14
M  V30 14 1 14 15
M  V30 15 1 14 16
M  V30 16 2 16 17
M  V30 17 1 17 18
M  V30 18 2 18 19
M  V30 19 1 19 20
M  V30 20 1 9 21
M  V30 21 2 4 22
M  V30 22 1 22 23
M  V30 23 1 23 24
M  V30 24 1 24 25
M  V30 25 1 25 26
M  V30 26 1 26 27
M  V30 27 1 27 28
M  V30 28 1 28 29
M  V30 29 1 29 30
M  V30 30 1 27 31
M  V30 31 1 31 32
M  V30 32 2 23 33
M  V30 33 1 33 2
M  V30 34 1 21 6
M  V30 35 1 32 24
M  V30 36 1 19 13
M  V30 37 1 1 34
M  V30 38 1 1 35
M  V30 39 1 1 36
M  V30 40 1 5 37
M  V30 41 1 8 38
M  V30 42 1 12 39
M  V30 43 1 15 40
M  V30 44 1 15 41
M  V30 45 1 15 42
M  V30 46 1 16 43
M  V30 47 1 18 44
M  V30 48 1 22 45
M  V30 49 1 25 46
M  V30 50 1 25 47
M  V30 51 1 26 48
M  V30 52 1 26 49
M  V30 53 1 28 50
M  V30 54 1 28 51
M  V30 55 1 29 52
M  V30 56 1 29 53
M  V30 57 1 30 54
M  V30 58 1 31 55
M  V30 59 1 31 56
M  V30 60 1 32 57
M  V30 61 1 32 58
M  V30 END BOND
M  V30 END CTAB
M  END
>  <Dataset>  (387) 
ChEMBL_Kinases

>  <Ligand_Instance>  (387) 
nan

>  <PDB_ID>  (387) 
nan

>  <Standardized_SMILES>  (387) 
Cc1nc(Nc2ncc(C(=O)Nc3c(C)cncc3Cl)s2)cc(N2CCN(CCO)CC2)n1

>  <Name>  (387) 
nan

>  <Pocket>  (387) 
nan

>  <ATP_Site>  (387) 
nan

>  <Peripheral>  (387) 
nan

>  <Num_H_Atoms_ProtBoundConf>  (387) 
nan

>  <Num_Resolved_Atoms>  (387) 
nan

>  <Num_Not_Resolved_Atoms>  (387) 
nan

$$$$
CHEMBL364935
     RDKit          3D

  0  0  0  0  0  0  0  0  0  0999 V3000
M  V30 BEGIN CTAB
M  V30 COUNTS 40 43 0 0 0
M  V30 BEGIN ATOM
M  V30 1 F 2.404608 -0.553960 4.698763 0
M  V30 2 C 2.180412 -1.324470 3.561556 0
M  V30 3 F 1.209681 -2.233354 3.890369 0
M  V30 4 F 3.343821 -2.017278 3.223003 0
M  V30 5 C 1.830664 -0.483721 2.382989 0
M  V30 6 C 1.753067 0.889883 2.457675 0
M  V30 7 N 1.431683 1.529729 1.330536 0
M  V30 8 C 1.182188 0.953261 0.150640 0
M  V30 9 N 0.836010 1.624644 -1.052543 0
M  V30 10 C 0.689291 2.989465 -1.295874 0
M  V30 11 C 0.291792 3.490164 -2.521747 0
M  V30 12 C 0.147260 4.836558 -2.762368 0
M  V30 13 C 0.387611 5.781284 -1.799886 0
M  V30 14 Br 0.155827 7.606309 -2.255176 0
M  V30 15 C 0.785509 5.317038 -0.566179 0
M  V30 16 C 0.924967 3.951922 -0.344991 0
M  V30 17 N 1.274004 -0.385743 0.146015 0
M  V30 18 C 1.586082 -1.141375 1.201929 0
M  V30 19 N 1.649260 -2.560275 1.077807 0
M  V30 20 C 0.587453 -3.502286 1.189872 0
M  V30 21 C 0.654294 -4.879576 1.130530 0
M  V30 22 C -0.506247 -5.617818 1.259449 0
M  V30 23 C -1.731009 -5.009123 1.447044 0
M  V30 24 N -2.980153 -5.467631 1.596375 0
M  V30 25 C -3.847930 -4.468223 1.748825 0
M  V30 26 N -3.131353 -3.308018 1.697036 0
M  V30 27 C -1.814764 -3.622752 1.509473 0
M  V30 28 C -0.639071 -2.881463 1.377797 0
M  V30 29 H 1.945524 1.399089 3.383576 0
M  V30 30 H 0.657945 1.011384 -1.904689 0
M  V30 31 H 0.084164 2.779731 -3.334312 0
M  V30 32 H -0.170226 5.129464 -3.759864 0
M  V30 33 H 0.973300 6.076613 0.187790 0
M  V30 34 H 1.237305 3.738233 0.643067 0
M  V30 35 H 2.620867 -2.897540 0.880051 0
M  V30 36 H 1.648555 -5.259205 0.983917 0
M  V30 37 H -0.424665 -6.681241 1.207155 0
M  V30 38 H -3.279934 -6.458859 1.599752 0
M  V30 39 H -4.915868 -4.398121 1.893378 0
M  V30 40 H -0.828446 -1.801181 1.447088 0
M  V30 END ATOM
M  V30 BEGIN BOND
M  V30 1 1 1 2
M  V30 2 1 2 3
M  V30 3 1 2 4
M  V30 4 1 2 5
M  V30 5 2 5 6
M  V30 6 1 6 7
M  V30 7 2 7 8
M  V30 8 1 8 9
M  V30 9 1 9 10
M  V30 10 2 10 11
M  V30 11 1 11 12
M  V30 12 2 12 13
M  V30 13 1 13 14
M  V30 14 1 13 15
M  V30 15 2 15 16
M  V30 16 1 8 17
M  V30 17 2 17 18
M  V30 18 1 18 19
M  V30 19 1 19 20
M  V30 20 2 20 21
M  V30 21 1 21 22
M  V30 22 2 22 23
M  V30 23 1 23 24
M  V30 24 1 24 25
M  V30 25 2 25 26
M  V30 26 1 26 27
M  V30 27 2 27 28
M  V30 28 1 18 5
M  V30 29 1 28 20
M  V30 30 1 16 10
M  V30 31 1 27 23
M  V30 32 1 6 29
M  V30 33 1 9 30
M  V30 34 1 11 31
M  V30 35 1 12 32
M  V30 36 1 15 33
M  V30 37 1 16 34
M  V30 38 1 19 35
M  V30 39 1 21 36
M  V30 40 1 22 37
M  V30 41 1 24 38
M  V30 42 1 25 39
M  V30 43 1 28 40
M  V30 END BOND
M  V30 END CTAB
M  END
>  <Dataset>  (388) 
ChEMBL_Kinases

>  <Ligand_Instance>  (388) 
nan

>  <PDB_ID>  (388) 
nan

>  <Standardized_SMILES>  (388) 
FC(F)(F)c1cnc(Nc2ccc(Br)cc2)nc1Nc1ccc2[nH]cnc2c1

>  <Name>  (388) 
nan

>  <Pocket>  (388) 
nan

>  <ATP_Site>  (388) 
nan

>  <Peripheral>  (388) 
nan

>  <Num_H_Atoms_ProtBoundConf>  (388) 
nan

>  <Num_Resolved_Atoms>  (388) 
nan

>  <Num_Not_Resolved_Atoms>  (388) 
nan

$$$$
CHEMBL3648724
     RDKit          3D

  0  0  0  0  0  0  0  0  0  0999 V3000
M  V30 BEGIN CTAB
M  V30 COUNTS 58 61 0 0 0
M  V30 BEGIN ATOM
M  V30 1 C 0.564212 -2.510581 4.759734 0
M  V30 2 O 0.919798 -2.004483 3.494648 0
M  V30 3 C 0.596431 -2.957505 2.535077 0 CFG=2
M  V30 4 C 1.804395 -3.484087 1.815887 0
M  V30 5 C 2.234822 -2.627064 0.659147 0
M  V30 6 N 1.370979 -2.717673 -0.480321 0
M  V30 7 C 2.047814 -2.015342 -1.519645 0
M  V30 8 C 2.072008 -0.712131 -2.015918 0
M  V30 9 N 1.193400 0.183132 -1.332755 0
M  V30 10 C -0.083009 0.204054 -1.958752 0
M  V30 11 O -0.289934 -0.523655 -2.988024 0
M  V30 12 C -1.201420 1.024170 -1.489288 0
M  V30 13 N -1.221112 1.841763 -0.453254 0
M  V30 14 C -2.037792 2.497399 -0.033532 0
M  V30 15 C -2.167120 3.435034 1.102222 0
M  V30 16 C -1.050479 3.609596 1.891731 0
M  V30 17 F 0.089187 2.913482 1.573611 0
M  V30 18 C -1.192697 4.474385 2.932370 0
M  V30 19 C -2.391379 5.119542 3.155498 0
M  V30 20 C -3.493710 4.932567 2.356715 0
M  V30 21 C -3.385345 4.058601 1.287620 0
M  V30 22 F -4.456663 3.870836 0.505492 0
M  V30 23 S -3.456912 2.127558 -1.235298 0
M  V30 24 C -2.417845 0.971125 -2.181728 0
M  V30 25 N -2.885853 0.272096 -3.314990 0
M  V30 26 C 2.972536 -0.685356 -3.059927 0
M  V30 27 N 3.448931 -1.931169 -3.159527 0
M  V30 28 N 2.914582 -2.733465 -2.257176 0
M  V30 29 C 3.322981 -4.125111 -2.223901 0
M  V30 30 C 0.097185 -3.344272 -0.646891 0
M  V30 31 C -0.693862 -3.527017 0.586884 0
M  V30 32 C -0.452719 -2.421270 1.589381 0 CFG=1
M  V30 33 N -1.633709 -2.062700 2.283140 0
M  V30 34 H 0.834114 -1.730646 5.499222 0
M  V30 35 H -0.512341 -2.694118 4.863372 0
M  V30 36 H 1.178484 -3.406504 5.010222 0
M  V30 37 H 0.157297 -3.817793 3.082123 0
M  V30 38 H 2.635280 -3.495159 2.542005 0
M  V30 39 H 1.675874 -4.514916 1.442093 0
M  V30 40 H 2.470574 -1.587072 0.966632 0
M  V30 41 H 3.241492 -3.051225 0.369610 0
M  V30 42 H 1.319969 0.806820 -0.479638 0
M  V30 43 H -0.306861 4.612382 3.558280 0
M  V30 44 H -2.347841 5.783725 4.032419 0
M  V30 45 H -4.379864 5.490395 2.626018 0
M  V30 46 H -2.994798 -0.734828 -3.555325 0
M  V30 47 H -3.220190 0.832635 -4.153099 0
M  V30 48 H 3.072845 0.277626 -3.520957 0
M  V30 49 H 2.660685 -4.733331 -1.595336 0
M  V30 50 H 4.346980 -4.225401 -1.758314 0
M  V30 51 H 3.423825 -4.534692 -3.245678 0
M  V30 52 H 0.206704 -4.303300 -1.183902 0
M  V30 53 H -0.520534 -2.699538 -1.337495 0
M  V30 54 H -0.459092 -4.541260 0.995936 0
M  V30 55 H -1.783989 -3.593544 0.314191 0
M  V30 56 H -0.101871 -1.523689 1.041919 0
M  V30 57 H -1.980430 -1.117767 2.202047 0
M  V30 58 H -2.009404 -2.689109 2.992688 0
M  V30 END ATOM
M  V30 BEGIN BOND
M  V30 1 1 1 2
M  V30 2 1 2 3
M  V30 3 1 3 4
M  V30 4 1 4 5
M  V30 5 1 5 6
M  V30 6 1 6 7
M  V30 7 2 7 8
M  V30 8 1 8 9
M  V30 9 1 9 10
M  V30 10 2 10 11
M  V30 11 1 10 12
M  V30 12 1 12 13
M  V30 13 2 13 14
M  V30 14 1 14 15
M  V30 15 2 15 16
M  V30 16 1 16 17
M  V30 17 1 16 18
M  V30 18 2 18 19
M  V30 19 1 19 20
M  V30 20 2 20 21
M  V30 21 1 21 22
M  V30 22 1 14 23
M  V30 23 1 23 24
M  V30 24 1 24 25
M  V30 25 1 8 26
M  V30 26 2 26 27
M  V30 27 1 27 28
M  V30 28 1 28 29
M  V30 29 1 6 30
M  V30 30 1 30 31
M  V30 31 1 31 32
M  V30 32 1 32 33
M  V30 33 1 32 3
M  V30 34 1 28 7
M  V30 35 2 24 12
M  V30 36 1 21 15
M  V30 37 1 1 34
M  V30 38 1 1 35
M  V30 39 1 1 36
M  V30 40 1 3 37 CFG=1
M  V30 41 1 4 38
M  V30 42 1 4 39
M  V30 43 1 5 40
M  V30 44 1 5 41
M  V30 45 1 9 42
M  V30 46 1 18 43
M  V30 47 1 19 44
M  V30 48 1 20 45
M  V30 49 1 25 46
M  V30 50 1 25 47
M  V30 51 1 26 48
M  V30 52 1 29 49
M  V30 53 1 29 50
M  V30 54 1 29 51
M  V30 55 1 30 52
M  V30 56 1 30 53
M  V30 57 1 31 54
M  V30 58 1 31 55
M  V30 59 1 32 56 CFG=3
M  V30 60 1 33 57
M  V30 61 1 33 58
M  V30 END BOND
M  V30 END CTAB
M  END
>  <Dataset>  (389) 
ChEMBL_Kinases

>  <Ligand_Instance>  (389) 
nan

>  <PDB_ID>  (389) 
nan

>  <Standardized_SMILES>  (389) 
CO[C@@H]1CCN(c2c(NC(=O)c3nc(-c4c(F)cccc4F)sc3N)cnn2C)CC[C@H]1N

>  <Name>  (389) 
nan

>  <Pocket>  (389) 
nan

>  <ATP_Site>  (389) 
nan

>  <Peripheral>  (389) 
nan

>  <Num_H_Atoms_ProtBoundConf>  (389) 
nan

>  <Num_Resolved_Atoms>  (389) 
nan

>  <Num_Not_Resolved_Atoms>  (389) 
nan

$$$$
CHEMBL4868958
     RDKit          3D

  0  0  0  0  0  0  0  0  0  0999 V3000
M  V30 BEGIN CTAB
M  V30 COUNTS 50 55 0 0 0
M  V30 BEGIN ATOM
M  V30 1 F 2.952361 -1.680405 6.345734 0
M  V30 2 C 3.375017 -1.424033 5.079030 0
M  V30 3 C 4.538460 -1.983372 4.597252 0
M  V30 4 C 4.954247 -1.707209 3.294257 0
M  V30 5 C 4.144826 -0.867296 2.558652 0
M  V30 6 N 4.270941 -0.423205 1.307810 0
M  V30 7 C 3.243970 0.402149 0.945472 0
M  V30 8 C 3.131807 1.039755 -0.392400 0
M  V30 9 N 2.409090 0.246907 -1.354078 0
M  V30 10 C 1.054626 -0.122805 -1.132665 0
M  V30 11 N 0.344671 0.215022 -0.055627 0
M  V30 12 C -0.937934 -0.154279 0.117384 0
M  V30 13 N -1.625771 0.247997 1.295322 0
M  V30 14 C -0.993719 1.048153 2.325405 0
M  V30 15 C -2.031016 1.996459 2.898236 0
M  V30 16 O -3.039708 2.243050 1.979510 0
M  V30 17 C -3.854160 1.123807 1.800519 0
M  V30 18 C -3.001372 -0.117831 1.537466 0
M  V30 19 N -1.605688 -0.895597 -0.786056 0
M  V30 20 C -0.969454 -1.284330 -1.906819 0
M  V30 21 C 0.344657 -0.893505 -2.061586 0
M  V30 22 N 0.788770 -1.389359 -3.250179 0
M  V30 23 C -0.237412 -2.064424 -3.798621 0
M  V30 24 N -1.314417 -2.007869 -2.989825 0
M  V30 25 C -2.621338 -2.591478 -3.188665 0
M  V30 26 C -3.695509 -2.003184 -3.906186 0
M  V30 27 S -4.985283 -3.271691 -3.743059 0
M  V30 28 C -3.845380 -4.398485 -2.720913 0
M  V30 29 N -2.791970 -3.778090 -2.638486 0
M  V30 30 N 2.429107 0.475503 2.038971 0
M  V30 31 C 2.964720 -0.282407 3.005640 0
M  V30 32 C 2.578849 -0.575641 4.302680 0
M  V30 33 F 1.461677 -0.062584 4.823029 0
M  V30 34 H 5.136172 -2.631161 5.205884 0
M  V30 35 H 5.857243 -2.117806 2.864460 0
M  V30 36 H 5.074275 -0.676800 0.660228 0
M  V30 37 H 2.664225 2.046416 -0.247318 0
M  V30 38 H 4.164232 1.237834 -0.745629 0
M  V30 39 H 2.856663 -0.078699 -2.239105 0
M  V30 40 H -0.199096 1.674554 1.870817 0
M  V30 41 H -0.602709 0.417330 3.152553 0
M  V30 42 H -1.542065 2.953748 3.152191 0
M  V30 43 H -2.452543 1.612667 3.848182 0
M  V30 44 H -4.500476 1.278857 0.916171 0
M  V30 45 H -4.478701 0.993285 2.699766 0
M  V30 46 H -3.431553 -0.693235 0.690179 0
M  V30 47 H -3.051306 -0.734066 2.457068 0
M  V30 48 H -0.276874 -2.592948 -4.729153 0
M  V30 49 H -3.550460 -1.030735 -4.355074 0
M  V30 50 H -4.203171 -5.360401 -2.359158 0
M  V30 END ATOM
M  V30 BEGIN BOND
M  V30 1 1 1 2
M  V30 2 2 2 3
M  V30 3 1 3 4
M  V30 4 2 4 5
M  V30 5 1 5 6
M  V30 6 1 6 7
M  V30 7 1 7 8
M  V30 8 1 8 9
M  V30 9 1 9 10
M  V30 10 2 10 11
M  V30 11 1 11 12
M  V30 12 1 12 13
M  V30 13 1 13 14
M  V30 14 1 14 15
M  V30 15 1 15 16
M  V30 16 1 16 17
M  V30 17 1 17 18
M  V30 18 2 12 19
M  V30 19 1 19 20
M  V30 20 2 20 21
M  V30 21 1 21 22
M  V30 22 2 22 23
M  V30 23 1 23 24
M  V30 24 1 24 25
M  V30 25 2 25 26
M  V30 26 1 26 27
M  V30 27 1 27 28
M  V30 28 2 28 29
M  V30 29 2 7 30
M  V30 30 1 30 31
M  V30 31 2 31 32
M  V30 32 1 32 33
M  V30 33 1 32 2
M  V30 34 1 31 5
M  V30 35 1 21 10
M  V30 36 1 29 25
M  V30 37 1 18 13
M  V30 38 1 24 20
M  V30 39 1 3 34
M  V30 40 1 4 35
M  V30 41 1 6 36
M  V30 42 1 8 37
M  V30 43 1 8 38
M  V30 44 1 9 39
M  V30 45 1 14 40
M  V30 46 1 14 41
M  V30 47 1 15 42
M  V30 48 1 15 43
M  V30 49 1 17 44
M  V30 50 1 17 45
M  V30 51 1 18 46
M  V30 52 1 18 47
M  V30 53 1 23 48
M  V30 54 1 26 49
M  V30 55 1 28 50
M  V30 END BOND
M  V30 END CTAB
M  END
>  <Dataset>  (390) 
ChEMBL_Kinases

>  <Ligand_Instance>  (390) 
nan

>  <PDB_ID>  (390) 
nan

>  <Standardized_SMILES>  (390) 
Fc1ccc2[nH]c(CNc3nc(N4CCOCC4)nc4c3ncn4-c3cscn3)nc2c1F

>  <Name>  (390) 
nan

>  <Pocket>  (390) 
nan

>  <ATP_Site>  (390) 
nan

>  <Peripheral>  (390) 
nan

>  <Num_H_Atoms_ProtBoundConf>  (390) 
nan

>  <Num_Resolved_Atoms>  (390) 
nan

>  <Num_Not_Resolved_Atoms>  (390) 
nan

$$$$
CHEMBL4867928
     RDKit          3D

  0  0  0  0  0  0  0  0  0  0999 V3000
M  V30 BEGIN CTAB
M  V30 COUNTS 54 59 0 0 0
M  V30 BEGIN ATOM
M  V30 1 F 3.153469 -5.735594 4.280069 0
M  V30 2 C 3.631272 -6.169400 3.077143 0
M  V30 3 F 2.736607 -7.097485 2.543977 0
M  V30 4 N 3.756566 -5.040410 2.163929 0
M  V30 5 C 3.317973 -3.782906 2.389144 0
M  V30 6 C 3.649358 -3.073073 1.271305 0
M  V30 7 N 3.435502 -1.692785 0.941902 0
M  V30 8 C 4.244547 -0.631667 1.088453 0
M  V30 9 N 3.570510 0.435342 0.624763 0
M  V30 10 C 2.341259 0.050958 0.187133 0
M  V30 11 C 1.295681 0.790514 -0.371704 0
M  V30 12 N 1.440124 2.180842 -0.562385 0
M  V30 13 C 0.478404 3.100850 -1.113513 0
M  V30 14 C -0.759335 3.169800 -0.274025 0
M  V30 15 N -0.860361 4.046375 0.759547 0
M  V30 16 C -2.054683 3.917235 1.346894 0
M  V30 17 C -2.670137 4.539005 2.413331 0
M  V30 18 C -3.941768 4.190648 2.805378 0
M  V30 19 Cl -4.731008 4.985812 4.169875 0
M  V30 20 C -4.587411 3.193613 2.094862 0
M  V30 21 Cl -6.207195 2.755084 2.601597 0
M  V30 22 C -4.008236 2.545790 1.021996 0
M  V30 23 C -2.739195 2.937656 0.679748 0
M  V30 24 N -1.925214 2.510906 -0.291525 0
M  V30 25 N 0.185136 0.115472 -0.709677 0
M  V30 26 C 0.075164 -1.209775 -0.523103 0
M  V30 27 N -1.037248 -2.031675 -0.842532 0
M  V30 28 C -1.091804 -3.450677 -0.553231 0
M  V30 29 C -2.121867 -4.075672 -1.458729 0
M  V30 30 O -3.392907 -3.632709 -1.100816 0
M  V30 31 C -3.406356 -2.288875 -0.767829 0
M  V30 32 C -2.254710 -1.588170 -1.492053 0
M  V30 33 N 1.117691 -1.861001 0.019162 0
M  V30 34 C 2.270125 -1.303866 0.395020 0
M  V30 35 C 4.292261 -3.908870 0.365748 0
M  V30 36 N 4.322415 -5.099711 0.980661 0
M  V30 37 H 4.632495 -6.634959 3.185094 0
M  V30 38 H 2.816034 -3.382239 3.241048 0
M  V30 39 H 5.224362 -0.748422 1.511269 0
M  V30 40 H 2.364721 2.609364 -0.267290 0
M  V30 41 H 0.205657 2.771033 -2.142969 0
M  V30 42 H 0.894466 4.117357 -1.198161 0
M  V30 43 H -2.111811 5.310427 2.926321 0
M  V30 44 H -4.499170 1.768423 0.460450 0
M  V30 45 H -2.034621 1.790081 -1.027286 0
M  V30 46 H -1.429780 -3.632832 0.498928 0
M  V30 47 H -0.097802 -3.919393 -0.721418 0
M  V30 48 H -2.138083 -5.183888 -1.235299 0
M  V30 49 H -1.908080 -3.974184 -2.525578 0
M  V30 50 H -3.260068 -2.108930 0.306542 0
M  V30 51 H -4.377277 -1.886422 -1.100322 0
M  V30 52 H -2.403259 -0.510665 -1.490026 0
M  V30 53 H -2.218128 -1.963456 -2.549656 0
M  V30 54 H 4.706674 -3.736329 -0.623461 0
M  V30 END ATOM
M  V30 BEGIN BOND
M  V30 1 1 1 2
M  V30 2 1 2 3
M  V30 3 1 2 4
M  V30 4 1 4 5
M  V30 5 2 5 6
M  V30 6 1 6 7
M  V30 7 1 7 8
M  V30 8 2 8 9
M  V30 9 1 9 10
M  V30 10 2 10 11
M  V30 11 1 11 12
M  V30 12 1 12 13
M  V30 13 1 13 14
M  V30 14 2 14 15
M  V30 15 1 15 16
M  V30 16 2 16 17
M  V30 17 1 17 18
M  V30 18 1 18 19
M  V30 19 2 18 20
M  V30 20 1 20 21
M  V30 21 1 20 22
M  V30 22 2 22 23
M  V30 23 1 23 24
M  V30 24 1 11 25
M  V30 25 2 25 26
M  V30 26 1 26 27
M  V30 27 1 27 28
M  V30 28 1 28 29
M  V30 29 1 29 30
M  V30 30 1 30 31
M  V30 31 1 31 32
M  V30 32 1 26 33
M  V30 33 2 33 34
M  V30 34 1 6 35
M  V30 35 2 35 36
M  V30 36 1 36 4
M  V30 37 1 34 7
M  V30 38 1 34 10
M  V30 39 1 24 14
M  V30 40 1 32 27
M  V30 41 1 23 16
M  V30 42 1 2 37
M  V30 43 1 5 38
M  V30 44 1 8 39
M  V30 45 1 12 40
M  V30 46 1 13 41
M  V30 47 1 13 42
M  V30 48 1 17 43
M  V30 49 1 22 44
M  V30 50 1 24 45
M  V30 51 1 28 46
M  V30 52 1 28 47
M  V30 53 1 29 48
M  V30 54 1 29 49
M  V30 55 1 31 50
M  V30 56 1 31 51
M  V30 57 1 32 52
M  V30 58 1 32 53
M  V30 59 1 35 54
M  V30 END BOND
M  V30 END CTAB
M  END
>  <Dataset>  (391) 
ChEMBL_Kinases

>  <Ligand_Instance>  (391) 
nan

>  <PDB_ID>  (391) 
nan

>  <Standardized_SMILES>  (391) 
FC(F)n1cc(-n2cnc3c(NCc4nc5cc(Cl)c(Cl)cc5[nH]4)nc(N4CCOCC4)nc32)cn1

>  <Name>  (391) 
nan

>  <Pocket>  (391) 
nan

>  <ATP_Site>  (391) 
nan

>  <Peripheral>  (391) 
nan

>  <Num_H_Atoms_ProtBoundConf>  (391) 
nan

>  <Num_Resolved_Atoms>  (391) 
nan

>  <Num_Not_Resolved_Atoms>  (391) 
nan

$$$$
CHEMBL4867844
     RDKit          3D

  0  0  0  0  0  0  0  0  0  0999 V3000
M  V30 BEGIN CTAB
M  V30 COUNTS 56 59 0 0 0
M  V30 BEGIN ATOM
M  V30 1 C -2.453573 -1.331341 5.086033 0
M  V30 2 C -1.816568 -1.588689 3.767618 0
M  V30 3 N -0.471962 -1.682193 3.687684 0
M  V30 4 C 0.151695 -1.920263 2.512083 0
M  V30 5 N 1.542326 -2.044656 2.278471 0
M  V30 6 C 2.504414 -1.157111 1.721210 0
M  V30 7 N 3.648870 -1.092019 1.492896 0
M  V30 8 C 4.250293 -0.070078 0.915105 0
M  V30 9 C 3.457379 1.042434 0.536153 0
M  V30 10 C 4.169410 2.183738 -0.129119 0
M  V30 11 O 5.372476 2.289259 -0.381037 0
M  V30 12 N 3.320962 3.244229 -0.496668 0
M  V30 13 C 4.065232 4.291633 -1.127112 0
M  V30 14 C 4.638074 5.347010 -0.465385 0
M  V30 15 C 4.553681 5.538024 1.006889 0
M  V30 16 C 5.331556 6.282719 -1.201629 0
M  V30 17 S 5.202810 5.691917 -2.940335 0
M  V30 18 C 4.195304 4.198046 -2.478982 0
M  V30 19 Cl 3.650281 3.070778 -3.657055 0
M  V30 20 S 1.829216 0.496028 1.071897 0
M  V30 21 C -0.671760 -2.059543 1.405232 0
M  V30 22 C -2.062616 -1.964733 1.473080 0
M  V30 23 N -2.903600 -2.097832 0.333850 0
M  V30 24 C -4.359790 -2.229205 0.509538 0
M  V30 25 C -4.725475 -3.651708 0.039093 0
M  V30 26 N -3.942479 -3.926647 -1.097330 0
M  V30 27 C -3.885963 -5.232194 -1.612700 0
M  V30 28 C -3.137750 -6.126474 -0.617592 0
M  V30 29 O -1.866626 -5.549167 -0.503902 0
M  V30 30 C -3.478490 -2.843448 -1.869623 0
M  V30 31 C -2.426563 -2.108696 -1.024524 0
M  V30 32 N -2.583168 -1.729860 2.671828 0
M  V30 33 H -3.448740 -1.829828 5.165834 0
M  V30 34 H -1.792680 -1.803737 5.852841 0
M  V30 35 H -2.498834 -0.259531 5.326139 0
M  V30 36 H 1.946166 -2.941497 2.560544 0
M  V30 37 H 5.340485 -0.201831 0.788089 0
M  V30 38 H 2.290418 3.333858 -0.364838 0
M  V30 39 H 4.182192 4.625487 1.517174 0
M  V30 40 H 3.833524 6.352509 1.290294 0
M  V30 41 H 5.550753 5.728461 1.445595 0
M  V30 42 H 5.843090 7.154737 -0.932230 0
M  V30 43 H -0.249417 -2.247047 0.443640 0
M  V30 44 H -4.822665 -1.539022 -0.209881 0
M  V30 45 H -4.641747 -2.079782 1.556168 0
M  V30 46 H -4.415870 -4.318836 0.881157 0
M  V30 47 H -5.814862 -3.717987 -0.168384 0
M  V30 48 H -4.907564 -5.696421 -1.722080 0
M  V30 49 H -3.384681 -5.290876 -2.606975 0
M  V30 50 H -3.700305 -6.141828 0.314823 0
M  V30 51 H -2.982606 -7.152749 -1.029742 0
M  V30 52 H -1.626061 -5.121931 -1.357272 0
M  V30 53 H -4.311163 -2.130989 -2.101356 0
M  V30 54 H -3.033304 -3.175078 -2.823689 0
M  V30 55 H -2.387913 -1.063417 -1.434152 0
M  V30 56 H -1.442308 -2.558485 -1.174523 0
M  V30 END ATOM
M  V30 BEGIN BOND
M  V30 1 1 1 2
M  V30 2 2 2 3
M  V30 3 1 3 4
M  V30 4 1 4 5
M  V30 5 1 5 6
M  V30 6 2 6 7
M  V30 7 1 7 8
M  V30 8 2 8 9
M  V30 9 1 9 10
M  V30 10 2 10 11
M  V30 11 1 10 12
M  V30 12 1 12 13
M  V30 13 1 13 14
M  V30 14 1 14 15
M  V30 15 2 14 16
M  V30 16 1 16 17
M  V30 17 1 17 18
M  V30 18 1 18 19
M  V30 19 1 9 20
M  V30 20 2 4 21
M  V30 21 1 21 22
M  V30 22 1 22 23
M  V30 23 1 23 24
M  V30 24 1 24 25
M  V30 25 1 25 26
M  V30 26 1 26 27
M  V30 27 1 27 28
M  V30 28 1 28 29
M  V30 29 1 26 30
M  V30 30 1 30 31
M  V30 31 2 22 32
M  V30 32 1 32 2
M  V30 33 1 20 6
M  V30 34 1 31 23
M  V30 35 2 18 13
M  V30 36 1 1 33
M  V30 37 1 1 34
M  V30 38 1 1 35
M  V30 39 1 5 36
M  V30 40 1 8 37
M  V30 41 1 12 38
M  V30 42 1 15 39
M  V30 43 1 15 40
M  V30 44 1 15 41
M  V30 45 1 16 42
M  V30 46 1 21 43
M  V30 47 1 24 44
M  V30 48 1 24 45
M  V30 49 1 25 46
M  V30 50 1 25 47
M  V30 51 1 27 48
M  V30 52 1 27 49
M  V30 53 1 28 50
M  V30 54 1 28 51
M  V30 55 1 29 52
M  V30 56 1 30 53
M  V30 57 1 30 54
M  V30 58 1 31 55
M  V30 59 1 31 56
M  V30 END BOND
M  V30 END CTAB
M  END
>  <Dataset>  (392) 
ChEMBL_Kinases

>  <Ligand_Instance>  (392) 
nan

>  <PDB_ID>  (392) 
nan

>  <Standardized_SMILES>  (392) 
Cc1nc(Nc2ncc(C(=O)Nc3c(C)csc3Cl)s2)cc(N2CCN(CCO)CC2)n1

>  <Name>  (392) 
nan

>  <Pocket>  (392) 
nan

>  <ATP_Site>  (392) 
nan

>  <Peripheral>  (392) 
nan

>  <Num_H_Atoms_ProtBoundConf>  (392) 
nan

>  <Num_Resolved_Atoms>  (392) 
nan

>  <Num_Not_Resolved_Atoms>  (392) 
nan

$$$$
CHEMBL4867426
     RDKit          3D

  0  0  0  0  0  0  0  0  0  0999 V3000
M  V30 BEGIN CTAB
M  V30 COUNTS 52 56 0 0 0
M  V30 BEGIN ATOM
M  V30 1 O 4.779578 -0.134366 -1.815985 0
M  V30 2 C 3.861149 0.097147 -0.987294 0
M  V30 3 N 3.939403 -0.102324 0.409788 0
M  V30 4 C 5.155133 -0.622292 1.056270 0
M  V30 5 C 4.894822 -1.854128 1.826134 0
M  V30 6 C 4.787669 -1.738758 3.291988 0
M  V30 7 O 5.399658 -0.633848 3.854294 0
M  V30 8 C 4.890433 0.487999 3.202406 0
M  V30 9 C 5.667865 0.535360 1.879717 0
M  V30 10 C 2.608458 0.616826 -1.521932 0
M  V30 11 C 1.468785 0.954555 -0.905311 0
M  V30 12 C 0.404112 1.428989 -1.627011 0
M  V30 13 N -0.861811 1.824192 -1.105888 0
M  V30 14 N -1.486723 2.988024 -1.166130 0
M  V30 15 C -2.683520 2.889198 -0.518594 0
M  V30 16 C -2.750331 1.576700 -0.054092 0
M  V30 17 C -3.743605 0.933339 0.667313 0
M  V30 18 C -3.597488 -0.393110 1.026954 0
M  V30 19 N -4.493032 -1.205087 1.753403 0
M  V30 20 C -4.987909 -2.378696 1.102789 0
M  V30 21 C -4.695442 -3.591440 1.734117 0
M  V30 22 C -5.166057 -4.744150 1.120135 0
M  V30 23 C -5.900391 -4.750053 -0.070014 0
M  V30 24 C -6.165160 -3.521961 -0.658404 0
M  V30 25 C -5.715342 -2.355569 -0.079922 0
M  V30 26 Cl -6.037800 -0.776302 -0.807299 0
M  V30 27 C -2.443601 -1.064537 0.653924 0
M  V30 28 F -2.182289 -2.366249 0.946271 0
M  V30 29 C -1.454389 -0.414464 -0.067588 0
M  V30 30 C -1.591756 0.912755 -0.431986 0
M  V30 31 C 0.629860 1.519780 -3.036790 0
M  V30 32 S 2.347108 0.921915 -3.239360 0
M  V30 33 H 3.116638 0.119073 1.037915 0
M  V30 34 H 5.880844 -0.784230 0.232432 0
M  V30 35 H 3.955347 -2.313840 1.422888 0
M  V30 36 H 5.685117 -2.619407 1.569507 0
M  V30 37 H 3.707725 -1.698318 3.622472 0
M  V30 38 H 5.206822 -2.635671 3.795592 0
M  V30 39 H 3.798945 0.356370 2.976774 0
M  V30 40 H 5.051799 1.405799 3.798202 0
M  V30 41 H 6.735641 0.433453 2.164436 0
M  V30 42 H 5.487413 1.506079 1.381093 0
M  V30 43 H 1.405605 0.845952 0.168641 0
M  V30 44 H -3.444903 3.655916 -0.378525 0
M  V30 45 H -4.657099 1.387007 0.988135 0
M  V30 46 H -4.802807 -0.987200 2.728509 0
M  V30 47 H -4.130520 -3.671624 2.660655 0
M  V30 48 H -4.949074 -5.692087 1.594753 0
M  V30 49 H -6.234114 -5.687477 -0.489843 0
M  V30 50 H -6.726863 -3.485184 -1.574111 0
M  V30 51 H -0.535649 -0.932669 -0.369968 0
M  V30 52 H -0.063916 1.862069 -3.777771 0
M  V30 END ATOM
M  V30 BEGIN BOND
M  V30 1 2 1 2
M  V30 2 1 2 3
M  V30 3 1 3 4
M  V30 4 1 4 5
M  V30 5 1 5 6
M  V30 6 1 6 7
M  V30 7 1 7 8
M  V30 8 1 8 9
M  V30 9 1 2 10
M  V30 10 2 10 11
M  V30 11 1 11 12
M  V30 12 1 12 13
M  V30 13 1 13 14
M  V30 14 2 14 15
M  V30 15 1 15 16
M  V30 16 2 16 17
M  V30 17 1 17 18
M  V30 18 1 18 19
M  V30 19 1 19 20
M  V30 20 2 20 21
M  V30 21 1 21 22
M  V30 22 2 22 23
M  V30 23 1 23 24
M  V30 24 2 24 25
M  V30 25 1 25 26
M  V30 26 2 18 27
M  V30 27 1 27 28
M  V30 28 1 27 29
M  V30 29 2 29 30
M  V30 30 2 12 31
M  V30 31 1 31 32
M  V30 32 1 9 4
M  V30 33 1 32 10
M  V30 34 1 30 13
M  V30 35 1 30 16
M  V30 36 1 25 20
M  V30 37 1 3 33
M  V30 38 1 4 34
M  V30 39 1 5 35
M  V30 40 1 5 36
M  V30 41 1 6 37
M  V30 42 1 6 38
M  V30 43 1 8 39
M  V30 44 1 8 40
M  V30 45 1 9 41
M  V30 46 1 9 42
M  V30 47 1 11 43
M  V30 48 1 15 44
M  V30 49 1 17 45
M  V30 50 1 19 46
M  V30 51 1 21 47
M  V30 52 1 22 48
M  V30 53 1 23 49
M  V30 54 1 24 50
M  V30 55 1 29 51
M  V30 56 1 31 52
M  V30 END BOND
M  V30 END CTAB
M  END
>  <Dataset>  (393) 
ChEMBL_Kinases

>  <Ligand_Instance>  (393) 
nan

>  <PDB_ID>  (393) 
nan

>  <Standardized_SMILES>  (393) 
O=C(NC1CCOCC1)c1cc(-n2ncc3cc(Nc4ccccc4Cl)c(F)cc32)cs1

>  <Name>  (393) 
nan

>  <Pocket>  (393) 
nan

>  <ATP_Site>  (393) 
nan

>  <Peripheral>  (393) 
nan

>  <Num_H_Atoms_ProtBoundConf>  (393) 
nan

>  <Num_Resolved_Atoms>  (393) 
nan

>  <Num_Not_Resolved_Atoms>  (393) 
nan

$$$$
CHEMBL3978766
     RDKit          3D

  0  0  0  0  0  0  0  0  0  0999 V3000
M  V30 BEGIN CTAB
M  V30 COUNTS 51 55 0 0 0
M  V30 BEGIN ATOM
M  V30 1 C -1.020616 -2.575579 4.304185 0
M  V30 2 C 0.279638 -3.142555 3.868642 0
M  V30 3 C 0.869108 -4.178938 4.598163 0
M  V30 4 N 2.044329 -4.761610 4.288029 0
M  V30 5 C 2.688611 -4.295931 3.184124 0
M  V30 6 C 2.126275 -3.283754 2.460215 0
M  V30 7 C 2.845998 -2.797222 1.267427 0
M  V30 8 C 2.329566 -1.774925 0.492553 0
M  V30 9 C 2.999105 -1.316721 -0.623364 0
M  V30 10 C 2.701724 -0.332978 -1.539091 0
M  V30 11 C 1.543551 0.553046 -1.604086 0
M  V30 12 C 1.464953 1.469536 -2.626878 0
M  V30 13 C 0.435309 2.363379 -2.810814 0
M  V30 14 C -0.575840 2.302315 -1.875126 0
M  V30 15 C -0.529756 1.390961 -0.830755 0
M  V30 16 N -1.586160 1.347796 0.121701 0
M  V30 17 C -1.556679 0.405855 1.224950 0
M  V30 18 C -2.633106 -0.624482 1.026071 0
M  V30 19 C -3.845547 -0.069215 0.320126 0
M  V30 20 N -4.461347 1.032609 0.987090 0
M  V30 21 C -3.716452 2.267205 0.941571 0
M  V30 22 C -2.652861 2.294456 -0.103438 0
M  V30 23 N 0.527813 0.552961 -0.736925 0
M  V30 24 N 3.740649 -0.358561 -2.394949 0
M  V30 25 N 4.609496 -1.286050 -2.033572 0
M  V30 26 C 4.198885 -1.935246 -0.911515 0
M  V30 27 C 4.724846 -2.958802 -0.143295 0
M  V30 28 N 4.030956 -3.375209 0.943750 0
M  V30 29 N 0.950486 -2.702376 2.772380 0
M  V30 30 H -1.109465 -2.646574 5.414304 0
M  V30 31 H -1.144882 -1.523797 3.998196 0
M  V30 32 H -1.866260 -3.185297 3.895337 0
M  V30 33 H 0.340994 -4.535315 5.472819 0
M  V30 34 H 3.622075 -4.779347 2.962147 0
M  V30 35 H 1.401466 -1.340660 0.767688 0
M  V30 36 H 2.271461 1.495961 -3.346861 0
M  V30 37 H 0.411094 3.073321 -3.634349 0
M  V30 38 H -1.400840 3.000270 -2.000884 0
M  V30 39 H -0.581378 -0.109142 1.284947 0
M  V30 40 H -1.672400 0.968033 2.173983 0
M  V30 41 H -2.985527 -0.920025 2.047816 0
M  V30 42 H -2.301623 -1.527761 0.517315 0
M  V30 43 H -3.641738 0.232210 -0.720424 0
M  V30 44 H -4.595056 -0.880960 0.265069 0
M  V30 45 H -5.386838 1.190262 0.526226 0
M  V30 46 H -3.183783 2.344686 1.934111 0
M  V30 47 H -4.376195 3.125103 0.832126 0
M  V30 48 H -2.193551 3.312914 -0.058541 0
M  V30 49 H -3.071316 2.213088 -1.135594 0
M  V30 50 H 5.511844 -1.505276 -2.542573 0
M  V30 51 H 5.666692 -3.338364 -0.495367 0
M  V30 END ATOM
M  V30 BEGIN BOND
M  V30 1 1 1 2
M  V30 2 2 2 3
M  V30 3 1 3 4
M  V30 4 2 4 5
M  V30 5 1 5 6
M  V30 6 1 6 7
M  V30 7 2 7 8
M  V30 8 1 8 9
M  V30 9 1 9 10
M  V30 10 1 10 11
M  V30 11 2 11 12
M  V30 12 1 12 13
M  V30 13 2 13 14
M  V30 14 1 14 15
M  V30 15 1 15 16
M  V30 16 1 16 17
M  V30 17 1 17 18
M  V30 18 1 18 19
M  V30 19 1 19 20
M  V30 20 1 20 21
M  V30 21 1 21 22
M  V30 22 2 15 23
M  V30 23 2 10 24
M  V30 24 1 24 25
M  V30 25 1 25 26
M  V30 26 1 26 27
M  V30 27 2 27 28
M  V30 28 2 6 29
M  V30 29 1 29 2
M  V30 30 1 28 7
M  V30 31 2 26 9
M  V30 32 1 23 11
M  V30 33 1 22 16
M  V30 34 1 1 30
M  V30 35 1 1 31
M  V30 36 1 1 32
M  V30 37 1 3 33
M  V30 38 1 5 34
M  V30 39 1 8 35
M  V30 40 1 12 36
M  V30 41 1 13 37
M  V30 42 1 14 38
M  V30 43 1 17 39
M  V30 44 1 17 40
M  V30 45 1 18 41
M  V30 46 1 18 42
M  V30 47 1 19 43
M  V30 48 1 19 44
M  V30 49 1 20 45
M  V30 50 1 21 46
M  V30 51 1 21 47
M  V30 52 1 22 48
M  V30 53 1 22 49
M  V30 54 1 25 50
M  V30 55 1 27 51
M  V30 END BOND
M  V30 END CTAB
M  END
>  <Dataset>  (394) 
ChEMBL_Kinases

>  <Ligand_Instance>  (394) 
nan

>  <PDB_ID>  (394) 
nan

>  <Standardized_SMILES>  (394) 
Cc1cncc(-c2cc3c(-c4cccc(N5CCCNCC5)n4)n[nH]c3cn2)n1

>  <Name>  (394) 
nan

>  <Pocket>  (394) 
nan

>  <ATP_Site>  (394) 
nan

>  <Peripheral>  (394) 
nan

>  <Num_H_Atoms_ProtBoundConf>  (394) 
nan

>  <Num_Resolved_Atoms>  (394) 
nan

>  <Num_Not_Resolved_Atoms>  (394) 
nan

$$$$
CHEMBL3646210
     RDKit          3D

  0  0  0  0  0  0  0  0  0  0999 V3000
M  V30 BEGIN CTAB
M  V30 COUNTS 62 66 0 0 0
M  V30 BEGIN ATOM
M  V30 1 C 6.557143 1.141454 6.909959 0
M  V30 2 C 6.685428 1.460421 5.452251 0
M  V30 3 C 7.767984 0.911890 4.801855 0
M  V30 4 C 7.895403 1.201045 3.453279 0
M  V30 5 C 6.997679 1.997034 2.765969 0
M  V30 6 C 5.919399 2.534307 3.446527 0
M  V30 7 N 4.950319 3.371798 2.783039 0
M  V30 8 C 3.807907 2.770193 2.184607 0
M  V30 9 O 3.765912 1.522005 2.304402 0
M  V30 10 N 2.782521 3.492059 1.501552 0
M  V30 11 C 1.728342 2.681192 0.978829 0
M  V30 12 C 1.862260 2.192290 -0.304611 0
M  V30 13 C 0.813770 1.422404 -0.740694 0
M  V30 14 C -0.328737 1.102285 -0.032540 0
M  V30 15 C -1.370546 0.295249 -0.610083 0
M  V30 16 C -1.852701 0.805832 -1.821831 0
M  V30 17 S -3.219672 -0.422243 -2.309427 0
M  V30 18 C -2.998140 -1.405874 -0.929166 0
M  V30 19 C -3.616247 -2.562974 -0.501317 0
M  V30 20 C -4.681128 -3.072689 -1.369015 0
M  V30 21 C -5.858799 -3.490821 -0.798350 0
M  V30 22 N -6.647657 -3.904100 -1.818215 0
M  V30 23 N -5.980780 -3.746019 -2.969671 0
M  V30 24 C -6.501356 -4.079010 -4.281465 0
M  V30 25 C -6.203706 -5.480152 -4.690551 0 CFG=2
M  V30 26 C -6.789515 -6.505936 -3.744165 0
M  V30 27 O -4.864637 -5.660237 -4.954960 0
M  V30 28 C -4.755712 -3.233215 -2.743832 0
M  V30 29 C -3.296288 -3.239004 0.656772 0
M  V30 30 N -2.302964 -2.631161 1.323026 0
M  V30 31 C -1.669401 -1.512823 0.958149 0
M  V30 32 N -0.675885 -1.215032 1.932036 0
M  V30 33 C -1.999971 -0.846852 -0.201326 0
M  V30 34 C -0.360768 1.641581 1.236078 0
M  V30 35 C 0.639137 2.432337 1.781442 0
M  V30 36 C 5.758781 2.263252 4.810441 0
M  V30 37 H 5.990024 0.195841 7.072284 0
M  V30 38 H 7.555740 1.044898 7.362502 0
M  V30 39 H 6.014238 1.931952 7.468922 0
M  V30 40 H 8.518628 0.278595 5.261323 0
M  V30 41 H 8.757900 0.767694 2.921961 0
M  V30 42 H 7.118358 2.212900 1.697139 0
M  V30 43 H 5.045862 4.426360 2.717145 0
M  V30 44 H 2.871106 4.521801 1.434491 0
M  V30 45 H 2.705993 2.372086 -0.956398 0
M  V30 46 H 0.891566 1.017346 -1.762366 0
M  V30 47 H -1.608423 1.674507 -2.449992 0
M  V30 48 H -6.175335 -3.520344 0.227896 0
M  V30 49 H -7.591590 -3.879859 -4.263100 0
M  V30 50 H -6.063061 -3.414862 -5.066670 0
M  V30 51 H -6.733231 -5.645825 -5.663161 0
M  V30 52 H -6.454023 -7.532196 -3.987330 0
M  V30 53 H -7.877873 -6.451400 -3.799574 0
M  V30 54 H -6.372890 -6.308671 -2.719759 0
M  V30 55 H -4.492754 -6.450829 -4.482749 0
M  V30 56 H -3.956935 -2.975214 -3.399198 0
M  V30 57 H -3.829570 -4.123224 0.902727 0
M  V30 58 H -0.724371 -0.858746 2.910692 0
M  V30 59 H 0.371861 -1.321630 1.795080 0
M  V30 60 H -1.208741 1.470263 1.877933 0
M  V30 61 H 0.570014 2.834103 2.784777 0
M  V30 62 H 4.918949 2.681730 5.340139 0
M  V30 END ATOM
M  V30 BEGIN BOND
M  V30 1 1 1 2
M  V30 2 2 2 3
M  V30 3 1 3 4
M  V30 4 2 4 5
M  V30 5 1 5 6
M  V30 6 1 6 7
M  V30 7 1 7 8
M  V30 8 2 8 9
M  V30 9 1 8 10
M  V30 10 1 10 11
M  V30 11 2 11 12
M  V30 12 1 12 13
M  V30 13 2 13 14
M  V30 14 1 14 15
M  V30 15 2 15 16
M  V30 16 1 16 17
M  V30 17 1 17 18
M  V30 18 2 18 19
M  V30 19 1 19 20
M  V30 20 1 20 21
M  V30 21 2 21 22
M  V30 22 1 22 23
M  V30 23 1 23 24
M  V30 24 1 24 25
M  V30 25 1 25 26
M  V30 26 1 25 27
M  V30 27 1 23 28
M  V30 28 1 19 29
M  V30 29 2 29 30
M  V30 30 1 30 31
M  V30 31 1 31 32
M  V30 32 2 31 33
M  V30 33 1 14 34
M  V30 34 2 34 35
M  V30 35 2 6 36
M  V30 36 1 36 2
M  V30 37 1 35 11
M  V30 38 1 33 15
M  V30 39 1 33 18
M  V30 40 2 28 20
M  V30 41 1 1 37
M  V30 42 1 1 38
M  V30 43 1 1 39
M  V30 44 1 3 40
M  V30 45 1 4 41
M  V30 46 1 5 42
M  V30 47 1 7 43
M  V30 48 1 10 44
M  V30 49 1 12 45
M  V30 50 1 13 46
M  V30 51 1 16 47
M  V30 52 1 21 48
M  V30 53 1 24 49
M  V30 54 1 24 50
M  V30 55 1 25 51 CFG=3
M  V30 56 1 26 52
M  V30 57 1 26 53
M  V30 58 1 26 54
M  V30 59 1 27 55
M  V30 60 1 28 56
M  V30 61 1 29 57
M  V30 62 1 32 58
M  V30 63 1 32 59
M  V30 64 1 34 60
M  V30 65 1 35 61
M  V30 66 1 36 62
M  V30 END BOND
M  V30 END CTAB
M  END
>  <Dataset>  (395) 
ChEMBL_Kinases

>  <Ligand_Instance>  (395) 
nan

>  <PDB_ID>  (395) 
nan

>  <Standardized_SMILES>  (395) 
Cc1cccc(NC(=O)Nc2ccc(-c3csc4c(-c5cnn(C[C@H](C)O)c5)cnc(N)c34)cc2)c1

>  <Name>  (395) 
nan

>  <Pocket>  (395) 
nan

>  <ATP_Site>  (395) 
nan

>  <Peripheral>  (395) 
nan

>  <Num_H_Atoms_ProtBoundConf>  (395) 
nan

>  <Num_Resolved_Atoms>  (395) 
nan

>  <Num_Not_Resolved_Atoms>  (395) 
nan

$$$$
CHEMBL364587
     RDKit          3D

  0  0  0  0  0  0  0  0  0  0999 V3000
M  V30 BEGIN CTAB
M  V30 COUNTS 46 49 0 0 0
M  V30 BEGIN ATOM
M  V30 1 C 0.465673 -5.413415 2.094872 0
M  V30 2 C -0.601095 -4.631511 1.324920 0
M  V30 3 C -1.906463 -5.282841 1.605952 0
M  V30 4 C -0.250386 -4.768224 -0.136377 0
M  V30 5 C -0.482791 -3.234177 1.816566 0
M  V30 6 C 0.414718 -2.373659 1.186407 0
M  V30 7 C 0.547417 -1.072353 1.622832 0
M  V30 8 C -0.170687 -0.548643 2.672830 0
M  V30 9 N -0.053503 0.790779 3.131821 0
M  V30 10 C 0.880961 1.742204 2.635269 0
M  V30 11 N 1.862388 2.243501 3.425908 0
M  V30 12 C 2.736265 3.131570 2.918270 0
M  V30 13 C 2.663765 3.557951 1.590220 0
M  V30 14 C 1.657028 3.035939 0.800841 0
M  V30 15 C 1.529176 3.430880 -0.596359 0
M  V30 16 C 2.295435 4.303501 -1.351762 0
M  V30 17 N 1.790578 4.350456 -2.615160 0
M  V30 18 N 0.734490 3.537137 -2.676904 0
M  V30 19 N -0.055711 3.273230 -3.696148 0
M  V30 20 C -1.098250 2.432547 -3.648058 0
M  V30 21 C -1.307964 1.824967 -2.397978 0
M  V30 22 C -0.488696 2.091704 -1.321326 0
M  V30 23 C 0.560784 2.974243 -1.471883 0
M  V30 24 N 0.817538 2.155142 1.363321 0
M  V30 25 C -1.055690 -1.395815 3.294619 0
M  V30 26 C -1.189672 -2.699222 2.859496 0
M  V30 27 H 0.727544 -6.284946 1.470059 0
M  V30 28 H 1.379163 -4.759928 2.096754 0
M  V30 29 H 0.102171 -5.640870 3.101655 0
M  V30 30 H -2.689650 -4.953249 0.914840 0
M  V30 31 H -1.799549 -6.391047 1.418395 0
M  V30 32 H -2.266990 -5.193391 2.650351 0
M  V30 33 H 0.838325 -5.007440 -0.274863 0
M  V30 34 H -0.783838 -5.666353 -0.563460 0
M  V30 35 H -0.462667 -3.897369 -0.752814 0
M  V30 36 H 1.016904 -2.707713 0.354895 0
M  V30 37 H 1.249148 -0.388533 1.139606 0
M  V30 38 H -0.673696 1.145887 3.884799 0
M  V30 39 H 3.524233 3.534211 3.562758 0
M  V30 40 H 3.377516 4.269299 1.216855 0
M  V30 41 H 3.145537 4.828196 -0.930616 0
M  V30 42 H -1.674741 2.296321 -4.549212 0
M  V30 43 H -2.170088 1.138889 -2.379696 0
M  V30 44 H -0.705311 1.588588 -0.387171 0
M  V30 45 H -1.648613 -1.069629 4.116418 0
M  V30 46 H -1.892410 -3.343282 3.366157 0
M  V30 END ATOM
M  V30 BEGIN BOND
M  V30 1 1 1 2
M  V30 2 1 2 3
M  V30 3 1 2 4
M  V30 4 1 2 5
M  V30 5 2 5 6
M  V30 6 1 6 7
M  V30 7 2 7 8
M  V30 8 1 8 9
M  V30 9 1 9 10
M  V30 10 2 10 11
M  V30 11 1 11 12
M  V30 12 2 12 13
M  V30 13 1 13 14
M  V30 14 1 14 15
M  V30 15 1 15 16
M  V30 16 2 16 17
M  V30 17 1 17 18
M  V30 18 1 18 19
M  V30 19 2 19 20
M  V30 20 1 20 21
M  V30 21 2 21 22
M  V30 22 1 22 23
M  V30 23 2 14 24
M  V30 24 1 8 25
M  V30 25 2 25 26
M  V30 26 1 26 5
M  V30 27 1 24 10
M  V30 28 2 23 15
M  V30 29 1 23 18
M  V30 30 1 1 27
M  V30 31 1 1 28
M  V30 32 1 1 29
M  V30 33 1 3 30
M  V30 34 1 3 31
M  V30 35 1 3 32
M  V30 36 1 4 33
M  V30 37 1 4 34
M  V30 38 1 4 35
M  V30 39 1 6 36
M  V30 40 1 7 37
M  V30 41 1 9 38
M  V30 42 1 12 39
M  V30 43 1 13 40
M  V30 44 1 16 41
M  V30 45 1 20 42
M  V30 46 1 21 43
M  V30 47 1 22 44
M  V30 48 1 25 45
M  V30 49 1 26 46
M  V30 END BOND
M  V30 END CTAB
M  END
>  <Dataset>  (396) 
ChEMBL_Kinases

>  <Ligand_Instance>  (396) 
nan

>  <PDB_ID>  (396) 
nan

>  <Standardized_SMILES>  (396) 
CC(C)(C)c1ccc(Nc2nccc(-c3cnn4ncccc34)n2)cc1

>  <Name>  (396) 
nan

>  <Pocket>  (396) 
nan

>  <ATP_Site>  (396) 
nan

>  <Peripheral>  (396) 
nan

>  <Num_H_Atoms_ProtBoundConf>  (396) 
nan

>  <Num_Resolved_Atoms>  (396) 
nan

>  <Num_Not_Resolved_Atoms>  (396) 
nan

$$$$
CHEMBL3979678
     RDKit          3D

  0  0  0  0  0  0  0  0  0  0999 V3000
M  V30 BEGIN CTAB
M  V30 COUNTS 50 53 0 0 0
M  V30 BEGIN ATOM
M  V30 1 C 1.194778 -4.943001 0.062585 0
M  V30 2 C 2.433057 -4.344453 0.688632 0 CFG=1
M  V30 3 N 3.649419 -4.904101 0.143134 0
M  V30 4 C 4.419197 -3.911051 -0.534898 0
M  V30 5 O 5.526881 -4.081791 -1.115388 0
M  V30 6 C 3.634342 -2.688889 -0.395616 0
M  V30 7 C 3.624804 -1.349254 -0.721180 0
M  V30 8 C 2.483925 -0.751031 -0.227628 0
M  V30 9 C 2.195367 0.662918 -0.414693 0
M  V30 10 C 3.039756 1.510829 -1.098800 0
M  V30 11 C 2.790986 2.851841 -1.290192 0
M  V30 12 C 1.641614 3.416678 -0.783597 0
M  V30 13 C 0.754767 2.621580 -0.088669 0
M  V30 14 C -0.400619 3.176743 0.423696 0
M  V30 15 O -0.640148 4.398692 0.256526 0
M  V30 16 N -1.269849 2.406440 1.102592 0
M  V30 17 C -2.502179 2.921711 1.668088 0
M  V30 18 C -0.980107 1.102156 1.261871 0
M  V30 19 N -1.811619 0.180640 1.956878 0
M  V30 20 C -2.901774 -0.736985 1.732179 0
M  V30 21 C -3.288753 -1.412497 3.019792 0
M  V30 22 C -4.107318 -0.016041 1.194637 0
M  V30 23 C -2.536735 -1.827319 0.750401 0
M  V30 24 N 0.151595 0.581925 0.754196 0
M  V30 25 C 1.065533 1.287308 0.066205 0
M  V30 26 N 1.836752 -1.738057 0.379987 0
M  V30 27 C 2.486017 -2.911434 0.304869 0
M  V30 28 H 1.140900 -6.002837 0.411375 0
M  V30 29 H 0.331993 -4.356285 0.424291 0
M  V30 30 H 1.262264 -4.858957 -1.033152 0
M  V30 31 H 2.330874 -4.487611 1.777291 0
M  V30 32 H 3.879179 -5.924612 0.266078 0
M  V30 33 H 4.415549 -0.857558 -1.287147 0
M  V30 34 H 3.966418 1.124597 -1.524317 0
M  V30 35 H 3.498011 3.463423 -1.838702 0
M  V30 36 H 1.426032 4.460994 -0.920368 0
M  V30 37 H -2.860456 2.266286 2.477922 0
M  V30 38 H -3.229939 3.045193 0.832163 0
M  V30 39 H -2.308595 3.968506 2.042018 0
M  V30 40 H -1.409915 0.293597 2.920044 0
M  V30 41 H -2.714845 -2.363320 3.182319 0
M  V30 42 H -3.238946 -0.731937 3.893507 0
M  V30 43 H -4.352837 -1.720227 2.929262 0
M  V30 44 H -3.801615 0.664355 0.393173 0
M  V30 45 H -4.590672 0.532783 2.039144 0
M  V30 46 H -4.869122 -0.718224 0.828000 0
M  V30 47 H -1.937497 -1.392425 -0.101209 0
M  V30 48 H -2.008491 -2.665024 1.232859 0
M  V30 49 H -3.439365 -2.248578 0.260340 0
M  V30 50 H 0.922908 -1.637136 0.868767 0
M  V30 END ATOM
M  V30 BEGIN BOND
M  V30 1 1 1 2
M  V30 2 1 2 3
M  V30 3 1 3 4
M  V30 4 2 4 5
M  V30 5 1 4 6
M  V30 6 1 6 7
M  V30 7 2 7 8
M  V30 8 1 8 9
M  V30 9 2 9 10
M  V30 10 1 10 11
M  V30 11 2 11 12
M  V30 12 1 12 13
M  V30 13 1 13 14
M  V30 14 2 14 15
M  V30 15 1 14 16
M  V30 16 1 16 17
M  V30 17 1 16 18
M  V30 18 1 18 19
M  V30 19 1 19 20
M  V30 20 1 20 21
M  V30 21 1 20 22
M  V30 22 1 20 23
M  V30 23 2 18 24
M  V30 24 1 24 25
M  V30 25 1 8 26
M  V30 26 1 26 27
M  V30 27 1 27 2
M  V30 28 2 27 6
M  V30 29 1 25 9
M  V30 30 2 25 13
M  V30 31 1 1 28
M  V30 32 1 1 29
M  V30 33 1 1 30
M  V30 34 1 2 31 CFG=1
M  V30 35 1 3 32
M  V30 36 1 7 33
M  V30 37 1 10 34
M  V30 38 1 11 35
M  V30 39 1 12 36
M  V30 40 1 17 37
M  V30 41 1 17 38
M  V30 42 1 17 39
M  V30 43 1 19 40
M  V30 44 1 21 41
M  V30 45 1 21 42
M  V30 46 1 21 43
M  V30 47 1 22 44
M  V30 48 1 22 45
M  V30 49 1 22 46
M  V30 50 1 23 47
M  V30 51 1 23 48
M  V30 52 1 23 49
M  V30 53 1 26 50
M  V30 END BOND
M  V30 END CTAB
M  END
>  <Dataset>  (397) 
ChEMBL_Kinases

>  <Ligand_Instance>  (397) 
nan

>  <PDB_ID>  (397) 
nan

>  <Standardized_SMILES>  (397) 
C[C@H]1NC(=O)c2cc(-c3cccc4c(=O)n(C)c(NC(C)(C)C)nc34)[nH]c21

>  <Name>  (397) 
nan

>  <Pocket>  (397) 
nan

>  <ATP_Site>  (397) 
nan

>  <Peripheral>  (397) 
nan

>  <Num_H_Atoms_ProtBoundConf>  (397) 
nan

>  <Num_Resolved_Atoms>  (397) 
nan

>  <Num_Not_Resolved_Atoms>  (397) 
nan

$$$$
CHEMBL396377
     RDKit          3D

  0  0  0  0  0  0  0  0  0  0999 V3000
M  V30 BEGIN CTAB
M  V30 COUNTS 27 29 0 0 0
M  V30 BEGIN ATOM
M  V30 1 N 1.071884 -4.062998 3.375856 0
M  V30 2 C 2.092324 -3.265545 2.818081 0
M  V30 3 N 3.325458 -2.987539 2.769889 0
M  V30 4 C 3.692485 -1.966489 1.903879 0
M  V30 5 O 4.866170 -1.535969 1.704461 0
M  V30 6 C 2.606587 -1.315772 1.135277 0
M  V30 7 C 2.550238 -0.355455 0.233071 0
M  V30 8 C 1.257121 0.039434 -0.321455 0
M  V30 9 C 0.924394 0.259681 -1.642325 0
M  V30 10 C -0.313876 0.653824 -2.048998 0
M  V30 11 C -1.280195 0.839889 -1.075215 0
M  V30 12 N -2.495394 1.238625 -1.531060 0
M  V30 13 C -3.497454 1.450882 -0.644278 0
M  V30 14 C -3.294084 1.267857 0.691549 0
M  V30 15 C -2.042572 0.857446 1.151070 0
M  V30 16 C -1.007994 0.635008 0.268592 0
M  V30 17 C 0.274734 0.228904 0.662697 0
M  V30 18 S 1.140003 -2.225011 1.715303 0
M  V30 19 H 0.705194 -4.977335 2.979247 0
M  V30 20 H 0.531321 -3.875893 4.254144 0
M  V30 21 H 3.549703 0.050560 0.002374 0
M  V30 22 H 1.746638 0.088952 -2.328356 0
M  V30 23 H -0.489079 0.801287 -3.107593 0
M  V30 24 H -4.509280 1.777173 -0.921889 0
M  V30 25 H -4.018863 1.406623 1.482936 0
M  V30 26 H -1.855635 0.702938 2.221853 0
M  V30 27 H 0.315830 0.124563 1.729128 0
M  V30 END ATOM
M  V30 BEGIN BOND
M  V30 1 1 1 2
M  V30 2 2 2 3
M  V30 3 1 3 4
M  V30 4 2 4 5
M  V30 5 1 4 6
M  V30 6 2 6 7
M  V30 7 1 7 8
M  V30 8 2 8 9
M  V30 9 1 9 10
M  V30 10 2 10 11
M  V30 11 1 11 12
M  V30 12 2 12 13
M  V30 13 1 13 14
M  V30 14 2 14 15
M  V30 15 1 15 16
M  V30 16 2 16 17
M  V30 17 1 6 18
M  V30 18 1 18 2
M  V30 19 1 17 8
M  V30 20 1 16 11
M  V30 21 1 1 19
M  V30 22 1 1 20
M  V30 23 1 7 21
M  V30 24 1 9 22
M  V30 25 1 10 23
M  V30 26 1 13 24
M  V30 27 1 14 25
M  V30 28 1 15 26
M  V30 29 1 17 27
M  V30 END BOND
M  V30 END CTAB
M  END
>  <Dataset>  (398) 
ChEMBL_Kinases

>  <Ligand_Instance>  (398) 
nan

>  <PDB_ID>  (398) 
nan

>  <Standardized_SMILES>  (398) 
NC1=NC(=O)/C(=C/c2ccc3ncccc3c2)S1

>  <Name>  (398) 
nan

>  <Pocket>  (398) 
nan

>  <ATP_Site>  (398) 
nan

>  <Peripheral>  (398) 
nan

>  <Num_H_Atoms_ProtBoundConf>  (398) 
nan

>  <Num_Resolved_Atoms>  (398) 
nan

>  <Num_Not_Resolved_Atoms>  (398) 
nan

$$$$
CHEMBL3639742
     RDKit          3D

  0  0  0  0  0  0  0  0  0  0999 V3000
M  V30 BEGIN CTAB
M  V30 COUNTS 35 37 0 0 0
M  V30 BEGIN ATOM
M  V30 1 N 1.371813 -2.792181 4.867465 0
M  V30 2 C 2.558795 -2.325361 4.263342 0
M  V30 3 O 3.577233 -2.412136 4.967121 0
M  V30 4 C 2.595377 -1.782275 2.918449 0
M  V30 5 C 3.845987 -1.350514 2.457273 0
M  V30 6 C 3.810475 -0.841196 1.164138 0
M  V30 7 C 2.646710 -0.779489 0.432930 0
M  V30 8 C 1.454398 -1.217689 0.938784 0
M  V30 9 C 0.299990 -1.153529 0.196383 0
M  V30 10 N 0.235540 -0.653591 -1.109786 0
M  V30 11 C -0.704169 -0.414696 -2.179768 0
M  V30 12 C -1.721591 0.600454 -1.808549 0
M  V30 13 C -1.412603 1.908579 -2.215373 0
M  V30 14 C -2.178549 3.023911 -1.959835 0
M  V30 15 C -3.350719 2.881761 -1.249223 0
M  V30 16 F -4.200379 3.882182 -0.925387 0
M  V30 17 C -3.684553 1.609220 -0.834356 0
M  V30 18 C -2.899470 0.511771 -1.105022 0
M  V30 19 F -3.256335 -0.723684 -0.720749 0
M  V30 20 N -0.820643 -1.597134 0.742282 0
M  V30 21 C -0.848272 -2.096345 1.979064 0
M  V30 22 N 0.270808 -2.166610 2.719101 0
M  V30 23 C 1.417813 -1.731450 2.206858 0
M  V30 24 H 1.303937 -3.245425 5.800384 0
M  V30 25 H 0.355601 -2.979844 4.939718 0
M  V30 26 H 4.688769 -1.443021 3.105403 0
M  V30 27 H 4.778148 -0.502225 0.791467 0
M  V30 28 H 2.781582 -0.367031 -0.531703 0
M  V30 29 H 1.159191 -0.331225 -1.468242 0
M  V30 30 H -0.204548 -0.081490 -3.089920 0
M  V30 31 H -1.248848 -1.376618 -2.437303 0
M  V30 32 H -0.510689 2.130145 -2.781468 0
M  V30 33 H -1.903918 4.014470 -2.292067 0
M  V30 34 H -4.591230 1.418388 -0.271182 0
M  V30 35 H -1.721485 -2.487580 2.519059 0
M  V30 END ATOM
M  V30 BEGIN BOND
M  V30 1 1 1 2
M  V30 2 2 2 3
M  V30 3 1 2 4
M  V30 4 2 4 5
M  V30 5 1 5 6
M  V30 6 2 6 7
M  V30 7 1 7 8
M  V30 8 2 8 9
M  V30 9 1 9 10
M  V30 10 1 10 11
M  V30 11 1 11 12
M  V30 12 2 12 13
M  V30 13 1 13 14
M  V30 14 2 14 15
M  V30 15 1 15 16
M  V30 16 1 15 17
M  V30 17 2 17 18
M  V30 18 1 18 19
M  V30 19 1 9 20
M  V30 20 2 20 21
M  V30 21 1 21 22
M  V30 22 2 22 23
M  V30 23 1 23 4
M  V30 24 1 23 8
M  V30 25 1 18 12
M  V30 26 1 1 24
M  V30 27 1 1 25
M  V30 28 1 5 26
M  V30 29 1 6 27
M  V30 30 1 7 28
M  V30 31 1 10 29
M  V30 32 1 11 30
M  V30 33 1 11 31
M  V30 34 1 13 32
M  V30 35 1 14 33
M  V30 36 1 17 34
M  V30 37 1 21 35
M  V30 END BOND
M  V30 END CTAB
M  END
>  <Dataset>  (399) 
ChEMBL_Kinases

>  <Ligand_Instance>  (399) 
nan

>  <PDB_ID>  (399) 
nan

>  <Standardized_SMILES>  (399) 
NC(=O)c1cccc2c(NCc3ccc(F)cc3F)ncnc12

>  <Name>  (399) 
nan

>  <Pocket>  (399) 
nan

>  <ATP_Site>  (399) 
nan

>  <Peripheral>  (399) 
nan

>  <Num_H_Atoms_ProtBoundConf>  (399) 
nan

>  <Num_Resolved_Atoms>  (399) 
nan

>  <Num_Not_Resolved_Atoms>  (399) 
nan

$$$$
CHEMBL3639693
     RDKit          3D

  0  0  0  0  0  0  0  0  0  0999 V3000
M  V30 BEGIN CTAB
M  V30 COUNTS 56 59 0 0 0
M  V30 BEGIN ATOM
M  V30 1 C 2.838641 -3.914380 2.214742 0
M  V30 2 N 3.922007 -3.975606 1.250305 0
M  V30 3 C 4.800227 -5.130246 1.208799 0
M  V30 4 C 4.101860 -2.884826 0.352452 0
M  V30 5 C 3.245461 -1.806019 0.423787 0
M  V30 6 C 3.441292 -0.762822 -0.456971 0
M  V30 7 C 2.508970 0.357736 -0.342871 0
M  V30 8 O 1.595650 0.320804 0.533160 0
M  V30 9 N 2.498954 1.534945 -1.126575 0
M  V30 10 C 1.406534 2.359621 -0.663779 0
M  V30 11 C 1.569542 3.289720 0.330572 0
M  V30 12 C 0.477874 4.038777 0.718941 0
M  V30 13 C -0.736411 3.801397 0.070023 0
M  V30 14 C -0.915425 2.868584 -0.932060 0
M  V30 15 C -2.299468 2.817680 -1.472741 0
M  V30 16 N -3.094584 1.958984 -0.618669 0
M  V30 17 C -2.902732 0.586275 -0.371470 0
M  V30 18 N -1.920623 -0.101283 -0.935842 0
M  V30 19 C -1.724134 -1.407282 -0.717818 0
M  V30 20 N -2.520392 -2.135446 0.103903 0
M  V30 21 C -3.529676 -1.494627 0.702526 0
M  V30 22 C -4.345792 -2.198588 1.533158 0
M  V30 23 C -4.106010 -3.611744 1.747816 0
M  V30 24 N -4.900526 -4.430214 2.594306 0
M  V30 25 O -3.157568 -4.183092 1.175864 0
M  V30 26 C -5.410797 -1.616520 2.192014 0
M  V30 27 C -5.607603 -0.266346 1.961736 0
M  V30 28 C -4.772404 0.421289 1.120929 0
M  V30 29 C -3.708852 -0.150469 0.460286 0
M  V30 30 C 0.197356 2.141891 -1.291525 0
M  V30 31 C 4.443060 -0.736193 -1.403971 0
M  V30 32 C 5.275805 -1.861388 -1.422250 0
M  V30 33 N 5.085943 -2.880019 -0.563471 0
M  V30 34 H 1.903932 -4.065238 1.623425 0
M  V30 35 H 2.883722 -4.743130 2.936147 0
M  V30 36 H 2.822014 -2.968238 2.791609 0
M  V30 37 H 4.170800 -5.965404 0.789156 0
M  V30 38 H 5.719132 -4.947973 0.651423 0
M  V30 39 H 5.102091 -5.485284 2.222634 0
M  V30 40 H 2.467208 -1.812000 1.149740 0
M  V30 41 H 3.253617 1.599886 -1.873960 0
M  V30 42 H 2.550352 3.409443 0.782273 0
M  V30 43 H 0.592170 4.772995 1.498776 0
M  V30 44 H -1.533915 4.436821 0.442721 0
M  V30 45 H -2.759972 3.825825 -1.469804 0
M  V30 46 H -2.310821 2.383886 -2.504640 0
M  V30 47 H -3.891219 2.436718 -0.146455 0
M  V30 48 H -0.910703 -1.941589 -1.195274 0
M  V30 49 H -4.501613 -5.243118 3.119042 0
M  V30 50 H -5.886928 -4.512886 2.920884 0
M  V30 51 H -6.024707 -2.218785 2.837514 0
M  V30 52 H -6.445987 0.172826 2.485899 0
M  V30 53 H -5.033748 1.453907 1.030595 0
M  V30 54 H 0.035560 1.426056 -2.085337 0
M  V30 55 H 4.592325 0.079805 -2.089321 0
M  V30 56 H 6.074017 -1.850977 -2.169508 0
M  V30 END ATOM
M  V30 BEGIN BOND
M  V30 1 1 1 2
M  V30 2 1 2 3
M  V30 3 1 2 4
M  V30 4 2 4 5
M  V30 5 1 5 6
M  V30 6 1 6 7
M  V30 7 2 7 8
M  V30 8 1 7 9
M  V30 9 1 9 10
M  V30 10 2 10 11
M  V30 11 1 11 12
M  V30 12 2 12 13
M  V30 13 1 13 14
M  V30 14 1 14 15
M  V30 15 1 15 16
M  V30 16 1 16 17
M  V30 17 2 17 18
M  V30 18 1 18 19
M  V30 19 2 19 20
M  V30 20 1 20 21
M  V30 21 2 21 22
M  V30 22 1 22 23
M  V30 23 1 23 24
M  V30 24 2 23 25
M  V30 25 1 22 26
M  V30 26 2 26 27
M  V30 27 1 27 28
M  V30 28 2 28 29
M  V30 29 2 14 30
M  V30 30 2 6 31
M  V30 31 1 31 32
M  V30 32 2 32 33
M  V30 33 1 33 4
M  V30 34 1 30 10
M  V30 35 1 29 17
M  V30 36 1 29 21
M  V30 37 1 1 34
M  V30 38 1 1 35
M  V30 39 1 1 36
M  V30 40 1 3 37
M  V30 41 1 3 38
M  V30 42 1 3 39
M  V30 43 1 5 40
M  V30 44 1 9 41
M  V30 45 1 11 42
M  V30 46 1 12 43
M  V30 47 1 13 44
M  V30 48 1 15 45
M  V30 49 1 15 46
M  V30 50 1 16 47
M  V30 51 1 19 48
M  V30 52 1 24 49
M  V30 53 1 24 50
M  V30 54 1 26 51
M  V30 55 1 27 52
M  V30 56 1 28 53
M  V30 57 1 30 54
M  V30 58 1 31 55
M  V30 59 1 32 56
M  V30 END BOND
M  V30 END CTAB
M  END
>  <Dataset>  (400) 
ChEMBL_Kinases

>  <Ligand_Instance>  (400) 
nan

>  <PDB_ID>  (400) 
nan

>  <Standardized_SMILES>  (400) 
CN(C)c1cc(C(=O)Nc2cccc(CNc3ncnc4c(C(N)=O)cccc34)c2)ccn1

>  <Name>  (400) 
nan

>  <Pocket>  (400) 
nan

>  <ATP_Site>  (400) 
nan

>  <Peripheral>  (400) 
nan

>  <Num_H_Atoms_ProtBoundConf>  (400) 
nan

>  <Num_Resolved_Atoms>  (400) 
nan

>  <Num_Not_Resolved_Atoms>  (400) 
nan

$$$$
CHEMBL4859689
     RDKit          3D

  0  0  0  0  0  0  0  0  0  0999 V3000
M  V30 BEGIN CTAB
M  V30 COUNTS 62 65 0 0 0
M  V30 BEGIN ATOM
M  V30 1 C 4.841944 -4.495217 4.145287 0
M  V30 2 C 3.646072 -3.662826 3.809657 0
M  V30 3 N 3.591273 -2.333950 3.956648 0
M  V30 4 C 2.483830 -1.603219 3.635839 0
M  V30 5 N 2.406102 -0.196385 3.811211 0
M  V30 6 C 1.184230 0.343242 3.261824 0
M  V30 7 N 0.028169 0.507666 3.326230 0
M  V30 8 C -0.758063 1.139026 2.495584 0
M  V30 9 C -0.214060 1.705629 1.381931 0
M  V30 10 C -0.543022 2.494505 0.162455 0
M  V30 11 O 0.428006 2.782903 -0.574655 0
M  V30 12 N -1.857299 2.866994 -0.107739 0
M  V30 13 C -1.979626 3.608780 -1.307924 0
M  V30 14 C -2.106439 2.954824 -2.529084 0
M  V30 15 C -2.112870 1.497705 -2.824203 0
M  V30 16 N -2.215109 3.929076 -3.448812 0
M  V30 17 N -2.157772 5.103973 -2.845070 0
M  V30 18 C -2.247984 6.331477 -3.604406 0
M  V30 19 C -2.013012 4.970441 -1.516983 0
M  V30 20 C -1.917224 6.023850 -0.486588 0
M  V30 21 S 1.584845 1.254871 1.612089 0
M  V30 22 C 1.473238 -2.405339 3.158512 0
M  V30 23 C 1.457040 -3.761617 2.981539 0
M  V30 24 N 0.310529 -4.427672 2.496122 0
M  V30 25 C 0.313999 -5.730721 1.864299 0
M  V30 26 C -0.159631 -5.490048 0.421849 0
M  V30 27 N -0.561301 -4.115720 0.228476 0
M  V30 28 C -0.915948 -3.875625 -1.125691 0
M  V30 29 C 0.227777 -3.931481 -2.101358 0
M  V30 30 O -0.216260 -3.673170 -3.415522 0
M  V30 31 C -1.563345 -3.727645 1.175586 0
M  V30 32 C -1.036209 -3.895487 2.590919 0
M  V30 33 N 2.595417 -4.379194 3.327416 0
M  V30 34 H 5.791151 -3.913799 4.079021 0
M  V30 35 H 4.889050 -5.389423 3.479851 0
M  V30 36 H 4.698799 -4.849349 5.184755 0
M  V30 37 H 3.152784 0.317669 4.274601 0
M  V30 38 H -1.825037 1.287757 2.559895 0
M  V30 39 H -2.580124 2.550839 0.608546 0
M  V30 40 H -2.906976 1.246329 -3.557901 0
M  V30 41 H -1.155077 1.193754 -3.330480 0
M  V30 42 H -2.334841 0.960231 -1.906639 0
M  V30 43 H -3.302310 6.499152 -3.938625 0
M  V30 44 H -1.655116 6.211833 -4.560742 0
M  V30 45 H -1.821566 7.213258 -3.073092 0
M  V30 46 H -2.827109 6.662339 -0.482007 0
M  V30 47 H -1.042913 6.700413 -0.693031 0
M  V30 48 H -1.780662 5.560157 0.494073 0
M  V30 49 H 0.545482 -1.880319 2.874423 0
M  V30 50 H 1.321930 -6.191940 1.844262 0
M  V30 51 H -0.389093 -6.411133 2.388222 0
M  V30 52 H -1.049537 -6.160124 0.230078 0
M  V30 53 H 0.661158 -5.791760 -0.247410 0
M  V30 54 H -1.653553 -4.666299 -1.459473 0
M  V30 55 H -1.492694 -2.920255 -1.276431 0
M  V30 56 H 0.647383 -4.963436 -2.084359 0
M  V30 57 H 0.983269 -3.164700 -1.844736 0
M  V30 58 H 0.468729 -3.974902 -4.072741 0
M  V30 59 H -1.895784 -2.699402 1.002054 0
M  V30 60 H -2.467112 -4.373051 0.993926 0
M  V30 61 H -1.662451 -4.708892 3.066074 0
M  V30 62 H -1.116260 -2.976829 3.176157 0
M  V30 END ATOM
M  V30 BEGIN BOND
M  V30 1 1 1 2
M  V30 2 2 2 3
M  V30 3 1 3 4
M  V30 4 1 4 5
M  V30 5 1 5 6
M  V30 6 2 6 7
M  V30 7 1 7 8
M  V30 8 2 8 9
M  V30 9 1 9 10
M  V30 10 2 10 11
M  V30 11 1 10 12
M  V30 12 1 12 13
M  V30 13 1 13 14
M  V30 14 1 14 15
M  V30 15 2 14 16
M  V30 16 1 16 17
M  V30 17 1 17 18
M  V30 18 1 17 19
M  V30 19 1 19 20
M  V30 20 1 9 21
M  V30 21 2 4 22
M  V30 22 1 22 23
M  V30 23 1 23 24
M  V30 24 1 24 25
M  V30 25 1 25 26
M  V30 26 1 26 27
M  V30 27 1 27 28
M  V30 28 1 28 29
M  V30 29 1 29 30
M  V30 30 1 27 31
M  V30 31 1 31 32
M  V30 32 2 23 33
M  V30 33 1 33 2
M  V30 34 1 21 6
M  V30 35 1 32 24
M  V30 36 2 19 13
M  V30 37 1 1 34
M  V30 38 1 1 35
M  V30 39 1 1 36
M  V30 40 1 5 37
M  V30 41 1 8 38
M  V30 42 1 12 39
M  V30 43 1 15 40
M  V30 44 1 15 41
M  V30 45 1 15 42
M  V30 46 1 18 43
M  V30 47 1 18 44
M  V30 48 1 18 45
M  V30 49 1 20 46
M  V30 50 1 20 47
M  V30 51 1 20 48
M  V30 52 1 22 49
M  V30 53 1 25 50
M  V30 54 1 25 51
M  V30 55 1 26 52
M  V30 56 1 26 53
M  V30 57 1 28 54
M  V30 58 1 28 55
M  V30 59 1 29 56
M  V30 60 1 29 57
M  V30 61 1 30 58
M  V30 62 1 31 59
M  V30 63 1 31 60
M  V30 64 1 32 61
M  V30 65 1 32 62
M  V30 END BOND
M  V30 END CTAB
M  END
>  <Dataset>  (401) 
ChEMBL_Kinases

>  <Ligand_Instance>  (401) 
nan

>  <PDB_ID>  (401) 
nan

>  <Standardized_SMILES>  (401) 
Cc1nc(Nc2ncc(C(=O)Nc3c(C)nn(C)c3C)s2)cc(N2CCN(CCO)CC2)n1

>  <Name>  (401) 
nan

>  <Pocket>  (401) 
nan

>  <ATP_Site>  (401) 
nan

>  <Peripheral>  (401) 
nan

>  <Num_H_Atoms_ProtBoundConf>  (401) 
nan

>  <Num_Resolved_Atoms>  (401) 
nan

>  <Num_Not_Resolved_Atoms>  (401) 
nan

$$$$
CHEMBL4072308
     RDKit          3D

  0  0  0  0  0  0  0  0  0  0999 V3000
M  V30 BEGIN CTAB
M  V30 COUNTS 39 41 0 0 0
M  V30 BEGIN ATOM
M  V30 1 C -0.181302 -6.491223 1.566075 0
M  V30 2 C -0.672563 -5.185209 2.100636 0
M  V30 3 O -1.864940 -4.983874 2.448166 0
M  V30 4 N 0.161395 -4.050736 2.265663 0
M  V30 5 C -0.374141 -2.823741 2.785450 0
M  V30 6 C -0.902211 -1.858056 1.956470 0
M  V30 7 C -1.434128 -0.659003 2.360582 0
M  V30 8 N -1.966045 0.332422 1.497954 0
M  V30 9 C -2.060302 0.373284 0.057700 0
M  V30 10 C -0.694785 0.461140 -0.551646 0
M  V30 11 N -0.161966 1.711392 -0.668823 0
M  V30 12 C 1.052791 1.673143 -1.236258 0
M  V30 13 C 1.928400 2.807567 -1.524324 0
M  V30 14 C 1.578074 4.003223 -2.111768 0
M  V30 15 C 2.544647 4.979236 -2.312097 0
M  V30 16 N 3.830272 4.809129 -1.953056 0
M  V30 17 C 4.153340 3.622324 -1.375459 0
M  V30 18 C 3.245800 2.604969 -1.144358 0
M  V30 19 N 1.269371 0.367981 -1.472573 0
M  V30 20 N 0.237481 -0.352698 -1.069122 0
M  V30 21 C -1.410969 -0.460348 3.723316 0
M  V30 22 C -0.896790 -1.388649 4.598328 0
M  V30 23 C -0.373683 -2.577754 4.142135 0
M  V30 24 Cl 0.286465 -3.774578 5.235413 0
M  V30 25 H 0.094634 -7.195533 2.365806 0
M  V30 26 H -1.081037 -6.943325 1.054332 0
M  V30 27 H 0.631360 -6.315350 0.847331 0
M  V30 28 H 1.185692 -4.138142 1.994502 0
M  V30 29 H -0.885055 -2.101925 0.921394 0
M  V30 30 H -2.359737 1.188495 2.002988 0
M  V30 31 H -2.505498 -0.577085 -0.344045 0
M  V30 32 H -2.683662 1.228050 -0.233317 0
M  V30 33 H 0.537123 4.094116 -2.382523 0
M  V30 34 H 2.232007 5.906837 -2.776951 0
M  V30 35 H 5.190531 3.480085 -1.083671 0
M  V30 36 H 3.608634 1.681835 -0.670216 0
M  V30 37 H 0.042665 -1.373856 -1.092190 0
M  V30 38 H -1.810666 0.465211 4.165459 0
M  V30 39 H -0.904237 -1.180161 5.658809 0
M  V30 END ATOM
M  V30 BEGIN BOND
M  V30 1 1 1 2
M  V30 2 2 2 3
M  V30 3 1 2 4
M  V30 4 1 4 5
M  V30 5 2 5 6
M  V30 6 1 6 7
M  V30 7 1 7 8
M  V30 8 1 8 9
M  V30 9 1 9 10
M  V30 10 2 10 11
M  V30 11 1 11 12
M  V30 12 1 12 13
M  V30 13 2 13 14
M  V30 14 1 14 15
M  V30 15 2 15 16
M  V30 16 1 16 17
M  V30 17 2 17 18
M  V30 18 2 12 19
M  V30 19 1 19 20
M  V30 20 2 7 21
M  V30 21 1 21 22
M  V30 22 2 22 23
M  V30 23 1 23 24
M  V30 24 1 23 5
M  V30 25 1 20 10
M  V30 26 1 18 13
M  V30 27 1 1 25
M  V30 28 1 1 26
M  V30 29 1 1 27
M  V30 30 1 4 28
M  V30 31 1 6 29
M  V30 32 1 8 30
M  V30 33 1 9 31
M  V30 34 1 9 32
M  V30 35 1 14 33
M  V30 36 1 15 34
M  V30 37 1 17 35
M  V30 38 1 18 36
M  V30 39 1 20 37
M  V30 40 1 21 38
M  V30 41 1 22 39
M  V30 END BOND
M  V30 END CTAB
M  END
>  <Dataset>  (402) 
ChEMBL_Kinases

>  <Ligand_Instance>  (402) 
nan

>  <PDB_ID>  (402) 
nan

>  <Standardized_SMILES>  (402) 
CC(=O)Nc1cc(NCc2nc(-c3ccncc3)n[nH]2)ccc1Cl

>  <Name>  (402) 
nan

>  <Pocket>  (402) 
nan

>  <ATP_Site>  (402) 
nan

>  <Peripheral>  (402) 
nan

>  <Num_H_Atoms_ProtBoundConf>  (402) 
nan

>  <Num_Resolved_Atoms>  (402) 
nan

>  <Num_Not_Resolved_Atoms>  (402) 
nan

$$$$
CHEMBL3634793
     RDKit          3D

  0  0  0  0  0  0  0  0  0  0999 V3000
M  V30 BEGIN CTAB
M  V30 COUNTS 50 54 0 0 0
M  V30 BEGIN ATOM
M  V30 1 N 2.839684 -3.312662 0.650130 0
M  V30 2 C 2.354465 -3.414164 2.041862 0 CFG=1
M  V30 3 C 3.679651 -3.686872 2.794170 0
M  V30 4 C 4.513915 -2.461793 2.807778 0
M  V30 5 C 4.031751 -1.219693 2.228343 0
M  V30 6 N 2.610733 -1.069706 1.916341 0
M  V30 7 C 2.369343 0.053226 1.085247 0
M  V30 8 C 3.294217 1.112669 1.079916 0
M  V30 9 C 3.199296 2.318174 0.419218 0
M  V30 10 N 2.067253 2.471273 -0.304496 0
M  V30 11 C 1.166064 1.500682 -0.333317 0
M  V30 12 C 1.238163 0.271057 0.325246 0
M  V30 13 C 0.158811 -0.665523 0.175882 0
M  V30 14 C -1.070517 -0.114908 -0.170563 0
M  V30 15 C -2.234414 -0.832566 -0.322423 0
M  V30 16 C -3.553856 -0.553893 -0.648305 0
M  V30 17 C -4.081917 0.780144 -0.952747 0
M  V30 18 C -3.524267 1.596404 -1.914197 0
M  V30 19 C -4.122918 2.825502 -2.104836 0
M  V30 20 C -5.228587 3.279003 -1.402311 0
M  V30 21 C -5.743711 2.415512 -0.450032 0
M  V30 22 C -5.181547 1.177675 -0.222012 0
M  V30 23 F -5.790521 0.420861 0.749402 0
M  V30 24 N -4.276798 -1.698234 -0.643294 0
M  V30 25 N -3.479431 -2.703726 -0.327821 0
M  V30 26 C -2.250664 -2.199195 -0.131812 0
M  V30 27 C -1.011252 -2.685610 0.207775 0
M  V30 28 N 0.070770 -1.961985 0.341137 0
M  V30 29 C 1.921160 -2.073125 2.592444 0
M  V30 30 H 2.898016 -2.336017 0.336419 0
M  V30 31 H 2.319714 -3.946117 0.007488 0
M  V30 32 H 1.663438 -4.230435 2.201807 0
M  V30 33 H 4.179185 -4.491739 2.226698 0
M  V30 34 H 3.379854 -4.087149 3.778972 0
M  V30 35 H 4.776457 -2.289250 3.900024 0
M  V30 36 H 5.530106 -2.720303 2.373666 0
M  V30 37 H 4.251955 -0.361179 2.947087 0
M  V30 38 H 4.658808 -0.945417 1.336213 0
M  V30 39 H 4.249845 1.075880 1.633788 0
M  V30 40 H 3.955861 3.086964 0.463140 0
M  V30 41 H 0.340453 1.826607 -0.979868 0
M  V30 42 H -1.278156 0.936577 -0.355627 0
M  V30 43 H -2.671933 1.244296 -2.453491 0
M  V30 44 H -3.687583 3.477715 -2.864314 0
M  V30 45 H -5.659499 4.266556 -1.599346 0
M  V30 46 H -6.616515 2.827263 0.073074 0
M  V30 47 H -3.598848 -3.741678 -0.206665 0
M  V30 48 H -0.890228 -3.750023 0.383881 0
M  V30 49 H 0.840927 -1.977703 2.791138 0
M  V30 50 H 2.294789 -2.074810 3.688457 0
M  V30 END ATOM
M  V30 BEGIN BOND
M  V30 1 1 1 2
M  V30 2 1 2 3
M  V30 3 1 3 4
M  V30 4 1 4 5
M  V30 5 1 5 6
M  V30 6 1 6 7
M  V30 7 2 7 8
M  V30 8 1 8 9
M  V30 9 2 9 10
M  V30 10 1 10 11
M  V30 11 2 11 12
M  V30 12 1 12 13
M  V30 13 2 13 14
M  V30 14 1 14 15
M  V30 15 1 15 16
M  V30 16 1 16 17
M  V30 17 2 17 18
M  V30 18 1 18 19
M  V30 19 2 19 20
M  V30 20 1 20 21
M  V30 21 2 21 22
M  V30 22 1 22 23
M  V30 23 2 16 24
M  V30 24 1 24 25
M  V30 25 1 25 26
M  V30 26 1 26 27
M  V30 27 2 27 28
M  V30 28 1 6 29
M  V30 29 1 29 2
M  V30 30 1 12 7
M  V30 31 1 28 13
M  V30 32 2 26 15
M  V30 33 1 22 17
M  V30 34 1 1 30
M  V30 35 1 1 31
M  V30 36 1 2 32 CFG=3
M  V30 37 1 3 33
M  V30 38 1 3 34
M  V30 39 1 4 35
M  V30 40 1 4 36
M  V30 41 1 5 37
M  V30 42 1 5 38
M  V30 43 1 8 39
M  V30 44 1 9 40
M  V30 45 1 11 41
M  V30 46 1 14 42
M  V30 47 1 18 43
M  V30 48 1 19 44
M  V30 49 1 20 45
M  V30 50 1 21 46
M  V30 51 1 25 47
M  V30 52 1 27 48
M  V30 53 1 29 49
M  V30 54 1 29 50
M  V30 END BOND
M  V30 END CTAB
M  END
>  <Dataset>  (403) 
ChEMBL_Kinases

>  <Ligand_Instance>  (403) 
nan

>  <PDB_ID>  (403) 
nan

>  <Standardized_SMILES>  (403) 
N[C@H]1CCCN(c2ccncc2-c2cc3c(-c4ccccc4F)n[nH]c3cn2)C1

>  <Name>  (403) 
nan

>  <Pocket>  (403) 
nan

>  <ATP_Site>  (403) 
nan

>  <Peripheral>  (403) 
nan

>  <Num_H_Atoms_ProtBoundConf>  (403) 
nan

>  <Num_Resolved_Atoms>  (403) 
nan

>  <Num_Not_Resolved_Atoms>  (403) 
nan

$$$$
CHEMBL3634792
     RDKit          3D

  0  0  0  0  0  0  0  0  0  0999 V3000
M  V30 BEGIN CTAB
M  V30 COUNTS 43 46 0 0 0
M  V30 BEGIN ATOM
M  V30 1 C -1.986682 -3.364577 1.209111 0
M  V30 2 C -0.851415 -3.958080 0.418176 0
M  V30 3 N -0.752450 -5.173660 -0.117741 0
M  V30 4 N 0.417618 -5.301167 -0.736247 0
M  V30 5 C 1.095855 -4.148650 -0.602304 0
M  V30 6 C 2.310945 -3.637842 -0.985341 0
M  V30 7 N 2.719260 -2.386363 -0.680510 0
M  V30 8 C 1.983728 -1.513608 0.025362 0
M  V30 9 C 2.595953 -0.237156 0.281005 0
M  V30 10 C 3.942806 -0.086206 0.060372 0
M  V30 11 N 4.627072 1.050301 0.257901 0
M  V30 12 C 4.025109 2.149089 0.697138 0
M  V30 13 C 2.669920 2.088175 0.944389 0
M  V30 14 C 1.997366 0.905803 0.729886 0
M  V30 15 N 0.610803 1.005376 0.949467 0
M  V30 16 C -0.338835 1.057634 -0.184399 0
M  V30 17 C -1.738599 1.116598 0.307521 0
M  V30 18 C -1.976356 0.673528 1.707773 0
M  V30 19 C -1.032706 1.221666 2.729796 0 CFG=2
M  V30 20 N -1.364713 2.609652 3.007609 0
M  V30 21 C 0.409751 1.053134 2.390196 0
M  V30 22 C 0.774114 -2.030332 0.404432 0
M  V30 23 C 0.306183 -3.289111 0.125432 0
M  V30 24 H -2.637787 -2.722181 0.614434 0
M  V30 25 H -1.581988 -2.776317 2.065757 0
M  V30 26 H -2.571102 -4.187847 1.633642 0
M  V30 27 H 0.818795 -6.111512 -1.255814 0
M  V30 28 H 2.977949 -4.256731 -1.558313 0
M  V30 29 H 4.571601 -0.895821 -0.299236 0
M  V30 30 H 4.589069 3.063955 0.854754 0
M  V30 31 H 2.211115 2.990785 1.298931 0
M  V30 32 H -0.079264 2.044478 -0.675321 0
M  V30 33 H -0.136499 0.323555 -0.954130 0
M  V30 34 H -2.159293 2.154978 0.167771 0
M  V30 35 H -2.361345 0.446839 -0.347570 0
M  V30 36 H -2.998097 1.042816 2.020665 0
M  V30 37 H -1.991279 -0.428162 1.807236 0
M  V30 38 H -1.230441 0.662930 3.688243 0
M  V30 39 H -1.824107 2.743616 3.928463 0
M  V30 40 H -1.995081 2.963227 2.256383 0
M  V30 41 H 0.852792 0.201447 2.917599 0
M  V30 42 H 0.940754 1.957801 2.794465 0
M  V30 43 H 0.134452 -1.401441 0.991808 0
M  V30 END ATOM
M  V30 BEGIN BOND
M  V30 1 1 1 2
M  V30 2 2 2 3
M  V30 3 1 3 4
M  V30 4 1 4 5
M  V30 5 2 5 6
M  V30 6 1 6 7
M  V30 7 2 7 8
M  V30 8 1 8 9
M  V30 9 2 9 10
M  V30 10 1 10 11
M  V30 11 2 11 12
M  V30 12 1 12 13
M  V30 13 2 13 14
M  V30 14 1 14 15
M  V30 15 1 15 16
M  V30 16 1 16 17
M  V30 17 1 17 18
M  V30 18 1 18 19
M  V30 19 1 19 20
M  V30 20 1 19 21
M  V30 21 1 8 22
M  V30 22 2 22 23
M  V30 23 1 23 2
M  V30 24 1 23 5
M  V30 25 1 14 9
M  V30 26 1 21 15
M  V30 27 1 1 24
M  V30 28 1 1 25
M  V30 29 1 1 26
M  V30 30 1 4 27
M  V30 31 1 6 28
M  V30 32 1 10 29
M  V30 33 1 12 30
M  V30 34 1 13 31
M  V30 35 1 16 32
M  V30 36 1 16 33
M  V30 37 1 17 34
M  V30 38 1 17 35
M  V30 39 1 18 36
M  V30 40 1 18 37
M  V30 41 1 19 38 CFG=1
M  V30 42 1 20 39
M  V30 43 1 20 40
M  V30 44 1 21 41
M  V30 45 1 21 42
M  V30 46 1 22 43
M  V30 END BOND
M  V30 END CTAB
M  END
>  <Dataset>  (404) 
ChEMBL_Kinases

>  <Ligand_Instance>  (404) 
nan

>  <PDB_ID>  (404) 
nan

>  <Standardized_SMILES>  (404) 
Cc1n[nH]c2cnc(-c3cnccc3N3CCC[C@H](N)C3)cc12

>  <Name>  (404) 
nan

>  <Pocket>  (404) 
nan

>  <ATP_Site>  (404) 
nan

>  <Peripheral>  (404) 
nan

>  <Num_H_Atoms_ProtBoundConf>  (404) 
nan

>  <Num_Resolved_Atoms>  (404) 
nan

>  <Num_Not_Resolved_Atoms>  (404) 
nan

$$$$
CHEMBL3634790
     RDKit          3D

  0  0  0  0  0  0  0  0  0  0999 V3000
M  V30 BEGIN CTAB
M  V30 COUNTS 33 36 0 0 0
M  V30 BEGIN ATOM
M  V30 1 C -3.809099 -3.432896 1.969160 0
M  V30 2 C -3.539045 -3.919611 0.700482 0
M  V30 3 C -2.344557 -3.716719 0.037380 0
M  V30 4 C -1.338921 -2.980358 0.667113 0
M  V30 5 C -0.086580 -2.768647 -0.030191 0
M  V30 6 N 0.572032 -3.747436 -0.691566 0
M  V30 7 N 1.687873 -3.240346 -1.226806 0
M  V30 8 C 1.785874 -1.930609 -0.931842 0
M  V30 9 C 2.669367 -0.902852 -1.186360 0
M  V30 10 N 2.451545 0.359516 -0.713911 0
M  V30 11 C 1.370331 0.673824 0.022485 0
M  V30 12 C 1.219253 2.048743 0.485176 0
M  V30 13 C 2.212319 2.935844 0.126616 0
M  V30 14 C 2.155779 4.276971 0.523259 0
M  V30 15 C 1.056231 4.632361 1.281892 0
M  V30 16 N 0.088942 3.766101 1.630555 0
M  V30 17 C 0.145819 2.463579 1.244142 0
M  V30 18 C 0.483027 -0.350140 0.280324 0
M  V30 19 C 0.672256 -1.625522 -0.178414 0
M  V30 20 C -1.579566 -2.479889 1.937864 0
M  V30 21 C -2.789683 -2.710217 2.557587 0
M  V30 22 H -4.748846 -3.599638 2.475902 0
M  V30 23 H -4.329667 -4.493831 0.215253 0
M  V30 24 H -2.239176 -4.146116 -0.960725 0
M  V30 25 H 2.426414 -3.707950 -1.798175 0
M  V30 26 H 3.552374 -1.119767 -1.777024 0
M  V30 27 H 3.093173 2.674425 -0.474857 0
M  V30 28 H 2.943354 4.970860 0.236283 0
M  V30 29 H 0.961935 5.666488 1.618297 0
M  V30 30 H -0.628954 1.774208 1.524630 0
M  V30 31 H -0.380341 -0.134574 0.858783 0
M  V30 32 H -0.819618 -1.906173 2.450005 0
M  V30 33 H -2.972862 -2.311702 3.561789 0
M  V30 END ATOM
M  V30 BEGIN BOND
M  V30 1 2 1 2
M  V30 2 1 2 3
M  V30 3 2 3 4
M  V30 4 1 4 5
M  V30 5 2 5 6
M  V30 6 1 6 7
M  V30 7 1 7 8
M  V30 8 2 8 9
M  V30 9 1 9 10
M  V30 10 2 10 11
M  V30 11 1 11 12
M  V30 12 2 12 13
M  V30 13 1 13 14
M  V30 14 2 14 15
M  V30 15 1 15 16
M  V30 16 2 16 17
M  V30 17 1 11 18
M  V30 18 2 18 19
M  V30 19 1 4 20
M  V30 20 2 20 21
M  V30 21 1 21 1
M  V30 22 1 19 5
M  V30 23 1 19 8
M  V30 24 1 17 12
M  V30 25 1 1 22
M  V30 26 1 2 23
M  V30 27 1 3 24
M  V30 28 1 7 25
M  V30 29 1 9 26
M  V30 30 1 13 27
M  V30 31 1 14 28
M  V30 32 1 15 29
M  V30 33 1 17 30
M  V30 34 1 18 31
M  V30 35 1 20 32
M  V30 36 1 21 33
M  V30 END BOND
M  V30 END CTAB
M  END
>  <Dataset>  (405) 
ChEMBL_Kinases

>  <Ligand_Instance>  (405) 
nan

>  <PDB_ID>  (405) 
nan

>  <Standardized_SMILES>  (405) 
c1ccc(-c2n[nH]c3cnc(-c4cccnc4)cc23)cc1

>  <Name>  (405) 
nan

>  <Pocket>  (405) 
nan

>  <ATP_Site>  (405) 
nan

>  <Peripheral>  (405) 
nan

>  <Num_H_Atoms_ProtBoundConf>  (405) 
nan

>  <Num_Resolved_Atoms>  (405) 
nan

>  <Num_Not_Resolved_Atoms>  (405) 
nan

$$$$
CHEMBL3634789
     RDKit          3D

  0  0  0  0  0  0  0  0  0  0999 V3000
M  V30 BEGIN CTAB
M  V30 COUNTS 25 27 0 0 0
M  V30 BEGIN ATOM
M  V30 1 C -0.550833 -0.028404 4.401220 0
M  V30 2 C 0.113673 -1.034877 3.543009 0
M  V30 3 N 0.611793 -2.208665 3.927752 0
M  V30 4 N 1.141134 -2.872414 2.908374 0
M  V30 5 C 0.967191 -2.081868 1.842180 0
M  V30 6 C 1.341194 -2.307218 0.526754 0
M  V30 7 C 1.070571 -1.359896 -0.439124 0
M  V30 8 C 0.418238 -0.175175 -0.080557 0
M  V30 9 C 0.146563 0.815909 -1.138736 0
M  V30 10 C -0.948592 1.648238 -1.105703 0
M  V30 11 N -0.800818 2.376492 -2.249946 0
M  V30 12 N 0.290714 1.995746 -2.891957 0
M  V30 13 C 0.954554 0.994780 -2.239306 0
M  V30 14 C 0.043310 0.055536 1.226336 0
M  V30 15 C 0.322738 -0.903949 2.178108 0
M  V30 16 H 0.197047 0.672401 4.815093 0
M  V30 17 H -1.336985 0.536674 3.867267 0
M  V30 18 H -0.990626 -0.575925 5.272800 0
M  V30 19 H 1.607094 -3.819988 2.899924 0
M  V30 20 H 1.843467 -3.201008 0.205210 0
M  V30 21 H 1.344408 -1.497315 -1.469346 0
M  V30 22 H -1.705257 1.675976 -0.340354 0
M  V30 23 H 0.599914 2.430829 -3.809539 0
M  V30 24 H 1.860076 0.507096 -2.538365 0
M  V30 25 H -0.455120 0.952389 1.518866 0
M  V30 END ATOM
M  V30 BEGIN BOND
M  V30 1 1 1 2
M  V30 2 2 2 3
M  V30 3 1 3 4
M  V30 4 1 4 5
M  V30 5 2 5 6
M  V30 6 1 6 7
M  V30 7 2 7 8
M  V30 8 1 8 9
M  V30 9 1 9 10
M  V30 10 2 10 11
M  V30 11 1 11 12
M  V30 12 1 12 13
M  V30 13 1 8 14
M  V30 14 2 14 15
M  V30 15 1 15 2
M  V30 16 1 15 5
M  V30 17 2 13 9
M  V30 18 1 1 16
M  V30 19 1 1 17
M  V30 20 1 1 18
M  V30 21 1 4 19
M  V30 22 1 6 20
M  V30 23 1 7 21
M  V30 24 1 10 22
M  V30 25 1 12 23
M  V30 26 1 13 24
M  V30 27 1 14 25
M  V30 END BOND
M  V30 END CTAB
M  END
>  <Dataset>  (406) 
ChEMBL_Kinases

>  <Ligand_Instance>  (406) 
nan

>  <PDB_ID>  (406) 
nan

>  <Standardized_SMILES>  (406) 
Cc1n[nH]c2ccc(-c3cn[nH]c3)cc12

>  <Name>  (406) 
nan

>  <Pocket>  (406) 
nan

>  <ATP_Site>  (406) 
nan

>  <Peripheral>  (406) 
nan

>  <Num_H_Atoms_ProtBoundConf>  (406) 
nan

>  <Num_Resolved_Atoms>  (406) 
nan

>  <Num_Not_Resolved_Atoms>  (406) 
nan

$$$$
CHEMBL3634788
     RDKit          3D

  0  0  0  0  0  0  0  0  0  0999 V3000
M  V30 BEGIN CTAB
M  V30 COUNTS 24 26 0 0 0
M  V30 BEGIN ATOM
M  V30 1 C 1.563057 -0.708991 4.176475 0
M  V30 2 C 1.085415 -1.627180 3.091732 0
M  V30 3 N 0.915240 -2.968813 3.134454 0
M  V30 4 N 0.482709 -3.420725 1.991532 0
M  V30 5 C 0.364043 -2.361313 1.177284 0
M  V30 6 C -0.046169 -2.247095 -0.136328 0
M  V30 7 N -0.091506 -1.047664 -0.783644 0
M  V30 8 C 0.273019 0.093556 -0.142118 0
M  V30 9 C 0.234267 1.390400 -0.810381 0
M  V30 10 C 0.558311 2.646785 -0.342432 0
M  V30 11 N 0.353243 3.533641 -1.350314 0
M  V30 12 N -0.082494 2.889244 -2.421791 0
M  V30 13 C -0.169432 1.575531 -2.134061 0
M  V30 14 C 0.691966 0.035520 1.174674 0
M  V30 15 C 0.735019 -1.180059 1.821773 0
M  V30 16 H 1.529468 -1.313209 5.128345 0
M  V30 17 H 2.566463 -0.306234 3.974031 0
M  V30 18 H 0.857194 0.145918 4.284773 0
M  V30 19 H 0.268562 -4.419875 1.753749 0
M  V30 20 H -0.355635 -3.102302 -0.729031 0
M  V30 21 H 0.903453 2.746541 0.680071 0
M  V30 22 H -0.275115 3.475931 -3.264238 0
M  V30 23 H -0.503357 0.887411 -2.872997 0
M  V30 24 H 0.994416 0.874730 1.752452 0
M  V30 END ATOM
M  V30 BEGIN BOND
M  V30 1 1 1 2
M  V30 2 2 2 3
M  V30 3 1 3 4
M  V30 4 1 4 5
M  V30 5 2 5 6
M  V30 6 1 6 7
M  V30 7 2 7 8
M  V30 8 1 8 9
M  V30 9 1 9 10
M  V30 10 2 10 11
M  V30 11 1 11 12
M  V30 12 1 12 13
M  V30 13 1 8 14
M  V30 14 2 14 15
M  V30 15 1 15 2
M  V30 16 1 15 5
M  V30 17 2 13 9
M  V30 18 1 1 16
M  V30 19 1 1 17
M  V30 20 1 1 18
M  V30 21 1 4 19
M  V30 22 1 6 20
M  V30 23 1 10 21
M  V30 24 1 12 22
M  V30 25 1 13 23
M  V30 26 1 14 24
M  V30 END BOND
M  V30 END CTAB
M  END
>  <Dataset>  (407) 
ChEMBL_Kinases

>  <Ligand_Instance>  (407) 
nan

>  <PDB_ID>  (407) 
nan

>  <Standardized_SMILES>  (407) 
Cc1n[nH]c2cnc(-c3cn[nH]c3)cc12

>  <Name>  (407) 
nan

>  <Pocket>  (407) 
nan

>  <ATP_Site>  (407) 
nan

>  <Peripheral>  (407) 
nan

>  <Num_H_Atoms_ProtBoundConf>  (407) 
nan

>  <Num_Resolved_Atoms>  (407) 
nan

>  <Num_Not_Resolved_Atoms>  (407) 
nan

$$$$
CHEMBL3634787
     RDKit          3D

  0  0  0  0  0  0  0  0  0  0999 V3000
M  V30 BEGIN CTAB
M  V30 COUNTS 27 29 0 0 0
M  V30 BEGIN ATOM
M  V30 1 C -0.489452 -3.216339 2.932894 0
M  V30 2 C 0.041061 -1.849656 3.224625 0
M  V30 3 C 0.386128 -1.293169 4.439551 0
M  V30 4 N 0.821160 -0.034862 4.254466 0
M  V30 5 C 0.750406 0.199441 2.930991 0
M  V30 6 C 1.058185 1.298438 2.156321 0
M  V30 7 N 0.916766 1.342601 0.818962 0
M  V30 8 C 0.447325 0.276466 0.119219 0
M  V30 9 C 0.290133 0.313557 -1.330197 0
M  V30 10 C -0.180409 -0.735134 -2.093100 0
M  V30 11 C -0.314499 -0.659304 -3.465717 0
M  V30 12 C 0.049713 0.542928 -4.079264 0
M  V30 13 N 0.513155 1.577404 -3.332814 0
M  V30 14 C 0.636611 1.479498 -1.982445 0
M  V30 15 C 0.135426 -0.829705 0.881008 0
M  V30 16 C 0.269786 -0.902535 2.246779 0
M  V30 17 H -1.039227 -3.623396 3.821622 0
M  V30 18 H 0.313421 -3.917260 2.669453 0
M  V30 19 H -1.225629 -3.190650 2.099117 0
M  V30 20 H 0.289563 -1.858514 5.362553 0
M  V30 21 H 1.144347 0.611015 5.007940 0
M  V30 22 H 1.442896 2.204430 2.630383 0
M  V30 23 H -0.452183 -1.642263 -1.604305 0
M  V30 24 H -0.688795 -1.512093 -4.015084 0
M  V30 25 H -0.051206 0.617918 -5.167507 0
M  V30 26 H 1.020909 2.371186 -1.467959 0
M  V30 27 H -0.239931 -1.714365 0.420742 0
M  V30 END ATOM
M  V30 BEGIN BOND
M  V30 1 1 1 2
M  V30 2 2 2 3
M  V30 3 1 3 4
M  V30 4 1 4 5
M  V30 5 2 5 6
M  V30 6 1 6 7
M  V30 7 2 7 8
M  V30 8 1 8 9
M  V30 9 2 9 10
M  V30 10 1 10 11
M  V30 11 2 11 12
M  V30 12 1 12 13
M  V30 13 2 13 14
M  V30 14 1 8 15
M  V30 15 2 15 16
M  V30 16 1 16 2
M  V30 17 1 16 5
M  V30 18 1 14 9
M  V30 19 1 1 17
M  V30 20 1 1 18
M  V30 21 1 1 19
M  V30 22 1 3 20
M  V30 23 1 4 21
M  V30 24 1 6 22
M  V30 25 1 10 23
M  V30 26 1 11 24
M  V30 27 1 12 25
M  V30 28 1 14 26
M  V30 29 1 15 27
M  V30 END BOND
M  V30 END CTAB
M  END
>  <Dataset>  (408) 
ChEMBL_Kinases

>  <Ligand_Instance>  (408) 
nan

>  <PDB_ID>  (408) 
nan

>  <Standardized_SMILES>  (408) 
Cc1c[nH]c2cnc(-c3cccnc3)cc12

>  <Name>  (408) 
nan

>  <Pocket>  (408) 
nan

>  <ATP_Site>  (408) 
nan

>  <Peripheral>  (408) 
nan

>  <Num_H_Atoms_ProtBoundConf>  (408) 
nan

>  <Num_Resolved_Atoms>  (408) 
nan

>  <Num_Not_Resolved_Atoms>  (408) 
nan

$$$$
CHEMBL3634786
     RDKit          3D

  0  0  0  0  0  0  0  0  0  0999 V3000
M  V30 BEGIN CTAB
M  V30 COUNTS 26 28 0 0 0
M  V30 BEGIN ATOM
M  V30 1 C -1.763453 -3.562972 1.367467 0
M  V30 2 C -0.554222 -3.060372 2.085940 0
M  V30 3 N 0.113462 -3.626347 3.134036 0
M  V30 4 N 1.140005 -2.857300 3.479617 0
M  V30 5 C 1.174191 -1.772794 2.673423 0
M  V30 6 C 1.964152 -0.651329 2.530344 0
M  V30 7 N 1.754662 0.297458 1.605938 0
M  V30 8 C 0.727990 0.225311 0.722065 0
M  V30 9 C 0.498836 1.256768 -0.284210 0
M  V30 10 C -0.523805 1.243617 -1.209931 0
M  V30 11 C -0.698510 2.244298 -2.142633 0
M  V30 12 C 0.216661 3.303167 -2.122868 0
M  V30 13 N 1.211798 3.309756 -1.217250 0
M  V30 14 C 1.370732 2.325993 -0.312047 0
M  V30 15 C -0.072389 -0.892009 0.852417 0
M  V30 16 C 0.116426 -1.885848 1.792696 0
M  V30 17 H -1.844250 -4.658661 1.562786 0
M  V30 18 H -2.658206 -3.078315 1.809865 0
M  V30 19 H -1.702203 -3.458745 0.280793 0
M  V30 20 H 1.832763 -3.035827 4.251453 0
M  V30 21 H 2.793829 -0.555625 3.215756 0
M  V30 22 H -1.206846 0.420794 -1.199587 0
M  V30 23 H -1.504044 2.199990 -2.845620 0
M  V30 24 H 0.089598 4.095220 -2.850868 0
M  V30 25 H 2.213469 2.471652 0.346706 0
M  V30 26 H -0.914688 -1.034807 0.191858 0
M  V30 END ATOM
M  V30 BEGIN BOND
M  V30 1 1 1 2
M  V30 2 2 2 3
M  V30 3 1 3 4
M  V30 4 1 4 5
M  V30 5 2 5 6
M  V30 6 1 6 7
M  V30 7 2 7 8
M  V30 8 1 8 9
M  V30 9 2 9 10
M  V30 10 1 10 11
M  V30 11 2 11 12
M  V30 12 1 12 13
M  V30 13 2 13 14
M  V30 14 1 8 15
M  V30 15 2 15 16
M  V30 16 1 16 2
M  V30 17 1 16 5
M  V30 18 1 14 9
M  V30 19 1 1 17
M  V30 20 1 1 18
M  V30 21 1 1 19
M  V30 22 1 4 20
M  V30 23 1 6 21
M  V30 24 1 10 22
M  V30 25 1 11 23
M  V30 26 1 12 24
M  V30 27 1 14 25
M  V30 28 1 15 26
M  V30 END BOND
M  V30 END CTAB
M  END
>  <Dataset>  (409) 
ChEMBL_Kinases

>  <Ligand_Instance>  (409) 
nan

>  <PDB_ID>  (409) 
nan

>  <Standardized_SMILES>  (409) 
Cc1n[nH]c2cnc(-c3cccnc3)cc12

>  <Name>  (409) 
nan

>  <Pocket>  (409) 
nan

>  <ATP_Site>  (409) 
nan

>  <Peripheral>  (409) 
nan

>  <Num_H_Atoms_ProtBoundConf>  (409) 
nan

>  <Num_Resolved_Atoms>  (409) 
nan

>  <Num_Not_Resolved_Atoms>  (409) 
nan

$$$$
CHEMBL3634785
     RDKit          3D

  0  0  0  0  0  0  0  0  0  0999 V3000
M  V30 BEGIN CTAB
M  V30 COUNTS 22 23 0 0 0
M  V30 BEGIN ATOM
M  V30 1 O -0.119827 0.371512 2.779828 0
M  V30 2 C 0.043164 0.336443 1.524153 0
M  V30 3 N 1.190245 -0.388579 1.094733 0
M  V30 4 C 2.167983 -1.071523 1.870735 0
M  V30 5 C 3.349537 -0.549145 2.381284 0
M  V30 6 N 3.992649 -1.540061 3.063407 0
M  V30 7 N 3.245132 -2.633163 2.982146 0
M  V30 8 C 2.114746 -2.396914 2.260406 0
M  V30 9 C -0.823637 0.959340 0.529676 0
M  V30 10 C -0.676839 0.941299 -0.838769 0
M  V30 11 C -1.604169 1.592871 -1.642082 0
M  V30 12 C -2.663100 2.252639 -1.078561 0
M  V30 13 N -2.812199 2.274452 0.249919 0
M  V30 14 C -1.907279 1.637800 1.048420 0
M  V30 15 H 1.466894 -0.512507 0.095815 0
M  V30 16 H 3.661100 0.470008 2.236514 0
M  V30 17 H 3.579166 -3.502728 3.448914 0
M  V30 18 H 1.364484 -3.122150 2.060975 0
M  V30 19 H 0.183161 0.400013 -1.200567 0
M  V30 20 H -1.422762 1.534644 -2.701691 0
M  V30 21 H -3.338424 2.732487 -1.757364 0
M  V30 22 H -2.103495 1.705682 2.108367 0
M  V30 END ATOM
M  V30 BEGIN BOND
M  V30 1 2 1 2
M  V30 2 1 2 3
M  V30 3 1 3 4
M  V30 4 1 4 5
M  V30 5 2 5 6
M  V30 6 1 6 7
M  V30 7 1 7 8
M  V30 8 1 2 9
M  V30 9 2 9 10
M  V30 10 1 10 11
M  V30 11 2 11 12
M  V30 12 1 12 13
M  V30 13 2 13 14
M  V30 14 2 8 4
M  V30 15 1 14 9
M  V30 16 1 3 15
M  V30 17 1 5 16
M  V30 18 1 7 17
M  V30 19 1 8 18
M  V30 20 1 10 19
M  V30 21 1 11 20
M  V30 22 1 12 21
M  V30 23 1 14 22
M  V30 END BOND
M  V30 END CTAB
M  END
>  <Dataset>  (410) 
ChEMBL_Kinases

>  <Ligand_Instance>  (410) 
nan

>  <PDB_ID>  (410) 
nan

>  <Standardized_SMILES>  (410) 
O=C(Nc1cn[nH]c1)c1cccnc1

>  <Name>  (410) 
nan

>  <Pocket>  (410) 
nan

>  <ATP_Site>  (410) 
nan

>  <Peripheral>  (410) 
nan

>  <Num_H_Atoms_ProtBoundConf>  (410) 
nan

>  <Num_Resolved_Atoms>  (410) 
nan

>  <Num_Not_Resolved_Atoms>  (410) 
nan

$$$$
CHEMBL4862656
     RDKit          3D

  0  0  0  0  0  0  0  0  0  0999 V3000
M  V30 BEGIN CTAB
M  V30 COUNTS 55 59 0 0 0
M  V30 BEGIN ATOM
M  V30 1 C 2.997466 -2.265808 1.772301 0
M  V30 2 C 3.213260 -1.885732 0.377004 0
M  V30 3 O 2.601931 -2.555460 -0.481638 0
M  V30 4 N 4.057612 -0.824358 -0.009234 0
M  V30 5 C 4.824446 0.020935 0.902233 0
M  V30 6 C 5.290713 1.170700 0.026404 0
M  V30 7 C 4.277492 1.157791 -1.128479 0 CFG=2
M  V30 8 N 2.973354 1.466476 -0.673607 0
M  V30 9 C 2.212119 2.498608 -1.106552 0
M  V30 10 O 2.675703 3.295699 -2.005870 0
M  V30 11 C 1.041751 3.435824 -1.242167 0
M  V30 12 C 0.360597 2.613197 -0.315842 0
M  V30 13 C -0.935650 2.717050 0.221314 0
M  V30 14 N -1.856126 2.114269 1.112661 0
M  V30 15 N -2.193981 2.602893 2.281399 0
M  V30 16 C -3.049448 1.740797 2.888986 0
M  V30 17 C -3.187835 0.715389 1.990365 0
M  V30 18 C -3.948338 -0.419787 2.126679 0
M  V30 19 C -3.961538 -1.360450 1.104473 0
M  V30 20 N -4.708068 -2.581779 1.097677 0
M  V30 21 C -4.025566 -3.821062 1.004279 0
M  V30 22 C -4.291448 -4.622881 -0.083571 0
M  V30 23 C -3.674153 -5.862780 -0.263103 0
M  V30 24 C -2.763730 -6.252070 0.724756 0
M  V30 25 C -2.534720 -5.410231 1.791906 0
M  V30 26 C -3.130870 -4.191741 1.986504 0
M  V30 27 Cl -2.870193 -3.109394 3.311326 0
M  V30 28 C -3.202589 -1.113889 -0.014099 0
M  V30 29 F -3.142834 -1.973203 -1.083670 0
M  V30 30 C -2.415650 0.027019 -0.190834 0
M  V30 31 C -2.442123 0.924891 0.853000 0
M  V30 32 C -1.539459 3.848632 -0.326751 0
M  V30 33 S -0.214390 4.455039 -1.398451 0
M  V30 34 C 4.306659 -0.363354 -1.385572 0
M  V30 35 H 2.927028 -3.361875 1.881796 0
M  V30 36 H 2.024481 -1.823837 2.113175 0
M  V30 37 H 3.801177 -1.942437 2.453077 0
M  V30 38 H 5.629078 -0.510691 1.416559 0
M  V30 39 H 4.098868 0.378751 1.682338 0
M  V30 40 H 5.045207 2.113039 0.574636 0
M  V30 41 H 6.320365 1.113391 -0.295244 0
M  V30 42 H 4.669155 1.683266 -1.968144 0
M  V30 43 H 2.321365 1.051431 0.019212 0
M  V30 44 H 0.476558 1.662937 0.329088 0
M  V30 45 H -3.431933 1.977601 3.863311 0
M  V30 46 H -4.542514 -0.618582 2.996704 0
M  V30 47 H -5.739937 -2.501216 1.161038 0
M  V30 48 H -4.977905 -4.379146 -0.875030 0
M  V30 49 H -3.853045 -6.514035 -1.092214 0
M  V30 50 H -2.234431 -7.218404 0.650864 0
M  V30 51 H -1.828138 -5.710505 2.567240 0
M  V30 52 H -1.802567 0.289618 -1.019433 0
M  V30 53 H -2.422990 4.552543 -0.422061 0
M  V30 54 H 5.260720 -0.688167 -1.781169 0
M  V30 55 H 3.460143 -0.685848 -2.012322 0
M  V30 END ATOM
M  V30 BEGIN BOND
M  V30 1 1 1 2
M  V30 2 2 2 3
M  V30 3 1 2 4
M  V30 4 1 4 5
M  V30 5 1 5 6
M  V30 6 1 6 7
M  V30 7 1 7 8
M  V30 8 1 8 9
M  V30 9 2 9 10
M  V30 10 1 9 11
M  V30 11 2 11 12
M  V30 12 1 12 13
M  V30 13 1 13 14
M  V30 14 1 14 15
M  V30 15 2 15 16
M  V30 16 1 16 17
M  V30 17 2 17 18
M  V30 18 1 18 19
M  V30 19 1 19 20
M  V30 20 1 20 21
M  V30 21 2 21 22
M  V30 22 1 22 23
M  V30 23 2 23 24
M  V30 24 1 24 25
M  V30 25 2 25 26
M  V30 26 1 26 27
M  V30 27 2 19 28
M  V30 28 1 28 29
M  V30 29 1 28 30
M  V30 30 2 30 31
M  V30 31 2 13 32
M  V30 32 1 32 33
M  V30 33 1 7 34
M  V30 34 1 34 4
M  V30 35 1 33 11
M  V30 36 1 31 14
M  V30 37 1 31 17
M  V30 38 1 26 21
M  V30 39 1 1 35
M  V30 40 1 1 36
M  V30 41 1 1 37
M  V30 42 1 5 38
M  V30 43 1 5 39
M  V30 44 1 6 40
M  V30 45 1 6 41
M  V30 46 1 7 42 CFG=3
M  V30 47 1 8 43
M  V30 48 1 12 44
M  V30 49 1 16 45
M  V30 50 1 18 46
M  V30 51 1 20 47
M  V30 52 1 22 48
M  V30 53 1 23 49
M  V30 54 1 24 50
M  V30 55 1 25 51
M  V30 56 1 30 52
M  V30 57 1 32 53
M  V30 58 1 34 54
M  V30 59 1 34 55
M  V30 END BOND
M  V30 END CTAB
M  END
>  <Dataset>  (411) 
ChEMBL_Kinases

>  <Ligand_Instance>  (411) 
nan

>  <PDB_ID>  (411) 
nan

>  <Standardized_SMILES>  (411) 
CC(=O)N1CC[C@H](NC(=O)c2cc(-n3ncc4cc(Nc5ccccc5Cl)c(F)cc43)cs2)C1

>  <Name>  (411) 
nan

>  <Pocket>  (411) 
nan

>  <ATP_Site>  (411) 
nan

>  <Peripheral>  (411) 
nan

>  <Num_H_Atoms_ProtBoundConf>  (411) 
nan

>  <Num_Resolved_Atoms>  (411) 
nan

>  <Num_Not_Resolved_Atoms>  (411) 
nan

$$$$
CHEMBL3634783
     RDKit          3D

  0  0  0  0  0  0  0  0  0  0999 V3000
M  V30 BEGIN CTAB
M  V30 COUNTS 48 52 0 0 0
M  V30 BEGIN ATOM
M  V30 1 C 4.952165 -6.140123 -0.298841 0
M  V30 2 C 4.412610 -4.774535 -0.087341 0
M  V30 3 C 5.210481 -3.823687 0.514379 0
M  V30 4 N 4.771629 -2.542804 0.725338 0
M  V30 5 C 3.507913 -2.289295 0.301014 0
M  V30 6 C 2.680483 -3.197283 -0.298993 0
M  V30 7 C 1.335937 -3.067192 -0.786252 0
M  V30 8 C 0.651707 -1.880321 -0.689774 0
M  V30 9 C -0.668800 -1.433277 -1.071340 0
M  V30 10 C -1.606898 -0.310983 -1.043237 0
M  V30 11 C -0.681923 0.657763 -0.420584 0
M  V30 12 C 0.608400 1.070047 -0.470539 0
M  V30 13 C 1.008491 2.115162 0.313865 0
M  V30 14 C 0.150115 2.778098 1.159073 0
M  V30 15 C -1.156531 2.365695 1.207458 0
M  V30 16 N -2.105518 2.982690 2.112829 0
M  V30 17 C -1.679316 3.089826 3.530402 0
M  V30 18 C -2.412162 1.864763 4.095375 0
M  V30 19 N -3.701260 1.656757 3.584768 0
M  V30 20 C -4.333006 2.562470 2.724437 0
M  V30 21 C -3.458146 3.540467 1.987352 0
M  V30 22 N -1.512337 1.324733 0.415109 0
M  V30 23 N -2.391337 -1.133790 -1.572078 0
M  V30 24 N -2.356509 -2.299499 -1.929464 0
M  V30 25 C -1.114069 -2.645413 -1.612585 0
M  V30 26 C -0.614613 -3.902312 -1.801156 0
M  V30 27 N 0.643542 -4.077122 -1.365308 0
M  V30 28 N 3.177603 -4.428445 -0.471798 0
M  V30 29 H 5.352680 -6.583823 0.644608 0
M  V30 30 H 5.769480 -6.166981 -1.071831 0
M  V30 31 H 4.177073 -6.849664 -0.647367 0
M  V30 32 H 6.221601 -3.987403 0.869349 0
M  V30 33 H 3.132538 -1.301754 0.446910 0
M  V30 34 H 1.303022 -1.207580 -0.143474 0
M  V30 35 H 1.139705 0.516897 -1.203750 0
M  V30 36 H 2.065302 2.346051 0.186846 0
M  V30 37 H 0.515132 3.593303 1.759165 0
M  V30 38 H -0.609360 2.929241 3.648146 0
M  V30 39 H -2.098388 3.950451 4.045741 0
M  V30 40 H -1.774965 1.006214 3.727002 0
M  V30 41 H -2.287572 1.884534 5.188187 0
M  V30 42 H -3.907596 0.667621 3.309548 0
M  V30 43 H -5.110934 3.149011 3.254616 0
M  V30 44 H -4.882507 2.005168 1.927418 0
M  V30 45 H -3.693957 3.685314 0.935869 0
M  V30 46 H -3.488369 4.535354 2.482136 0
M  V30 47 H -3.250030 -2.689835 -2.359219 0
M  V30 48 H -1.147483 -4.711723 -2.257285 0
M  V30 END ATOM
M  V30 BEGIN BOND
M  V30 1 1 1 2
M  V30 2 2 2 3
M  V30 3 1 3 4
M  V30 4 2 4 5
M  V30 5 1 5 6
M  V30 6 1 6 7
M  V30 7 2 7 8
M  V30 8 1 8 9
M  V30 9 1 9 10
M  V30 10 1 10 11
M  V30 11 2 11 12
M  V30 12 1 12 13
M  V30 13 2 13 14
M  V30 14 1 14 15
M  V30 15 1 15 16
M  V30 16 1 16 17
M  V30 17 1 17 18
M  V30 18 1 18 19
M  V30 19 1 19 20
M  V30 20 1 20 21
M  V30 21 2 15 22
M  V30 22 2 10 23
M  V30 23 1 23 24
M  V30 24 1 24 25
M  V30 25 1 25 26
M  V30 26 2 26 27
M  V30 27 2 6 28
M  V30 28 1 28 2
M  V30 29 1 27 7
M  V30 30 2 25 9
M  V30 31 1 22 11
M  V30 32 1 21 16
M  V30 33 1 1 29
M  V30 34 1 1 30
M  V30 35 1 1 31
M  V30 36 1 3 32
M  V30 37 1 5 33
M  V30 38 1 8 34
M  V30 39 1 12 35
M  V30 40 1 13 36
M  V30 41 1 14 37
M  V30 42 1 17 38
M  V30 43 1 17 39
M  V30 44 1 18 40
M  V30 45 1 18 41
M  V30 46 1 19 42
M  V30 47 1 20 43
M  V30 48 1 20 44
M  V30 49 1 21 45
M  V30 50 1 21 46
M  V30 51 1 24 47
M  V30 52 1 26 48
M  V30 END BOND
M  V30 END CTAB
M  END
>  <Dataset>  (412) 
ChEMBL_Kinases

>  <Ligand_Instance>  (412) 
nan

>  <PDB_ID>  (412) 
nan

>  <Standardized_SMILES>  (412) 
Cc1cncc(-c2cc3c(-c4cccc(N5CCNCC5)n4)n[nH]c3cn2)n1

>  <Name>  (412) 
nan

>  <Pocket>  (412) 
nan

>  <ATP_Site>  (412) 
nan

>  <Peripheral>  (412) 
nan

>  <Num_H_Atoms_ProtBoundConf>  (412) 
nan

>  <Num_Resolved_Atoms>  (412) 
nan

>  <Num_Not_Resolved_Atoms>  (412) 
nan

$$$$
CHEMBL3634782
     RDKit          3D

  0  0  0  0  0  0  0  0  0  0999 V3000
M  V30 BEGIN CTAB
M  V30 COUNTS 49 53 0 0 0
M  V30 BEGIN ATOM
M  V30 1 C -3.416777 -6.401692 -0.571920 0
M  V30 2 C -2.769045 -5.137424 -0.111746 0
M  V30 3 C -2.905761 -4.840539 1.250211 0
M  V30 4 N -2.317482 -3.699441 1.658255 0
M  V30 5 C -1.636225 -2.885587 0.814742 0
M  V30 6 C -1.491094 -3.160552 -0.527168 0
M  V30 7 C -0.764348 -2.319280 -1.473288 0
M  V30 8 C -0.133728 -1.144954 -1.122609 0
M  V30 9 C 0.549482 -0.350654 -1.992185 0
M  V30 10 C 1.242081 0.833789 -1.883907 0
M  V30 11 C 1.459478 1.641621 -0.694071 0
M  V30 12 C 2.219711 2.806802 -0.822580 0
M  V30 13 C 2.516646 3.670761 0.209696 0
M  V30 14 C 1.986877 3.291674 1.445914 0
M  V30 15 C 1.235067 2.149686 1.599544 0
M  V30 16 N 0.690050 1.765460 2.854272 0
M  V30 17 C 0.833188 2.508119 4.089388 0
M  V30 18 C 1.858596 1.687217 4.855872 0
M  V30 19 N 1.412751 0.369470 4.995642 0
M  V30 20 C 0.279291 -0.086664 4.300498 0
M  V30 21 C -0.093978 0.556370 3.029627 0
M  V30 22 N 0.982429 1.345319 0.539102 0
M  V30 23 N 1.690733 1.097764 -3.128479 0
M  V30 24 N 1.315548 0.158967 -3.964082 0
M  V30 25 C 0.601981 -0.772534 -3.321135 0
M  V30 26 C -0.024049 -1.943440 -3.681410 0
M  V30 27 N -0.683555 -2.685230 -2.777281 0
M  V30 28 C -2.080845 -4.321305 -0.979571 0
M  V30 29 H -3.523010 -7.127803 0.266865 0
M  V30 30 H -2.862627 -6.884296 -1.390275 0
M  V30 31 H -4.451332 -6.248820 -0.944816 0
M  V30 32 H -3.442410 -5.470332 1.946571 0
M  V30 33 H -1.192146 -1.988349 1.214038 0
M  V30 34 H -0.180197 -0.832500 -0.111469 0
M  V30 35 H 2.613364 3.068694 -1.797048 0
M  V30 36 H 3.106846 4.552590 0.049744 0
M  V30 37 H 2.207240 3.953745 2.270869 0
M  V30 38 H 1.188869 3.541158 3.950547 0
M  V30 39 H -0.096108 2.480789 4.699393 0
M  V30 40 H 2.804869 1.767435 4.280637 0
M  V30 41 H 2.025553 2.217878 5.814362 0
M  V30 42 H 1.595460 -0.162258 5.828886 0
M  V30 43 H -0.580614 -0.050635 4.999990 0
M  V30 44 H 0.420096 -1.186239 4.108617 0
M  V30 45 H -0.029331 -0.111498 2.153213 0
M  V30 46 H -1.171427 0.895866 3.055667 0
M  V30 47 H 1.563216 0.179975 -4.973542 0
M  V30 48 H 0.026330 -2.266599 -4.737001 0
M  V30 49 H -1.986762 -4.569972 -2.030980 0
M  V30 END ATOM
M  V30 BEGIN BOND
M  V30 1 1 1 2
M  V30 2 2 2 3
M  V30 3 1 3 4
M  V30 4 2 4 5
M  V30 5 1 5 6
M  V30 6 1 6 7
M  V30 7 2 7 8
M  V30 8 1 8 9
M  V30 9 1 9 10
M  V30 10 1 10 11
M  V30 11 2 11 12
M  V30 12 1 12 13
M  V30 13 2 13 14
M  V30 14 1 14 15
M  V30 15 1 15 16
M  V30 16 1 16 17
M  V30 17 1 17 18
M  V30 18 1 18 19
M  V30 19 1 19 20
M  V30 20 1 20 21
M  V30 21 2 15 22
M  V30 22 2 10 23
M  V30 23 1 23 24
M  V30 24 1 24 25
M  V30 25 1 25 26
M  V30 26 2 26 27
M  V30 27 2 6 28
M  V30 28 1 28 2
M  V30 29 1 27 7
M  V30 30 2 25 9
M  V30 31 1 22 11
M  V30 32 1 21 16
M  V30 33 1 1 29
M  V30 34 1 1 30
M  V30 35 1 1 31
M  V30 36 1 3 32
M  V30 37 1 5 33
M  V30 38 1 8 34
M  V30 39 1 12 35
M  V30 40 1 13 36
M  V30 41 1 14 37
M  V30 42 1 17 38
M  V30 43 1 17 39
M  V30 44 1 18 40
M  V30 45 1 18 41
M  V30 46 1 19 42
M  V30 47 1 20 43
M  V30 48 1 20 44
M  V30 49 1 21 45
M  V30 50 1 21 46
M  V30 51 1 24 47
M  V30 52 1 26 48
M  V30 53 1 28 49
M  V30 END BOND
M  V30 END CTAB
M  END
>  <Dataset>  (413) 
ChEMBL_Kinases

>  <Ligand_Instance>  (413) 
nan

>  <PDB_ID>  (413) 
nan

>  <Standardized_SMILES>  (413) 
Cc1cncc(-c2cc3c(-c4cccc(N5CCNCC5)n4)n[nH]c3cn2)c1

>  <Name>  (413) 
nan

>  <Pocket>  (413) 
nan

>  <ATP_Site>  (413) 
nan

>  <Peripheral>  (413) 
nan

>  <Num_H_Atoms_ProtBoundConf>  (413) 
nan

>  <Num_Resolved_Atoms>  (413) 
nan

>  <Num_Not_Resolved_Atoms>  (413) 
nan

$$$$
CHEMBL3634781
     RDKit          3D

  0  0  0  0  0  0  0  0  0  0999 V3000
M  V30 BEGIN CTAB
M  V30 COUNTS 46 50 0 0 0
M  V30 BEGIN ATOM
M  V30 1 C 0.445225 -6.027817 2.133591 0
M  V30 2 C 1.427680 -5.343635 2.822652 0
M  V30 3 N 1.600424 -4.011831 2.635697 0
M  V30 4 C 0.808459 -3.353741 1.772612 0
M  V30 5 C -0.188585 -3.956827 1.050111 0
M  V30 6 C -1.069247 -3.298015 0.108899 0
M  V30 7 C -0.992253 -1.949140 -0.166561 0
M  V30 8 C -1.821527 -1.301250 -1.059861 0
M  V30 9 C -1.940250 0.003251 -1.495973 0
M  V30 10 C -1.129455 1.140633 -1.073001 0
M  V30 11 C -1.381505 2.385541 -1.611024 0
M  V30 12 C -0.606463 3.476435 -1.207608 0
M  V30 13 C 0.415361 3.322283 -0.270758 0
M  V30 14 C 0.615702 2.053009 0.228037 0
M  V30 15 N 1.643061 1.840005 1.184728 0
M  V30 16 C 2.531097 2.816877 1.716383 0
M  V30 17 C 2.382988 2.968905 3.223900 0
M  V30 18 N 2.285453 1.676068 3.867787 0
M  V30 19 C 2.720955 0.603517 2.992474 0
M  V30 20 C 1.889304 0.519572 1.736917 0
M  V30 21 N -0.129378 1.029402 -0.166173 0
M  V30 22 N -2.959533 0.030945 -2.398436 0
M  V30 23 N -3.461411 -1.184934 -2.530053 0
M  V30 24 C -2.799564 -2.041461 -1.730767 0
M  V30 25 C -2.850031 -3.368135 -1.437649 0
M  V30 26 N -2.026859 -3.963960 -0.562955 0
M  V30 27 C -0.346633 -5.313259 1.256238 0
M  V30 28 H 0.247501 -7.097325 2.231888 0
M  V30 29 H 2.023577 -5.965004 3.504157 0
M  V30 30 H 0.959095 -2.296631 1.636090 0
M  V30 31 H -0.260246 -1.328342 0.318571 0
M  V30 32 H -2.184938 2.516167 -2.350036 0
M  V30 33 H -0.832102 4.450523 -1.653565 0
M  V30 34 H 0.973733 4.181918 0.001146 0
M  V30 35 H 2.533177 3.800070 1.258935 0
M  V30 36 H 3.582155 2.425309 1.580478 0
M  V30 37 H 3.269524 3.536003 3.573271 0
M  V30 38 H 1.457548 3.536475 3.472158 0
M  V30 39 H 1.334793 1.487009 4.237874 0
M  V30 40 H 2.581756 -0.345178 3.548474 0
M  V30 41 H 3.812888 0.716147 2.793667 0
M  V30 42 H 0.911362 0.075337 2.043166 0
M  V30 43 H 2.379080 -0.159012 1.036348 0
M  V30 44 H -4.251405 -1.492803 -3.145740 0
M  V30 45 H -3.585358 -3.992367 -1.924827 0
M  V30 46 H -1.126857 -5.847202 0.706636 0
M  V30 END ATOM
M  V30 BEGIN BOND
M  V30 1 2 1 2
M  V30 2 1 2 3
M  V30 3 2 3 4
M  V30 4 1 4 5
M  V30 5 1 5 6
M  V30 6 2 6 7
M  V30 7 1 7 8
M  V30 8 1 8 9
M  V30 9 1 9 10
M  V30 10 2 10 11
M  V30 11 1 11 12
M  V30 12 2 12 13
M  V30 13 1 13 14
M  V30 14 1 14 15
M  V30 15 1 15 16
M  V30 16 1 16 17
M  V30 17 1 17 18
M  V30 18 1 18 19
M  V30 19 1 19 20
M  V30 20 2 14 21
M  V30 21 2 9 22
M  V30 22 1 22 23
M  V30 23 1 23 24
M  V30 24 1 24 25
M  V30 25 2 25 26
M  V30 26 2 5 27
M  V30 27 1 27 1
M  V30 28 1 26 6
M  V30 29 2 24 8
M  V30 30 1 21 10
M  V30 31 1 20 15
M  V30 32 1 1 28
M  V30 33 1 2 29
M  V30 34 1 4 30
M  V30 35 1 7 31
M  V30 36 1 11 32
M  V30 37 1 12 33
M  V30 38 1 13 34
M  V30 39 1 16 35
M  V30 40 1 16 36
M  V30 41 1 17 37
M  V30 42 1 17 38
M  V30 43 1 18 39
M  V30 44 1 19 40
M  V30 45 1 19 41
M  V30 46 1 20 42
M  V30 47 1 20 43
M  V30 48 1 23 44
M  V30 49 1 25 45
M  V30 50 1 27 46
M  V30 END BOND
M  V30 END CTAB
M  END
>  <Dataset>  (414) 
ChEMBL_Kinases

>  <Ligand_Instance>  (414) 
nan

>  <PDB_ID>  (414) 
nan

>  <Standardized_SMILES>  (414) 
c1cncc(-c2cc3c(-c4cccc(N5CCNCC5)n4)n[nH]c3cn2)c1

>  <Name>  (414) 
nan

>  <Pocket>  (414) 
nan

>  <ATP_Site>  (414) 
nan

>  <Peripheral>  (414) 
nan

>  <Num_H_Atoms_ProtBoundConf>  (414) 
nan

>  <Num_Resolved_Atoms>  (414) 
nan

>  <Num_Not_Resolved_Atoms>  (414) 
nan

$$$$
CHEMBL3634780
     RDKit          3D

  0  0  0  0  0  0  0  0  0  0999 V3000
M  V30 BEGIN CTAB
M  V30 COUNTS 42 45 0 0 0
M  V30 BEGIN ATOM
M  V30 1 N -2.272148 -2.483638 -1.719024 0
M  V30 2 C -1.735698 -1.289005 -1.085772 0
M  V30 3 C -2.694030 -0.127103 -1.379924 0
M  V30 4 N -2.155986 1.061977 -0.747377 0
M  V30 5 C -0.864388 1.510732 -1.143756 0
M  V30 6 C -0.682316 2.415872 -2.193209 0
M  V30 7 C 0.614590 2.813006 -2.528125 0
M  V30 8 C 1.712358 2.324150 -1.837947 0
M  V30 9 C 1.488862 1.432046 -0.808147 0
M  V30 10 C 2.643684 0.911498 -0.074655 0
M  V30 11 N 3.948460 1.205852 -0.287423 0
M  V30 12 N 4.706380 0.544315 0.571529 0
M  V30 13 C 3.924564 -0.198301 1.367298 0
M  V30 14 C 4.105499 -1.073649 2.419037 0
M  V30 15 N 3.066450 -1.696975 3.047455 0
M  V30 16 C 1.787919 -1.499370 2.682314 0
M  V30 17 C 0.738481 -2.208371 3.410755 0
M  V30 18 C 1.149435 -3.038580 4.432919 0
M  V30 19 C 0.185756 -3.743081 5.164856 0
M  V30 20 C -1.138891 -3.565559 4.818644 0
M  V30 21 N -1.545120 -2.755743 3.821034 0
M  V30 22 C -0.601185 -2.072236 3.111834 0
M  V30 23 C 1.582539 -0.628639 1.633501 0
M  V30 24 C 2.603322 0.013443 0.981062 0
M  V30 25 N 0.224035 1.074451 -0.516592 0
M  V30 26 H -2.928314 -2.963970 -1.071695 0
M  V30 27 H -1.550468 -3.129505 -2.074984 0
M  V30 28 H -0.743463 -1.083222 -1.508493 0
M  V30 29 H -1.673325 -1.470011 0.006400 0
M  V30 30 H -2.851238 -0.009687 -2.450013 0
M  V30 31 H -3.682752 -0.387817 -0.924958 0
M  V30 32 H -2.605107 1.656299 -0.012283 0
M  V30 33 H -1.561309 2.789740 -2.725110 0
M  V30 34 H 0.710245 3.512697 -3.344029 0
M  V30 35 H 2.722801 2.647890 -2.115789 0
M  V30 36 H 5.731853 0.503138 0.725929 0
M  V30 37 H 5.128566 -1.263788 2.748984 0
M  V30 38 H 2.183893 -3.182217 4.709192 0
M  V30 39 H 0.472928 -4.403443 5.973790 0
M  V30 40 H -1.937152 -4.061928 5.322039 0
M  V30 41 H -0.918943 -1.420961 2.310460 0
M  V30 42 H 0.574102 -0.452855 1.321988 0
M  V30 END ATOM
M  V30 BEGIN BOND
M  V30 1 1 1 2
M  V30 2 1 2 3
M  V30 3 1 3 4
M  V30 4 1 4 5
M  V30 5 2 5 6
M  V30 6 1 6 7
M  V30 7 2 7 8
M  V30 8 1 8 9
M  V30 9 1 9 10
M  V30 10 2 10 11
M  V30 11 1 11 12
M  V30 12 1 12 13
M  V30 13 2 13 14
M  V30 14 1 14 15
M  V30 15 2 15 16
M  V30 16 1 16 17
M  V30 17 2 17 18
M  V30 18 1 18 19
M  V30 19 2 19 20
M  V30 20 1 20 21
M  V30 21 2 21 22
M  V30 22 1 16 23
M  V30 23 2 23 24
M  V30 24 2 9 25
M  V30 25 1 25 5
M  V30 26 1 24 10
M  V30 27 1 24 13
M  V30 28 1 22 17
M  V30 29 1 1 26
M  V30 30 1 1 27
M  V30 31 1 2 28
M  V30 32 1 2 29
M  V30 33 1 3 30
M  V30 34 1 3 31
M  V30 35 1 4 32
M  V30 36 1 6 33
M  V30 37 1 7 34
M  V30 38 1 8 35
M  V30 39 1 12 36
M  V30 40 1 14 37
M  V30 41 1 18 38
M  V30 42 1 19 39
M  V30 43 1 20 40
M  V30 44 1 22 41
M  V30 45 1 23 42
M  V30 END BOND
M  V30 END CTAB
M  END
>  <Dataset>  (415) 
ChEMBL_Kinases

>  <Ligand_Instance>  (415) 
nan

>  <PDB_ID>  (415) 
nan

>  <Standardized_SMILES>  (415) 
NCCNc1cccc(-c2n[nH]c3cnc(-c4cccnc4)cc23)n1

>  <Name>  (415) 
nan

>  <Pocket>  (415) 
nan

>  <ATP_Site>  (415) 
nan

>  <Peripheral>  (415) 
nan

>  <Num_H_Atoms_ProtBoundConf>  (415) 
nan

>  <Num_Resolved_Atoms>  (415) 
nan

>  <Num_Not_Resolved_Atoms>  (415) 
nan

$$$$
CHEMBL3634779
     RDKit          3D

  0  0  0  0  0  0  0  0  0  0999 V3000
M  V30 BEGIN CTAB
M  V30 COUNTS 49 53 0 0 0
M  V30 BEGIN ATOM
M  V30 1 N -0.522776 -5.119938 0.613140 0
M  V30 2 C 0.259066 -5.850707 -0.375875 0
M  V30 3 C 0.353270 -5.067006 -1.637775 0
M  V30 4 C 1.632280 -4.274580 -1.660087 0
M  V30 5 N 2.028593 -4.046269 -0.286622 0
M  V30 6 C 1.873557 -2.843521 0.455761 0
M  V30 7 C 2.556111 -2.621083 1.626905 0
M  V30 8 N 2.376058 -1.472989 2.336363 0
M  V30 9 C 1.510385 -0.557278 1.862916 0
M  V30 10 C 0.807312 -0.741068 0.695724 0
M  V30 11 C -0.156614 0.232670 0.185564 0
M  V30 12 C -0.454796 1.406603 0.842282 0
M  V30 13 C -1.404316 2.257637 0.267636 0
M  V30 14 C -1.894862 3.473881 0.698423 0
M  V30 15 C -1.546081 4.235336 1.918853 0
M  V30 16 C -0.249887 4.626167 2.231153 0
M  V30 17 C -0.053284 5.351826 3.414794 0
M  V30 18 C -1.082542 5.690120 4.273562 0
M  V30 19 C -2.350876 5.277113 3.916248 0
M  V30 20 C -2.593246 4.560827 2.760717 0
M  V30 21 F -3.907811 4.219758 2.539618 0
M  V30 22 N -2.810337 3.890377 -0.223204 0
M  V30 23 N -2.889508 2.975674 -1.187737 0
M  V30 24 C -2.044667 1.949887 -0.934016 0
M  V30 25 C -1.688234 0.741322 -1.540426 0
M  V30 26 N -0.775808 -0.067365 -0.979828 0
M  V30 27 N 1.037984 -1.893123 0.053790 0
M  V30 28 C 2.611233 -5.283762 0.257250 0
M  V30 29 C 1.538095 -6.366047 0.185228 0
M  V30 30 H 0.031618 -4.855155 1.447602 0
M  V30 31 H -1.095820 -4.366223 0.194419 0
M  V30 32 H -0.378679 -6.753684 -0.614755 0
M  V30 33 H 0.225337 -5.684452 -2.550805 0
M  V30 34 H -0.477898 -4.313912 -1.620000 0
M  V30 35 H 1.512899 -3.290494 -2.164780 0
M  V30 36 H 2.430216 -4.843241 -2.228750 0
M  V30 37 H 3.256074 -3.321106 2.044772 0
M  V30 38 H 1.396230 0.338545 2.455040 0
M  V30 39 H 0.027702 1.657255 1.766178 0
M  V30 40 H 0.548384 4.359751 1.554712 0
M  V30 41 H 0.965488 5.643420 3.631976 0
M  V30 42 H -0.851555 6.256905 5.176072 0
M  V30 43 H -3.146033 5.563712 4.624868 0
M  V30 44 H -3.491061 2.971832 -2.051940 0
M  V30 45 H -2.191976 0.516764 -2.470121 0
M  V30 46 H 3.014308 -5.167370 1.259472 0
M  V30 47 H 3.414341 -5.584832 -0.438825 0
M  V30 48 H 1.917654 -7.266162 -0.327669 0
M  V30 49 H 1.327376 -6.653466 1.247778 0
M  V30 END ATOM
M  V30 BEGIN BOND
M  V30 1 1 1 2
M  V30 2 1 2 3
M  V30 3 1 3 4
M  V30 4 1 4 5
M  V30 5 1 5 6
M  V30 6 2 6 7
M  V30 7 1 7 8
M  V30 8 2 8 9
M  V30 9 1 9 10
M  V30 10 1 10 11
M  V30 11 2 11 12
M  V30 12 1 12 13
M  V30 13 1 13 14
M  V30 14 1 14 15
M  V30 15 2 15 16
M  V30 16 1 16 17
M  V30 17 2 17 18
M  V30 18 1 18 19
M  V30 19 2 19 20
M  V30 20 1 20 21
M  V30 21 2 14 22
M  V30 22 1 22 23
M  V30 23 1 23 24
M  V30 24 1 24 25
M  V30 25 2 25 26
M  V30 26 2 10 27
M  V30 27 1 5 28
M  V30 28 1 28 29
M  V30 29 1 29 2
M  V30 30 1 27 6
M  V30 31 1 26 11
M  V30 32 2 24 13
M  V30 33 1 20 15
M  V30 34 1 1 30
M  V30 35 1 1 31
M  V30 36 1 2 32
M  V30 37 1 3 33
M  V30 38 1 3 34
M  V30 39 1 4 35
M  V30 40 1 4 36
M  V30 41 1 7 37
M  V30 42 1 9 38
M  V30 43 1 12 39
M  V30 44 1 16 40
M  V30 45 1 17 41
M  V30 46 1 18 42
M  V30 47 1 19 43
M  V30 48 1 23 44
M  V30 49 1 25 45
M  V30 50 1 28 46
M  V30 51 1 28 47
M  V30 52 1 29 48
M  V30 53 1 29 49
M  V30 END BOND
M  V30 END CTAB
M  END
>  <Dataset>  (416) 
ChEMBL_Kinases

>  <Ligand_Instance>  (416) 
nan

>  <PDB_ID>  (416) 
nan

>  <Standardized_SMILES>  (416) 
NC1CCN(c2cncc(-c3cc4c(-c5ccccc5F)n[nH]c4cn3)n2)CC1

>  <Name>  (416) 
nan

>  <Pocket>  (416) 
nan

>  <ATP_Site>  (416) 
nan

>  <Peripheral>  (416) 
nan

>  <Num_H_Atoms_ProtBoundConf>  (416) 
nan

>  <Num_Resolved_Atoms>  (416) 
nan

>  <Num_Not_Resolved_Atoms>  (416) 
nan

$$$$
CHEMBL3634778
     RDKit          3D

  0  0  0  0  0  0  0  0  0  0999 V3000
M  V30 BEGIN CTAB
M  V30 COUNTS 42 45 0 0 0
M  V30 BEGIN ATOM
M  V30 1 C 3.891009 -5.737162 -1.158482 0
M  V30 2 C 3.855784 -5.174192 0.204286 0
M  V30 3 N 4.419999 -5.638598 1.333186 0
M  V30 4 N 4.179397 -4.876173 2.366783 0
M  V30 5 C 3.423439 -3.848347 1.943023 0
M  V30 6 C 2.837975 -2.726707 2.488739 0
M  V30 7 N 2.119460 -1.868648 1.766854 0
M  V30 8 C 1.887270 -1.991253 0.460147 0
M  V30 9 C 1.093493 -1.023241 -0.284656 0
M  V30 10 C 0.815132 -1.087626 -1.629392 0
M  V30 11 N 0.074456 -0.158591 -2.255454 0
M  V30 12 C -0.428894 0.889644 -1.562438 0
M  V30 13 C -0.156436 0.963992 -0.215845 0
M  V30 14 N -0.652620 2.035595 0.568488 0
M  V30 15 C -1.462411 3.137157 0.086733 0
M  V30 16 C -2.879097 2.895716 0.592934 0
M  V30 17 C -2.848220 2.111547 1.871168 0
M  V30 18 N -4.078869 2.236027 2.622774 0
M  V30 19 C -1.646411 2.395662 2.733056 0
M  V30 20 C -0.380207 2.126899 1.990222 0
M  V30 21 N 0.584191 0.026032 0.386057 0
M  V30 22 C 2.454761 -3.101466 -0.130611 0
M  V30 23 C 3.202652 -4.005295 0.592162 0
M  V30 24 H 4.456935 -6.706466 -1.113319 0
M  V30 25 H 2.851058 -6.031518 -1.467551 0
M  V30 26 H 4.354880 -5.025733 -1.856757 0
M  V30 27 H 4.468342 -4.957909 3.363925 0
M  V30 28 H 2.975451 -2.544656 3.556319 0
M  V30 29 H 1.208612 -1.911681 -2.183521 0
M  V30 30 H -1.020699 1.622624 -2.086833 0
M  V30 31 H -1.425940 3.289927 -0.992356 0
M  V30 32 H -1.156161 4.100901 0.573620 0
M  V30 33 H -3.392068 3.863109 0.734386 0
M  V30 34 H -3.413714 2.365101 -0.216380 0
M  V30 35 H -2.837547 1.032145 1.556934 0
M  V30 36 H -4.829805 1.860874 1.982009 0
M  V30 37 H -4.041396 1.524236 3.393942 0
M  V30 38 H -1.735220 3.427948 3.132636 0
M  V30 39 H -1.712238 1.696505 3.596475 0
M  V30 40 H 0.279442 3.036585 2.106928 0
M  V30 41 H 0.203429 1.274144 2.360945 0
M  V30 42 H 2.325676 -3.289653 -1.179421 0
M  V30 END ATOM
M  V30 BEGIN BOND
M  V30 1 1 1 2
M  V30 2 2 2 3
M  V30 3 1 3 4
M  V30 4 1 4 5
M  V30 5 2 5 6
M  V30 6 1 6 7
M  V30 7 2 7 8
M  V30 8 1 8 9
M  V30 9 2 9 10
M  V30 10 1 10 11
M  V30 11 2 11 12
M  V30 12 1 12 13
M  V30 13 1 13 14
M  V30 14 1 14 15
M  V30 15 1 15 16
M  V30 16 1 16 17
M  V30 17 1 17 18
M  V30 18 1 17 19
M  V30 19 1 19 20
M  V30 20 2 13 21
M  V30 21 1 8 22
M  V30 22 2 22 23
M  V30 23 1 23 2
M  V30 24 1 23 5
M  V30 25 1 21 9
M  V30 26 1 20 14
M  V30 27 1 1 24
M  V30 28 1 1 25
M  V30 29 1 1 26
M  V30 30 1 4 27
M  V30 31 1 6 28
M  V30 32 1 10 29
M  V30 33 1 12 30
M  V30 34 1 15 31
M  V30 35 1 15 32
M  V30 36 1 16 33
M  V30 37 1 16 34
M  V30 38 1 17 35
M  V30 39 1 18 36
M  V30 40 1 18 37
M  V30 41 1 19 38
M  V30 42 1 19 39
M  V30 43 1 20 40
M  V30 44 1 20 41
M  V30 45 1 22 42
M  V30 END BOND
M  V30 END CTAB
M  END
>  <Dataset>  (417) 
ChEMBL_Kinases

>  <Ligand_Instance>  (417) 
nan

>  <PDB_ID>  (417) 
nan

>  <Standardized_SMILES>  (417) 
Cc1n[nH]c2cnc(-c3cncc(N4CCC(N)CC4)n3)cc12

>  <Name>  (417) 
nan

>  <Pocket>  (417) 
nan

>  <ATP_Site>  (417) 
nan

>  <Peripheral>  (417) 
nan

>  <Num_H_Atoms_ProtBoundConf>  (417) 
nan

>  <Num_Resolved_Atoms>  (417) 
nan

>  <Num_Not_Resolved_Atoms>  (417) 
nan

$$$$
CHEMBL3634777
     RDKit          3D

  0  0  0  0  0  0  0  0  0  0999 V3000
M  V30 BEGIN CTAB
M  V30 COUNTS 49 53 0 0 0
M  V30 BEGIN ATOM
M  V30 1 F 4.996405 -0.861244 1.249568 0
M  V30 2 C 4.379487 -1.583046 0.276713 0
M  V30 3 C 4.425883 -2.979370 0.449404 0
M  V30 4 C 3.757595 -3.590252 -0.550963 0
M  V30 5 C 3.125273 -3.046210 -1.611682 0
M  V30 6 C 3.053611 -1.596985 -1.807079 0
M  V30 7 C 3.779656 -1.038904 -0.714290 0
M  V30 8 C 3.630753 0.497456 -1.020116 0
M  V30 9 N 3.592336 1.823723 -1.333946 0
M  V30 10 N 2.696096 2.496730 -0.830483 0
M  V30 11 C 1.745602 2.136546 0.033768 0
M  V30 12 C 0.948719 2.746511 0.655025 0
M  V30 13 N 0.278109 2.242029 1.712864 0
M  V30 14 C 0.688519 0.881750 1.911447 0
M  V30 15 C 0.090806 -0.016967 2.815381 0
M  V30 16 C 0.921937 -0.691686 3.622105 0
M  V30 17 N 0.360571 -1.474460 4.634928 0
M  V30 18 C -1.058186 -1.448365 4.712338 0
M  V30 19 C -1.878524 -0.734346 3.825941 0
M  V30 20 C -1.251051 -0.004329 2.844457 0
M  V30 21 O -1.984136 0.770575 1.813567 0
M  V30 22 C -2.933316 -0.250368 1.303416 0 CFG=2
M  V30 23 C -2.147889 -0.877868 0.112415 0
M  V30 24 C -2.896965 -2.080235 -0.350604 0
M  V30 25 C -4.173944 -1.563658 -0.913905 0
M  V30 26 N -4.473126 -0.194331 -0.533441 0
M  V30 27 C -4.222370 0.076827 0.871025 0
M  V30 28 C 1.746306 0.229546 0.985156 0
M  V30 29 C 2.486447 0.867067 -0.201900 0
M  V30 30 H 4.943966 -3.338920 1.317530 0
M  V30 31 H 3.715639 -4.677672 -0.475542 0
M  V30 32 H 2.690370 -3.717867 -2.414564 0
M  V30 33 H 2.572201 -1.175386 -2.617661 0
M  V30 34 H 2.756602 3.457444 -1.364759 0
M  V30 35 H 0.621877 3.781501 0.432139 0
M  V30 36 H 1.957467 -0.846801 3.694315 0
M  V30 37 H -1.680010 -1.938371 5.364816 0
M  V30 38 H -2.972059 -0.620642 3.818013 0
M  V30 39 H -2.871400 -1.069694 2.060897 0
M  V30 40 H -2.062644 -0.082589 -0.682310 0
M  V30 41 H -1.115358 -1.160638 0.418005 0
M  V30 42 H -2.347581 -2.647629 -1.100347 0
M  V30 43 H -3.085469 -2.745729 0.501244 0
M  V30 44 H -5.060705 -2.256657 -0.740177 0
M  V30 45 H -4.053482 -1.559919 -2.056399 0
M  V30 46 H -5.527121 -0.101833 -0.624297 0
M  V30 47 H -4.518496 1.158293 0.968421 0
M  V30 48 H -5.068359 -0.445637 1.418067 0
M  V30 49 H 2.012858 -0.854839 1.367097 0
M  V30 END ATOM
M  V30 BEGIN BOND
M  V30 1 1 1 2
M  V30 2 2 2 3
M  V30 3 1 3 4
M  V30 4 2 4 5
M  V30 5 1 5 6
M  V30 6 2 6 7
M  V30 7 1 7 8
M  V30 8 2 8 9
M  V30 9 1 9 10
M  V30 10 1 10 11
M  V30 11 2 11 12
M  V30 12 1 12 13
M  V30 13 2 13 14
M  V30 14 1 14 15
M  V30 15 2 15 16
M  V30 16 1 16 17
M  V30 17 2 17 18
M  V30 18 1 18 19
M  V30 19 2 19 20
M  V30 20 1 20 21
M  V30 21 1 21 22
M  V30 22 1 22 23
M  V30 23 1 23 24
M  V30 24 1 24 25
M  V30 25 1 25 26
M  V30 26 1 26 27
M  V30 27 1 14 28
M  V30 28 2 28 29
M  V30 29 1 7 2
M  V30 30 1 29 8
M  V30 31 1 29 11
M  V30 32 1 20 15
M  V30 33 1 27 22
M  V30 34 1 3 30
M  V30 35 1 4 31
M  V30 36 1 5 32
M  V30 37 1 6 33
M  V30 38 1 10 34
M  V30 39 1 12 35
M  V30 40 1 16 36
M  V30 41 1 18 37
M  V30 42 1 19 38
M  V30 43 1 22 39 CFG=1
M  V30 44 1 23 40
M  V30 45 1 23 41
M  V30 46 1 24 42
M  V30 47 1 24 43
M  V30 48 1 25 44
M  V30 49 1 25 45
M  V30 50 1 26 46
M  V30 51 1 27 47
M  V30 52 1 27 48
M  V30 53 1 28 49
M  V30 END BOND
M  V30 END CTAB
M  END
>  <Dataset>  (418) 
ChEMBL_Kinases

>  <Ligand_Instance>  (418) 
nan

>  <PDB_ID>  (418) 
nan

>  <Standardized_SMILES>  (418) 
Fc1ccccc1-c1n[nH]c2cnc(-c3cnccc3O[C@@H]3CCCNC3)cc12

>  <Name>  (418) 
nan

>  <Pocket>  (418) 
nan

>  <ATP_Site>  (418) 
nan

>  <Peripheral>  (418) 
nan

>  <Num_H_Atoms_ProtBoundConf>  (418) 
nan

>  <Num_Resolved_Atoms>  (418) 
nan

>  <Num_Not_Resolved_Atoms>  (418) 
nan

$$$$
CHEMBL3634776
     RDKit          3D

  0  0  0  0  0  0  0  0  0  0999 V3000
M  V30 BEGIN CTAB
M  V30 COUNTS 49 53 0 0 0
M  V30 BEGIN ATOM
M  V30 1 C -0.338072 -5.478186 3.367367 0
M  V30 2 N 0.641754 -4.604048 2.720985 0
M  V30 3 C 1.593171 -3.803022 3.439040 0
M  V30 4 O 1.628391 -3.503567 4.639327 0
M  V30 5 C 2.590942 -3.374875 2.400361 0
M  V30 6 N 1.881763 -3.471013 1.146098 0
M  V30 7 C 2.150250 -2.781378 -0.071398 0
M  V30 8 C 1.606033 -1.558908 -0.412045 0
M  V30 9 C 1.886227 -0.916576 -1.599627 0
M  V30 10 C 1.454402 0.285210 -2.118366 0
M  V30 11 C 0.544416 1.271884 -1.555091 0
M  V30 12 C 0.272616 2.411093 -2.293345 0
M  V30 13 C -0.559063 3.428577 -1.903410 0
M  V30 14 C -1.154471 3.268954 -0.671291 0
M  V30 15 C -0.905249 2.146875 0.088758 0
M  V30 16 N -1.475531 1.900716 1.368436 0
M  V30 17 C -1.248856 0.738999 2.209286 0
M  V30 18 C -2.586985 -0.011803 2.245700 0
M  V30 19 N -3.622767 0.803249 2.799815 0
M  V30 20 C -3.731787 2.100261 2.211739 0
M  V30 21 C -2.393321 2.790750 2.048716 0
M  V30 22 N -0.067550 1.197284 -0.384731 0
M  V30 23 N 2.084424 0.359965 -3.320894 0
M  V30 24 N 2.828700 -0.705377 -3.505060 0
M  V30 25 C 2.760188 -1.553789 -2.473719 0
M  V30 26 C 3.309414 -2.778013 -2.140137 0
M  V30 27 N 2.993680 -3.364961 -0.948557 0
M  V30 28 C 0.804593 -4.412229 1.301133 0
M  V30 29 O 0.114662 -4.980020 0.412708 0
M  V30 30 H -1.064464 -4.814960 3.892046 0
M  V30 31 H -0.867693 -6.046726 2.575234 0
M  V30 32 H 0.217695 -6.157424 4.036288 0
M  V30 33 H 3.454642 -4.074303 2.410261 0
M  V30 34 H 2.919210 -2.349042 2.657855 0
M  V30 35 H 0.942759 -1.111289 0.289666 0
M  V30 36 H 0.753657 2.520135 -3.267409 0
M  V30 37 H -0.750666 4.303391 -2.500738 0
M  V30 38 H -1.816581 4.022423 -0.300447 0
M  V30 39 H -0.964380 1.050347 3.236026 0
M  V30 40 H -0.528625 0.065997 1.748171 0
M  V30 41 H -2.494139 -0.929100 2.827747 0
M  V30 42 H -2.809228 -0.215661 1.173166 0
M  V30 43 H -3.660575 0.786866 3.827384 0
M  V30 44 H -4.293200 2.076333 1.266046 0
M  V30 45 H -4.304169 2.740092 2.937217 0
M  V30 46 H -2.033571 2.990592 3.099836 0
M  V30 47 H -2.570702 3.743433 1.554079 0
M  V30 48 H 3.414134 -0.869493 -4.372193 0
M  V30 49 H 3.986820 -3.245116 -2.846435 0
M  V30 END ATOM
M  V30 BEGIN BOND
M  V30 1 1 1 2
M  V30 2 1 2 3
M  V30 3 2 3 4
M  V30 4 1 3 5
M  V30 5 1 5 6
M  V30 6 1 6 7
M  V30 7 2 7 8
M  V30 8 1 8 9
M  V30 9 1 9 10
M  V30 10 1 10 11
M  V30 11 2 11 12
M  V30 12 1 12 13
M  V30 13 2 13 14
M  V30 14 1 14 15
M  V30 15 1 15 16
M  V30 16 1 16 17
M  V30 17 1 17 18
M  V30 18 1 18 19
M  V30 19 1 19 20
M  V30 20 1 20 21
M  V30 21 2 15 22
M  V30 22 2 10 23
M  V30 23 1 23 24
M  V30 24 1 24 25
M  V30 25 1 25 26
M  V30 26 2 26 27
M  V30 27 1 6 28
M  V30 28 2 28 29
M  V30 29 1 28 2
M  V30 30 1 27 7
M  V30 31 2 25 9
M  V30 32 1 22 11
M  V30 33 1 21 16
M  V30 34 1 1 30
M  V30 35 1 1 31
M  V30 36 1 1 32
M  V30 37 1 5 33
M  V30 38 1 5 34
M  V30 39 1 8 35
M  V30 40 1 12 36
M  V30 41 1 13 37
M  V30 42 1 14 38
M  V30 43 1 17 39
M  V30 44 1 17 40
M  V30 45 1 18 41
M  V30 46 1 18 42
M  V30 47 1 19 43
M  V30 48 1 20 44
M  V30 49 1 20 45
M  V30 50 1 21 46
M  V30 51 1 21 47
M  V30 52 1 24 48
M  V30 53 1 26 49
M  V30 END BOND
M  V30 END CTAB
M  END
>  <Dataset>  (419) 
ChEMBL_Kinases

>  <Ligand_Instance>  (419) 
nan

>  <PDB_ID>  (419) 
nan

>  <Standardized_SMILES>  (419) 
CN1C(=O)CN(c2cc3c(-c4cccc(N5CCNCC5)n4)n[nH]c3cn2)C1=O

>  <Name>  (419) 
nan

>  <Pocket>  (419) 
nan

>  <ATP_Site>  (419) 
nan

>  <Peripheral>  (419) 
nan

>  <Num_H_Atoms_ProtBoundConf>  (419) 
nan

>  <Num_Resolved_Atoms>  (419) 
nan

>  <Num_Not_Resolved_Atoms>  (419) 
nan

$$$$
CHEMBL3634775
     RDKit          3D

  0  0  0  0  0  0  0  0  0  0999 V3000
M  V30 BEGIN CTAB
M  V30 COUNTS 43 46 0 0 0
M  V30 BEGIN ATOM
M  V30 1 N 4.833711 -3.557041 0.900213 0
M  V30 2 C 3.594176 -3.808673 0.252176 0
M  V30 3 O 2.996404 -4.061476 -0.846172 0
M  V30 4 N 2.562044 -3.762700 1.240433 0
M  V30 5 C 1.145085 -3.929735 1.221191 0
M  V30 6 C 0.291785 -2.865130 1.019407 0
M  V30 7 C -1.081690 -2.984200 0.993676 0
M  V30 8 C -2.098109 -2.070971 0.811524 0
M  V30 9 C -2.014411 -0.635818 0.580269 0
M  V30 10 C -3.220529 0.057315 0.430121 0
M  V30 11 C -3.241641 1.409031 0.209846 0
M  V30 12 C -2.019350 2.043629 0.144786 0
M  V30 13 C -0.828663 1.382783 0.289211 0
M  V30 14 N 0.430334 2.024818 0.224552 0
M  V30 15 C 1.713545 1.359817 0.363650 0
M  V30 16 C 2.437228 1.920722 1.552678 0
M  V30 17 N 1.608679 2.930750 2.226676 0
M  V30 18 C 1.285084 3.988126 1.287401 0
M  V30 19 C 0.638078 3.438510 0.011523 0
M  V30 20 N -0.871345 0.068100 0.501475 0
M  V30 21 N -3.230591 -2.818008 0.896369 0
M  V30 22 N -2.910713 -4.080897 1.112796 0
M  V30 23 C -1.580665 -4.256447 1.184888 0
M  V30 24 C -0.758254 -5.348722 1.390142 0
M  V30 25 N 0.566539 -5.127773 1.397652 0
M  V30 26 H 5.738107 -3.596294 0.376631 0
M  V30 27 H 5.724597 -3.598980 0.369808 0
M  V30 28 H 2.606623 -3.584222 2.276661 0
M  V30 29 H 0.731750 -1.892965 0.875625 0
M  V30 30 H -4.144482 -0.484858 0.489330 0
M  V30 31 H -4.176138 1.942512 0.094109 0
M  V30 32 H -2.058137 3.101506 -0.028172 0
M  V30 33 H 1.615769 0.265350 0.411371 0
M  V30 34 H 2.311125 1.620602 -0.548967 0
M  V30 35 H 3.404638 2.380281 1.268538 0
M  V30 36 H 2.621453 1.125652 2.327244 0
M  V30 37 H 2.248835 3.371675 2.924963 0
M  V30 38 H 2.208166 4.557056 1.079278 0
M  V30 39 H 0.570106 4.661186 1.801272 0
M  V30 40 H 1.390296 3.609031 -0.792294 0
M  V30 41 H -0.274646 4.017405 -0.186211 0
M  V30 42 H -3.627264 -4.859723 1.216178 0
M  V30 43 H -1.162564 -6.330604 1.536944 0
M  V30 END ATOM
M  V30 BEGIN BOND
M  V30 1 1 1 2
M  V30 2 2 2 3
M  V30 3 1 2 4
M  V30 4 1 4 5
M  V30 5 2 5 6
M  V30 6 1 6 7
M  V30 7 1 7 8
M  V30 8 1 8 9
M  V30 9 2 9 10
M  V30 10 1 10 11
M  V30 11 2 11 12
M  V30 12 1 12 13
M  V30 13 1 13 14
M  V30 14 1 14 15
M  V30 15 1 15 16
M  V30 16 1 16 17
M  V30 17 1 17 18
M  V30 18 1 18 19
M  V30 19 2 13 20
M  V30 20 2 8 21
M  V30 21 1 21 22
M  V30 22 1 22 23
M  V30 23 1 23 24
M  V30 24 2 24 25
M  V30 25 1 25 5
M  V30 26 2 23 7
M  V30 27 1 20 9
M  V30 28 1 19 14
M  V30 29 1 1 26
M  V30 30 1 1 27
M  V30 31 1 4 28
M  V30 32 1 6 29
M  V30 33 1 10 30
M  V30 34 1 11 31
M  V30 35 1 12 32
M  V30 36 1 15 33
M  V30 37 1 15 34
M  V30 38 1 16 35
M  V30 39 1 16 36
M  V30 40 1 17 37
M  V30 41 1 18 38
M  V30 42 1 18 39
M  V30 43 1 19 40
M  V30 44 1 19 41
M  V30 45 1 22 42
M  V30 46 1 24 43
M  V30 END BOND
M  V30 END CTAB
M  END
>  <Dataset>  (420) 
ChEMBL_Kinases

>  <Ligand_Instance>  (420) 
nan

>  <PDB_ID>  (420) 
nan

>  <Standardized_SMILES>  (420) 
NC(=O)Nc1cc2c(-c3cccc(N4CCNCC4)n3)n[nH]c2cn1

>  <Name>  (420) 
nan

>  <Pocket>  (420) 
nan

>  <ATP_Site>  (420) 
nan

>  <Peripheral>  (420) 
nan

>  <Num_H_Atoms_ProtBoundConf>  (420) 
nan

>  <Num_Resolved_Atoms>  (420) 
nan

>  <Num_Not_Resolved_Atoms>  (420) 
nan

$$$$
CHEMBL3634774
     RDKit          3D

  0  0  0  0  0  0  0  0  0  0999 V3000
M  V30 BEGIN CTAB
M  V30 COUNTS 44 47 0 0 0
M  V30 BEGIN ATOM
M  V30 1 N 0.647984 -3.680871 4.646006 0
M  V30 2 C -0.375465 -2.937079 4.019682 0
M  V30 3 O -1.155466 -3.520342 3.244789 0
M  V30 4 C -0.512541 -1.482485 4.285879 0
M  V30 5 C -1.627228 -0.880717 3.546627 0
M  V30 6 C -1.387893 -0.381074 2.302167 0
M  V30 7 C -2.355615 0.207288 1.512823 0
M  V30 8 C -2.363460 0.772478 0.254885 0
M  V30 9 C -1.223350 0.901197 -0.650764 0
M  V30 10 C -1.397153 1.494212 -1.883577 0
M  V30 11 C -0.430288 1.690418 -2.846541 0
M  V30 12 C 0.817111 1.226689 -2.484952 0
M  V30 13 C 1.042793 0.622721 -1.255691 0
M  V30 14 N 2.355208 0.147427 -0.902316 0
M  V30 15 C 2.661878 -0.484818 0.343360 0
M  V30 16 C 3.517219 -1.724159 0.218147 0
M  V30 17 N 4.335236 -1.704000 -0.974561 0
M  V30 18 C 4.661577 -0.339047 -1.348158 0
M  V30 19 C 3.428418 0.321788 -1.868393 0
M  V30 20 N 0.034001 0.464221 -0.354206 0
M  V30 21 N -3.614820 1.184089 0.012942 0
M  V30 22 N -4.364084 0.895925 1.062137 0
M  V30 23 C -3.653914 0.293863 2.022207 0
M  V30 24 C -3.884559 -0.220070 3.294001 0
M  V30 25 N -2.882404 -0.778674 3.998282 0
M  V30 26 H 1.101506 -3.777473 5.577984 0
M  V30 27 H 1.147619 -4.369609 4.036311 0
M  V30 28 H -0.626083 -1.300613 5.393392 0
M  V30 29 H 0.444541 -0.998236 4.006797 0
M  V30 30 H -0.401417 -0.431664 1.881659 0
M  V30 31 H -2.413181 1.847398 -2.123830 0
M  V30 32 H -0.655007 2.166499 -3.790604 0
M  V30 33 H 1.650938 1.341921 -3.194618 0
M  V30 34 H 3.135643 0.272321 1.028766 0
M  V30 35 H 1.737477 -0.811787 0.869433 0
M  V30 36 H 2.933031 -2.664465 0.215596 0
M  V30 37 H 4.189501 -1.761260 1.095298 0
M  V30 38 H 3.940057 -2.215727 -1.779103 0
M  V30 39 H 5.475912 -0.360746 -2.101501 0
M  V30 40 H 5.061995 0.148026 -0.453003 0
M  V30 41 H 3.105675 -0.198388 -2.798115 0
M  V30 42 H 3.597447 1.408433 -2.046316 0
M  V30 43 H -5.397821 1.077041 1.217550 0
M  V30 44 H -4.903132 -0.131467 3.647115 0
M  V30 END ATOM
M  V30 BEGIN BOND
M  V30 1 1 1 2
M  V30 2 2 2 3
M  V30 3 1 2 4
M  V30 4 1 4 5
M  V30 5 2 5 6
M  V30 6 1 6 7
M  V30 7 1 7 8
M  V30 8 1 8 9
M  V30 9 2 9 10
M  V30 10 1 10 11
M  V30 11 2 11 12
M  V30 12 1 12 13
M  V30 13 1 13 14
M  V30 14 1 14 15
M  V30 15 1 15 16
M  V30 16 1 16 17
M  V30 17 1 17 18
M  V30 18 1 18 19
M  V30 19 2 13 20
M  V30 20 2 8 21
M  V30 21 1 21 22
M  V30 22 1 22 23
M  V30 23 1 23 24
M  V30 24 2 24 25
M  V30 25 1 25 5
M  V30 26 2 23 7
M  V30 27 1 20 9
M  V30 28 1 19 14
M  V30 29 1 1 26
M  V30 30 1 1 27
M  V30 31 1 4 28
M  V30 32 1 4 29
M  V30 33 1 6 30
M  V30 34 1 10 31
M  V30 35 1 11 32
M  V30 36 1 12 33
M  V30 37 1 15 34
M  V30 38 1 15 35
M  V30 39 1 16 36
M  V30 40 1 16 37
M  V30 41 1 17 38
M  V30 42 1 18 39
M  V30 43 1 18 40
M  V30 44 1 19 41
M  V30 45 1 19 42
M  V30 46 1 22 43
M  V30 47 1 24 44
M  V30 END BOND
M  V30 END CTAB
M  END
>  <Dataset>  (421) 
ChEMBL_Kinases

>  <Ligand_Instance>  (421) 
nan

>  <PDB_ID>  (421) 
nan

>  <Standardized_SMILES>  (421) 
NC(=O)Cc1cc2c(-c3cccc(N4CCNCC4)n3)n[nH]c2cn1

>  <Name>  (421) 
nan

>  <Pocket>  (421) 
nan

>  <ATP_Site>  (421) 
nan

>  <Peripheral>  (421) 
nan

>  <Num_H_Atoms_ProtBoundConf>  (421) 
nan

>  <Num_Resolved_Atoms>  (421) 
nan

>  <Num_Not_Resolved_Atoms>  (421) 
nan

$$$$
CHEMBL3634773
     RDKit          3D

  0  0  0  0  0  0  0  0  0  0999 V3000
M  V30 BEGIN CTAB
M  V30 COUNTS 44 48 0 0 0
M  V30 BEGIN ATOM
M  V30 1 C 1.573471 -4.489058 0.721061 0
M  V30 2 C 2.488923 -3.503684 0.440744 0
M  V30 3 C 2.130951 -2.177032 0.385037 0
M  V30 4 C 3.155480 -1.184573 0.081376 0
M  V30 5 N 4.464683 -1.413810 -0.160120 0
M  V30 6 N 5.088934 -0.282254 -0.397126 0
M  V30 7 C 4.246665 0.768316 -0.330458 0
M  V30 8 C 4.338350 2.136226 -0.483514 0
M  V30 9 N 3.260213 2.923594 -0.343647 0
M  V30 10 C 2.036210 2.401993 -0.045605 0
M  V30 11 N 0.930765 3.287842 0.089876 0
M  V30 12 C -0.169975 2.988427 -0.645969 0
M  V30 13 C -1.116168 3.957512 -0.374510 0
M  V30 14 N -0.586619 4.822231 0.510708 0
M  V30 15 C 0.663612 4.408111 0.790536 0
M  V30 16 C 1.944753 1.030599 0.107733 0
M  V30 17 C 3.026092 0.184805 -0.027009 0
M  V30 18 N 0.831548 -1.823711 0.613793 0
M  V30 19 C -0.104590 -2.743432 0.892028 0
M  V30 20 N -1.427449 -2.273449 1.115116 0
M  V30 21 C -1.671181 -0.845858 1.038107 0
M  V30 22 C -3.036780 -0.579228 1.630128 0
M  V30 23 N -3.266459 -1.266513 2.874658 0
M  V30 24 C -3.056837 -2.692081 2.808037 0
M  V30 25 C -2.573147 -3.106263 1.417449 0
M  V30 26 C 0.265293 -4.070028 0.945289 0
M  V30 27 H 1.814452 -5.544158 0.774131 0
M  V30 28 H 3.522034 -3.762605 0.256843 0
M  V30 29 H 6.121111 -0.155604 -0.617764 0
M  V30 30 H 5.318766 2.544164 -0.721280 0
M  V30 31 H -0.437630 2.192003 -1.358088 0
M  V30 32 H -2.133304 4.061557 -0.773664 0
M  V30 33 H 1.436669 4.798550 1.440059 0
M  V30 34 H 0.976189 0.630758 0.342080 0
M  V30 35 H -1.690554 -0.511322 -0.020472 0
M  V30 36 H -0.876919 -0.271412 1.568863 0
M  V30 37 H -3.838799 -0.792225 0.902986 0
M  V30 38 H -3.060656 0.510940 1.872691 0
M  V30 39 H -2.790181 -0.820912 3.683675 0
M  V30 40 H -2.223826 -2.936897 3.505839 0
M  V30 41 H -3.951147 -3.260319 3.106564 0
M  V30 42 H -3.380770 -2.826371 0.680782 0
M  V30 43 H -2.380286 -4.176440 1.416311 0
M  V30 44 H -0.464002 -4.809211 1.164314 0
M  V30 END ATOM
M  V30 BEGIN BOND
M  V30 1 2 1 2
M  V30 2 1 2 3
M  V30 3 1 3 4
M  V30 4 2 4 5
M  V30 5 1 5 6
M  V30 6 1 6 7
M  V30 7 2 7 8
M  V30 8 1 8 9
M  V30 9 2 9 10
M  V30 10 1 10 11
M  V30 11 1 11 12
M  V30 12 2 12 13
M  V30 13 1 13 14
M  V30 14 2 14 15
M  V30 15 1 10 16
M  V30 16 2 16 17
M  V30 17 2 3 18
M  V30 18 1 18 19
M  V30 19 1 19 20
M  V30 20 1 20 21
M  V30 21 1 21 22
M  V30 22 1 22 23
M  V30 23 1 23 24
M  V30 24 1 24 25
M  V30 25 2 19 26
M  V30 26 1 26 1
M  V30 27 1 17 4
M  V30 28 1 25 20
M  V30 29 1 17 7
M  V30 30 1 15 11
M  V30 31 1 1 27
M  V30 32 1 2 28
M  V30 33 1 6 29
M  V30 34 1 8 30
M  V30 35 1 12 31
M  V30 36 1 13 32
M  V30 37 1 15 33
M  V30 38 1 16 34
M  V30 39 1 21 35
M  V30 40 1 21 36
M  V30 41 1 22 37
M  V30 42 1 22 38
M  V30 43 1 23 39
M  V30 44 1 24 40
M  V30 45 1 24 41
M  V30 46 1 25 42
M  V30 47 1 25 43
M  V30 48 1 26 44
M  V30 END BOND
M  V30 END CTAB
M  END
>  <Dataset>  (422) 
ChEMBL_Kinases

>  <Ligand_Instance>  (422) 
nan

>  <PDB_ID>  (422) 
nan

>  <Standardized_SMILES>  (422) 
c1cc(-c2n[nH]c3cnc(-n4ccnc4)cc23)nc(N2CCNCC2)c1

>  <Name>  (422) 
nan

>  <Pocket>  (422) 
nan

>  <ATP_Site>  (422) 
nan

>  <Peripheral>  (422) 
nan

>  <Num_H_Atoms_ProtBoundConf>  (422) 
nan

>  <Num_Resolved_Atoms>  (422) 
nan

>  <Num_Not_Resolved_Atoms>  (422) 
nan

$$$$
CHEMBL3634772
     RDKit          3D

  0  0  0  0  0  0  0  0  0  0999 V3000
M  V30 BEGIN CTAB
M  V30 COUNTS 54 59 0 0 0
M  V30 BEGIN ATOM
M  V30 1 C 0.482010 -2.526364 0.893892 0
M  V30 2 C 0.417360 -1.585773 -0.077698 0
M  V30 3 C -0.624035 -1.496326 -0.946775 0
M  V30 4 C -0.962841 -0.708669 -2.112504 0
M  V30 5 N -1.225149 -0.098605 -3.015257 0
M  V30 6 N -1.345002 0.845692 -3.786130 0
M  V30 7 C -0.713589 1.559813 -2.787889 0
M  V30 8 C -0.367048 2.928944 -2.700171 0
M  V30 9 N 0.234006 3.473813 -1.595083 0
M  V30 10 C 0.514164 2.693872 -0.537544 0
M  V30 11 C 1.145148 3.146830 0.682649 0
M  V30 12 C 1.473528 4.477760 0.750688 0
M  V30 13 N 2.033686 4.573132 1.992064 0
M  V30 14 N 2.040020 3.412868 2.608442 0
M  V30 15 C 2.552564 3.135019 3.940710 0
M  V30 16 C 4.015113 2.782786 3.739121 0
M  V30 17 C 4.399187 1.633045 2.899822 0
M  V30 18 C 4.503387 1.538605 4.429420 0
M  V30 19 C 1.490125 2.470023 1.829455 0
M  V30 20 C 0.158354 1.368586 -0.672028 0
M  V30 21 C -0.471190 0.622384 -1.748649 0
M  V30 22 N -1.615203 -2.409378 -0.802112 0
M  V30 23 C -1.597640 -3.358487 0.140090 0
M  V30 24 N -2.692777 -4.292415 0.227816 0
M  V30 25 C -3.767949 -4.128799 -0.726054 0
M  V30 26 C -4.165526 -5.476342 -1.241413 0
M  V30 27 N -3.135387 -6.486525 -1.047456 0
M  V30 28 C -2.779156 -6.669130 0.338094 0
M  V30 29 C -2.872050 -5.377938 1.134614 0
M  V30 30 C -0.541303 -3.436008 1.014004 0
M  V30 31 H 1.349200 -2.518578 1.540429 0
M  V30 32 H 1.228551 -0.911427 -0.239851 0
M  V30 33 H -1.676868 1.176446 -4.689760 0
M  V30 34 H -0.566030 3.615715 -3.508771 0
M  V30 35 H 1.346455 5.295312 0.035058 0
M  V30 36 H 1.992520 2.265984 4.386255 0
M  V30 37 H 2.463206 4.063178 4.534669 0
M  V30 38 H 4.730553 3.653434 3.711229 0
M  V30 39 H 3.634002 0.983643 2.426055 0
M  V30 40 H 5.359865 1.628069 2.373233 0
M  V30 41 H 3.759032 0.916382 4.967255 0
M  V30 42 H 5.546851 1.500289 4.847657 0
M  V30 43 H 1.324139 1.419836 1.990193 0
M  V30 44 H 0.380352 0.861970 0.272614 0
M  V30 45 H -4.644849 -3.713314 -0.183571 0
M  V30 46 H -3.480023 -3.424691 -1.556605 0
M  V30 47 H -5.111503 -5.855374 -0.829718 0
M  V30 48 H -4.309279 -5.399440 -2.352046 0
M  V30 49 H -2.301094 -6.312348 -1.656624 0
M  V30 50 H -3.398283 -7.436230 0.804694 0
M  V30 51 H -1.737623 -7.053086 0.350194 0
M  V30 52 H -2.163140 -5.403699 1.982909 0
M  V30 53 H -3.886553 -5.299380 1.618832 0
M  V30 54 H -0.531331 -4.188558 1.760250 0
M  V30 END ATOM
M  V30 BEGIN BOND
M  V30 1 2 1 2
M  V30 2 1 2 3
M  V30 3 1 3 4
M  V30 4 2 4 5
M  V30 5 1 5 6
M  V30 6 1 6 7
M  V30 7 2 7 8
M  V30 8 1 8 9
M  V30 9 2 9 10
M  V30 10 1 10 11
M  V30 11 1 11 12
M  V30 12 2 12 13
M  V30 13 1 13 14
M  V30 14 1 14 15
M  V30 15 1 15 16
M  V30 16 1 16 17
M  V30 17 1 17 18
M  V30 18 1 14 19
M  V30 19 1 10 20
M  V30 20 2 20 21
M  V30 21 2 3 22
M  V30 22 1 22 23
M  V30 23 1 23 24
M  V30 24 1 24 25
M  V30 25 1 25 26
M  V30 26 1 26 27
M  V30 27 1 27 28
M  V30 28 1 28 29
M  V30 29 2 23 30
M  V30 30 1 30 1
M  V30 31 1 21 4
M  V30 32 1 29 24
M  V30 33 1 21 7
M  V30 34 2 19 11
M  V30 35 1 18 16
M  V30 36 1 1 31
M  V30 37 1 2 32
M  V30 38 1 6 33
M  V30 39 1 8 34
M  V30 40 1 12 35
M  V30 41 1 15 36
M  V30 42 1 15 37
M  V30 43 1 16 38
M  V30 44 1 17 39
M  V30 45 1 17 40
M  V30 46 1 18 41
M  V30 47 1 18 42
M  V30 48 1 19 43
M  V30 49 1 20 44
M  V30 50 1 25 45
M  V30 51 1 25 46
M  V30 52 1 26 47
M  V30 53 1 26 48
M  V30 54 1 27 49
M  V30 55 1 28 50
M  V30 56 1 28 51
M  V30 57 1 29 52
M  V30 58 1 29 53
M  V30 59 1 30 54
M  V30 END BOND
M  V30 END CTAB
M  END
>  <Dataset>  (423) 
ChEMBL_Kinases

>  <Ligand_Instance>  (423) 
nan

>  <PDB_ID>  (423) 
nan

>  <Standardized_SMILES>  (423) 
c1cc(-c2n[nH]c3cnc(-c4cnn(CC5CC5)c4)cc23)nc(N2CCNCC2)c1

>  <Name>  (423) 
nan

>  <Pocket>  (423) 
nan

>  <ATP_Site>  (423) 
nan

>  <Peripheral>  (423) 
nan

>  <Num_H_Atoms_ProtBoundConf>  (423) 
nan

>  <Num_Resolved_Atoms>  (423) 
nan

>  <Num_Not_Resolved_Atoms>  (423) 
nan

$$$$
CHEMBL3634784
     RDKit          3D

  0  0  0  0  0  0  0  0  0  0999 V3000
M  V30 BEGIN CTAB
M  V30 COUNTS 23 25 0 0 0
M  V30 BEGIN ATOM
M  V30 1 C 0.776783 -1.227968 4.305555 0
M  V30 2 C 0.533863 -2.578837 4.208414 0
M  V30 3 N 0.248629 -2.992384 2.966108 0
M  V30 4 C 0.205293 -2.157000 1.913146 0
M  V30 5 C 0.448828 -0.809774 2.017331 0
M  V30 6 C 0.412264 0.130254 0.902418 0
M  V30 7 C 0.126780 -0.232696 -0.390424 0
M  V30 8 C 0.084772 0.619370 -1.452149 0
M  V30 9 C -0.171191 0.508920 -2.818262 0
M  V30 10 N -0.062797 1.719965 -3.360350 0
M  V30 11 N 0.245901 2.593214 -2.425098 0
M  V30 12 C 0.347046 1.970364 -1.243773 0
M  V30 13 C 0.630960 2.321272 0.051631 0
M  V30 14 N 0.661994 1.453476 1.065354 0
M  V30 15 C 0.750066 -0.307363 3.266170 0
M  V30 16 H 1.017504 -0.817779 5.295108 0
M  V30 17 H 0.581814 -3.207132 5.088673 0
M  V30 18 H -0.031839 -2.562984 0.940132 0
M  V30 19 H -0.084573 -1.254400 -0.622801 0
M  V30 20 H -0.412565 -0.419206 -3.313438 0
M  V30 21 H 0.403309 3.605619 -2.494026 0
M  V30 22 H 0.841387 3.382339 0.240883 0
M  V30 23 H 0.960418 0.739570 3.468512 0
M  V30 END ATOM
M  V30 BEGIN BOND
M  V30 1 2 1 2
M  V30 2 1 2 3
M  V30 3 2 3 4
M  V30 4 1 4 5
M  V30 5 1 5 6
M  V30 6 2 6 7
M  V30 7 1 7 8
M  V30 8 1 8 9
M  V30 9 2 9 10
M  V30 10 1 10 11
M  V30 11 1 11 12
M  V30 12 1 12 13
M  V30 13 2 13 14
M  V30 14 2 5 15
M  V30 15 1 15 1
M  V30 16 1 14 6
M  V30 17 2 12 8
M  V30 18 1 1 16
M  V30 19 1 2 17
M  V30 20 1 4 18
M  V30 21 1 7 19
M  V30 22 1 9 20
M  V30 23 1 11 21
M  V30 24 1 13 22
M  V30 25 1 15 23
M  V30 END BOND
M  V30 END CTAB
M  END
>  <Dataset>  (424) 
ChEMBL_Kinases

>  <Ligand_Instance>  (424) 
nan

>  <PDB_ID>  (424) 
nan

>  <Standardized_SMILES>  (424) 
c1cncc(-c2cc3cn[nH]c3cn2)c1

>  <Name>  (424) 
nan

>  <Pocket>  (424) 
nan

>  <ATP_Site>  (424) 
nan

>  <Peripheral>  (424) 
nan

>  <Num_H_Atoms_ProtBoundConf>  (424) 
nan

>  <Num_Resolved_Atoms>  (424) 
nan

>  <Num_Not_Resolved_Atoms>  (424) 
nan

$$$$
CHEMBL4062256
     RDKit          3D

  0  0  0  0  0  0  0  0  0  0999 V3000
M  V30 BEGIN CTAB
M  V30 COUNTS 51 55 0 0 0
M  V30 BEGIN ATOM
M  V30 1 C -1.311438 4.212395 3.365114 0
M  V30 2 O -1.236603 3.144309 2.449447 0
M  V30 3 C -1.076849 1.853077 2.899818 0
M  V30 4 C -0.968107 1.375597 4.186612 0
M  V30 5 C -0.810165 0.043658 4.500506 0
M  V30 6 C -0.759977 -0.849114 3.450189 0
M  V30 7 C -0.862764 -0.434657 2.139614 0
M  V30 8 C -1.023021 0.926903 1.848871 0
M  V30 9 C -1.128773 1.303373 0.417895 0
M  V30 10 N 0.052395 1.894796 -0.108211 0
M  V30 11 C -0.061419 2.260235 -1.508045 0
M  V30 12 C 1.326038 2.753346 -1.918074 0
M  V30 13 N 2.022215 3.293965 -0.740148 0
M  V30 14 C 2.390199 2.195730 0.163983 0
M  V30 15 C 1.265091 1.161848 0.049984 0
M  V30 16 O -0.780339 -1.539697 1.304152 0
M  V30 17 C -0.623786 -2.699558 2.015774 0
M  V30 18 C -0.503617 -3.972166 1.624807 0
M  V30 19 C -0.551219 -4.128630 0.157402 0
M  V30 20 C -1.278989 -3.448523 -0.791001 0
M  V30 21 N -0.950280 -3.993508 -1.956232 0
M  V30 22 C -0.042150 -4.993830 -1.787591 0
M  V30 23 N 0.534724 -5.783017 -2.709608 0
M  V30 24 C 1.425772 -6.734086 -2.341478 0
M  V30 25 Cl 2.238450 -7.816471 -3.446868 0
M  V30 26 C 1.749411 -6.897624 -0.991516 0
M  V30 27 C 1.147765 -6.076828 -0.044714 0
M  V30 28 C 0.240937 -5.109631 -0.423001 0
M  V30 29 C -0.603864 -2.300371 3.439229 0
M  V30 30 O -0.477995 -3.061470 4.427314 0
M  V30 31 H -0.330043 4.721456 3.485168 0
M  V30 32 H -1.695615 3.922082 4.361269 0
M  V30 33 H -1.974633 4.991063 2.905969 0
M  V30 34 H -1.013681 2.120539 4.950966 0
M  V30 35 H -0.733965 -0.232429 5.546560 0
M  V30 36 H -1.486147 0.448103 -0.166123 0
M  V30 37 H -1.936113 2.073237 0.376302 0
M  V30 38 H -0.215867 1.302745 -2.077564 0
M  V30 39 H -0.855588 2.993047 -1.716725 0
M  V30 40 H 1.260993 3.593698 -2.644036 0
M  V30 41 H 1.969784 1.938324 -2.298765 0
M  V30 42 H 1.277456 3.841655 -0.216395 0
M  V30 43 H 2.445711 2.637755 1.184253 0
M  V30 44 H 3.358573 1.750479 -0.134410 0
M  V30 45 H 1.484021 0.567216 -0.867402 0
M  V30 46 H 1.295640 0.445161 0.885685 0
M  V30 47 H -0.384893 -4.803237 2.299486 0
M  V30 48 H -1.929374 -2.664745 -0.459681 0
M  V30 49 H -1.397696 -3.620723 -2.839508 0
M  V30 50 H 2.429767 -7.600657 -0.552976 0
M  V30 51 H 1.337734 -6.131527 1.028363 0
M  V30 END ATOM
M  V30 BEGIN BOND
M  V30 1 1 1 2
M  V30 2 1 2 3
M  V30 3 2 3 4
M  V30 4 1 4 5
M  V30 5 2 5 6
M  V30 6 1 6 7
M  V30 7 2 7 8
M  V30 8 1 8 9
M  V30 9 1 9 10
M  V30 10 1 10 11
M  V30 11 1 11 12
M  V30 12 1 12 13
M  V30 13 1 13 14
M  V30 14 1 14 15
M  V30 15 1 7 16
M  V30 16 1 16 17
M  V30 17 2 17 18
M  V30 18 1 18 19
M  V30 19 2 19 20
M  V30 20 1 20 21
M  V30 21 1 21 22
M  V30 22 2 22 23
M  V30 23 1 23 24
M  V30 24 1 24 25
M  V30 25 2 24 26
M  V30 26 1 26 27
M  V30 27 2 27 28
M  V30 28 1 17 29
M  V30 29 2 29 30
M  V30 30 1 8 3
M  V30 31 1 15 10
M  V30 32 1 28 19
M  V30 33 1 29 6
M  V30 34 1 28 22
M  V30 35 1 1 31
M  V30 36 1 1 32
M  V30 37 1 1 33
M  V30 38 1 4 34
M  V30 39 1 5 35
M  V30 40 1 9 36
M  V30 41 1 9 37
M  V30 42 1 11 38
M  V30 43 1 11 39
M  V30 44 1 12 40
M  V30 45 1 12 41
M  V30 46 1 13 42
M  V30 47 1 14 43
M  V30 48 1 14 44
M  V30 49 1 15 45
M  V30 50 1 15 46
M  V30 51 1 18 47
M  V30 52 1 20 48
M  V30 53 1 21 49
M  V30 54 1 26 50
M  V30 55 1 27 51
M  V30 END BOND
M  V30 END CTAB
M  END
>  <Dataset>  (425) 
ChEMBL_Kinases

>  <Ligand_Instance>  (425) 
nan

>  <PDB_ID>  (425) 
nan

>  <Standardized_SMILES>  (425) 
COc1ccc2c(c1CN1CCNCC1)O/C(=C\c1c[nH]c3nc(Cl)ccc13)C2=O

>  <Name>  (425) 
nan

>  <Pocket>  (425) 
nan

>  <ATP_Site>  (425) 
nan

>  <Peripheral>  (425) 
nan

>  <Num_H_Atoms_ProtBoundConf>  (425) 
nan

>  <Num_Resolved_Atoms>  (425) 
nan

>  <Num_Not_Resolved_Atoms>  (425) 
nan

$$$$
CHEMBL4862452
     RDKit          3D

  0  0  0  0  0  0  0  0  0  0999 V3000
M  V30 BEGIN CTAB
M  V30 COUNTS 46 49 0 0 0
M  V30 BEGIN ATOM
M  V30 1 N 1.244565 -5.145759 4.019487 0
M  V30 2 C 0.521322 -4.172357 3.281353 0
M  V30 3 O -0.543037 -4.766042 3.567348 0
M  V30 4 C 1.080827 -3.051817 2.583464 0
M  V30 5 C 2.451009 -2.957762 2.669684 0
M  V30 6 N 3.049341 -1.937949 2.044311 0
M  V30 7 C 2.320687 -1.045782 1.360189 0
M  V30 8 N 2.996148 0.017383 0.713172 0
M  V30 9 C 2.348542 1.058242 -0.063845 0 CFG=1
M  V30 10 C 1.611901 0.382272 -1.201268 0
M  V30 11 C 1.168790 1.464459 -2.160869 0
M  V30 12 C 0.366584 2.537351 -1.511848 0 CFG=2
M  V30 13 O 0.460806 3.673322 -2.348272 0
M  V30 14 C 0.834454 2.956558 -0.165609 0
M  V30 15 C 1.322976 1.837476 0.714058 0
M  V30 16 N 0.986669 -1.168032 1.297054 0
M  V30 17 C 0.297943 -2.156140 1.891057 0
M  V30 18 N -1.108695 -2.292461 1.828201 0
M  V30 19 C -2.015623 -1.534024 1.217168 0
M  V30 20 C -2.194821 -1.165259 -0.182775 0
M  V30 21 C -3.429844 -0.573616 0.511158 0
M  V30 22 C -2.480953 -0.161001 1.590635 0
M  V30 23 C -3.509849 -1.873804 1.199423 0
M  V30 24 H 1.531285 -5.167303 5.041909 0
M  V30 25 H 1.669009 -6.076413 3.731277 0
M  V30 26 H 3.081757 -3.652159 3.209114 0
M  V30 27 H 4.054123 0.084734 0.783716 0
M  V30 28 H 3.095207 1.744638 -0.512270 0
M  V30 29 H 0.711674 -0.085107 -0.798524 0
M  V30 30 H 2.264470 -0.314329 -1.761392 0
M  V30 31 H 0.495993 0.950567 -2.894237 0
M  V30 32 H 2.040926 1.818565 -2.730145 0
M  V30 33 H -0.714662 2.290378 -1.479454 0
M  V30 34 H 1.169152 4.281139 -2.005753 0
M  V30 35 H -0.025830 3.433694 0.366271 0
M  V30 36 H 1.627001 3.745148 -0.176719 0
M  V30 37 H 0.555133 1.153710 1.073431 0
M  V30 38 H 1.796991 2.334027 1.599878 0
M  V30 39 H -1.550071 -3.096836 2.322000 0
M  V30 40 H -1.660168 -0.339838 -0.646659 0
M  V30 41 H -2.559726 -1.935685 -0.895020 0
M  V30 42 H -4.146043 -0.036680 0.054562 0
M  V30 43 H -2.928462 -0.074720 2.616921 0
M  V30 44 H -1.758245 0.611566 1.335807 0
M  V30 45 H -3.881598 -1.911998 2.238735 0
M  V30 46 H -3.759361 -2.728825 0.561175 0
M  V30 END ATOM
M  V30 BEGIN BOND
M  V30 1 1 1 2
M  V30 2 2 2 3
M  V30 3 1 2 4
M  V30 4 2 4 5
M  V30 5 1 5 6
M  V30 6 2 6 7
M  V30 7 1 7 8
M  V30 8 1 8 9
M  V30 9 1 9 10
M  V30 10 1 10 11
M  V30 11 1 11 12
M  V30 12 1 12 13
M  V30 13 1 12 14
M  V30 14 1 14 15
M  V30 15 1 7 16
M  V30 16 2 16 17
M  V30 17 1 17 18
M  V30 18 1 18 19
M  V30 19 1 19 20
M  V30 20 1 20 21
M  V30 21 1 21 22
M  V30 22 1 21 23
M  V30 23 1 17 4
M  V30 24 1 22 19
M  V30 25 1 15 9
M  V30 26 1 23 19
M  V30 27 1 1 24
M  V30 28 1 1 25
M  V30 29 1 5 26
M  V30 30 1 8 27
M  V30 31 1 9 28 CFG=3
M  V30 32 1 10 29
M  V30 33 1 10 30
M  V30 34 1 11 31
M  V30 35 1 11 32
M  V30 36 1 12 33 CFG=1
M  V30 37 1 13 34
M  V30 38 1 14 35
M  V30 39 1 14 36
M  V30 40 1 15 37
M  V30 41 1 15 38
M  V30 42 1 18 39
M  V30 43 1 20 40
M  V30 44 1 20 41
M  V30 45 1 21 42
M  V30 46 1 22 43
M  V30 47 1 22 44
M  V30 48 1 23 45
M  V30 49 1 23 46
M  V30 END BOND
M  V30 END CTAB
M  END
>  <Dataset>  (426) 
ChEMBL_Kinases

>  <Ligand_Instance>  (426) 
nan

>  <PDB_ID>  (426) 
nan

>  <Standardized_SMILES>  (426) 
NC(=O)c1cnc(N[C@H]2CC[C@H](O)CC2)nc1NC12CC(C1)C2

>  <Name>  (426) 
nan

>  <Pocket>  (426) 
nan

>  <ATP_Site>  (426) 
nan

>  <Peripheral>  (426) 
nan

>  <Num_H_Atoms_ProtBoundConf>  (426) 
nan

>  <Num_Resolved_Atoms>  (426) 
nan

>  <Num_Not_Resolved_Atoms>  (426) 
nan

$$$$
CHEMBL4063500
     RDKit          3D

  0  0  0  0  0  0  0  0  0  0999 V3000
M  V30 BEGIN CTAB
M  V30 COUNTS 76 79 0 0 0
M  V30 BEGIN ATOM
M  V30 1 C 2.107572 2.192131 4.197337 0
M  V30 2 N 2.897619 3.400912 4.259673 0
M  V30 3 C 3.413725 3.926458 5.504005 0
M  V30 4 C 3.186125 4.135731 3.050847 0
M  V30 5 O 3.892306 5.189476 3.083094 0
M  V30 6 C 2.659824 3.675194 1.749723 0
M  V30 7 C 1.423504 4.226514 1.456312 0
M  V30 8 C 1.060845 3.711642 0.207166 0
M  V30 9 C -0.042897 3.884430 -0.612354 0
M  V30 10 N -0.033581 3.200315 -1.789115 0
M  V30 11 C 1.006031 2.388595 -2.140364 0
M  V30 12 N 0.694761 1.841320 -3.415948 0
M  V30 13 C -0.204431 0.736510 -3.380206 0
M  V30 14 C -0.663948 0.236569 -2.156172 0
M  V30 15 C -1.566904 -0.834612 -2.209155 0
M  V30 16 C -1.993407 -1.384313 -3.426344 0
M  V30 17 N -2.905024 -2.426061 -3.107114 0
M  V30 18 C -2.612140 -3.796880 -2.857945 0
M  V30 19 O -1.499441 -4.327935 -2.886871 0
M  V30 20 C -3.884192 -4.497688 -2.549910 0
M  V30 21 C -3.694194 -5.936610 -2.140393 0
M  V30 22 C -2.795590 -6.050060 -0.926170 0
M  V30 23 C -3.270890 -5.293498 0.264847 0
M  V30 24 C -4.618642 -5.745382 0.719122 0
M  V30 25 C -5.089127 -4.937451 1.924860 0
M  V30 26 C -4.132155 -5.100940 3.038365 0
M  V30 27 O -3.056521 -5.686035 3.338679 0
M  V30 28 N -4.523142 -4.347085 4.204307 0
M  V30 29 O -3.735588 -4.400818 5.310214 0
M  V30 30 C -1.528271 -0.877931 -4.606245 0
M  V30 31 C -0.631666 0.185016 -4.579413 0
M  V30 32 N 2.056304 2.248179 -1.318322 0
M  V30 33 C 2.112643 2.890625 -0.148933 0
M  V30 34 N 3.074706 2.857436 0.760962 0
M  V30 35 C 4.348911 2.169290 0.848479 0
M  V30 36 C 5.093868 2.142372 -0.434906 0
M  V30 37 C 5.036996 0.744685 -0.947190 0
M  V30 38 C 4.171190 -0.037958 0.014179 0
M  V30 39 C 4.257833 0.752020 1.273216 0
M  V30 40 H 2.841292 1.362112 4.423194 0
M  V30 41 H 1.765354 2.035592 3.152612 0
M  V30 42 H 1.262611 2.189024 4.910547 0
M  V30 43 H 4.472296 3.668047 5.576607 0
M  V30 44 H 3.232443 5.022006 5.584224 0
M  V30 45 H 2.852213 3.385909 6.320690 0
M  V30 46 H 0.725915 4.918386 1.947313 0
M  V30 47 H -0.860114 4.539231 -0.302187 0
M  V30 48 H 1.064766 2.179771 -4.329731 0
M  V30 49 H -0.313315 0.684586 -1.213338 0
M  V30 50 H -1.839726 -1.120478 -1.196398 0
M  V30 51 H -3.817799 -1.921021 -3.105524 0
M  V30 52 H -4.490833 -3.928619 -1.820385 0
M  V30 53 H -4.476428 -4.496213 -3.484916 0
M  V30 54 H -4.666247 -6.374400 -1.932627 0
M  V30 55 H -3.177440 -6.445784 -2.976265 0
M  V30 56 H -2.842877 -7.144706 -0.643433 0
M  V30 57 H -1.725852 -5.892324 -1.171262 0
M  V30 58 H -3.257416 -4.189232 0.130447 0
M  V30 59 H -2.511511 -5.474515 1.080640 0
M  V30 60 H -5.370254 -5.656141 -0.081372 0
M  V30 61 H -4.586567 -6.833157 1.007479 0
M  V30 62 H -6.091148 -5.276149 2.230825 0
M  V30 63 H -5.117554 -3.860189 1.630573 0
M  V30 64 H -5.350821 -3.725065 4.371157 0
M  V30 65 H -4.305793 -4.483935 6.138047 0
M  V30 66 H -1.939833 -1.401415 -5.440202 0
M  V30 67 H -0.311260 0.525797 -5.552507 0
M  V30 68 H 5.013462 2.691714 1.607200 0
M  V30 69 H 6.181316 2.381388 -0.249913 0
M  V30 70 H 4.777319 2.901495 -1.180137 0
M  V30 71 H 4.682707 0.645366 -1.994135 0
M  V30 72 H 6.050631 0.245630 -0.935580 0
M  V30 73 H 4.602951 -1.045666 0.223425 0
M  V30 74 H 3.122041 -0.151049 -0.379209 0
M  V30 75 H 5.199440 0.464066 1.787159 0
M  V30 76 H 3.425621 0.545946 1.982118 0
M  V30 END ATOM
M  V30 BEGIN BOND
M  V30 1 1 1 2
M  V30 2 1 2 3
M  V30 3 1 2 4
M  V30 4 2 4 5
M  V30 5 1 4 6
M  V30 6 2 6 7
M  V30 7 1 7 8
M  V30 8 2 8 9
M  V30 9 1 9 10
M  V30 10 2 10 11
M  V30 11 1 11 12
M  V30 12 1 12 13
M  V30 13 2 13 14
M  V30 14 1 14 15
M  V30 15 2 15 16
M  V30 16 1 16 17
M  V30 17 1 17 18
M  V30 18 2 18 19
M  V30 19 1 18 20
M  V30 20 1 20 21
M  V30 21 1 21 22
M  V30 22 1 22 23
M  V30 23 1 23 24
M  V30 24 1 24 25
M  V30 25 1 25 26
M  V30 26 2 26 27
M  V30 27 1 26 28
M  V30 28 1 28 29
M  V30 29 1 16 30
M  V30 30 2 30 31
M  V30 31 1 11 32
M  V30 32 2 32 33
M  V30 33 1 33 34
M  V30 34 1 34 35
M  V30 35 1 35 36
M  V30 36 1 36 37
M  V30 37 1 37 38
M  V30 38 1 38 39
M  V30 39 1 34 6
M  V30 40 1 39 35
M  V30 41 1 33 8
M  V30 42 1 31 13
M  V30 43 1 1 40
M  V30 44 1 1 41
M  V30 45 1 1 42
M  V30 46 1 3 43
M  V30 47 1 3 44
M  V30 48 1 3 45
M  V30 49 1 7 46
M  V30 50 1 9 47
M  V30 51 1 12 48
M  V30 52 1 14 49
M  V30 53 1 15 50
M  V30 54 1 17 51
M  V30 55 1 20 52
M  V30 56 1 20 53
M  V30 57 1 21 54
M  V30 58 1 21 55
M  V30 59 1 22 56
M  V30 60 1 22 57
M  V30 61 1 23 58
M  V30 62 1 23 59
M  V30 63 1 24 60
M  V30 64 1 24 61
M  V30 65 1 25 62
M  V30 66 1 25 63
M  V30 67 1 28 64
M  V30 68 1 29 65
M  V30 69 1 30 66
M  V30 70 1 31 67
M  V30 71 1 35 68
M  V30 72 1 36 69
M  V30 73 1 36 70
M  V30 74 1 37 71
M  V30 75 1 37 72
M  V30 76 1 38 73
M  V30 77 1 38 74
M  V30 78 1 39 75
M  V30 79 1 39 76
M  V30 END BOND
M  V30 END CTAB
M  END
>  <Dataset>  (427) 
ChEMBL_Kinases

>  <Ligand_Instance>  (427) 
nan

>  <PDB_ID>  (427) 
nan

>  <Standardized_SMILES>  (427) 
CN(C)C(=O)c1cc2cnc(Nc3ccc(NC(=O)CCCCCCC(=O)NO)cc3)nc2n1C1CCCC1

>  <Name>  (427) 
nan

>  <Pocket>  (427) 
nan

>  <ATP_Site>  (427) 
nan

>  <Peripheral>  (427) 
nan

>  <Num_H_Atoms_ProtBoundConf>  (427) 
nan

>  <Num_Resolved_Atoms>  (427) 
nan

>  <Num_Not_Resolved_Atoms>  (427) 
nan

$$$$
CHEMBL4064123
     RDKit          3D

  0  0  0  0  0  0  0  0  0  0999 V3000
M  V30 BEGIN CTAB
M  V30 COUNTS 53 56 0 0 0
M  V30 BEGIN ATOM
M  V30 1 C -1.093952 -2.112268 5.192356 0
M  V30 2 C -0.263622 -0.859677 5.273485 0
M  V30 3 C -1.210573 0.321192 5.259496 0
M  V30 4 N 0.697856 -0.765450 4.200486 0
M  V30 5 C 2.008541 -0.489869 4.181646 0
M  V30 6 N 2.504802 -0.512357 2.930232 0
M  V30 7 C 1.502077 -0.807789 2.114672 0
M  V30 8 C 1.359258 -0.976932 0.751985 0
M  V30 9 N 2.518052 -0.813565 -0.052832 0
M  V30 10 C 2.791484 0.499081 -0.552959 0
M  V30 11 C 1.962093 1.564529 -0.266025 0
M  V30 12 C 2.198258 2.858602 -0.737143 0
M  V30 13 N 1.334540 3.921787 -0.427084 0
M  V30 14 C 3.311399 3.020315 -1.510233 0
M  V30 15 C 4.189592 2.003115 -1.841090 0
M  V30 16 Cl 5.592613 2.314890 -2.841844 0
M  V30 17 C 3.899239 0.750366 -1.344336 0
M  V30 18 N 0.146820 -1.287609 0.222405 0
M  V30 19 C -0.953241 -1.443208 0.980749 0
M  V30 20 N -2.225371 -1.768070 0.434721 0
M  V30 21 C -2.344401 -1.939111 -0.997416 0 CFG=1
M  V30 22 C -1.488161 -3.027958 -1.561602 0
M  V30 23 C -1.375381 -2.761174 -3.064864 0
M  V30 24 C -2.806311 -2.747034 -3.579497 0
M  V30 25 N -3.784861 -3.019370 -2.571304 0
M  V30 26 C -3.755660 -2.137846 -1.438810 0
M  V30 27 N -0.791153 -1.273858 2.305511 0
M  V30 28 C 0.371412 -0.967137 2.899890 0
M  V30 29 H -1.343060 -2.429078 6.228780 0
M  V30 30 H -0.542167 -2.983168 4.758880 0
M  V30 31 H -2.071986 -1.958215 4.684538 0
M  V30 32 H 0.322856 -0.907438 6.217847 0
M  V30 33 H -0.716881 1.109888 4.654746 0
M  V30 34 H -2.145410 0.056083 4.693353 0
M  V30 35 H -1.439729 0.688018 6.280066 0
M  V30 36 H 2.503556 -0.287998 5.133741 0
M  V30 37 H 3.170429 -1.577869 -0.297435 0
M  V30 38 H 1.074094 1.419498 0.354613 0
M  V30 39 H 1.081165 4.194216 0.551346 0
M  V30 40 H 0.795186 4.619472 -0.992551 0
M  V30 41 H 3.566446 4.003534 -1.918032 0
M  V30 42 H 4.582594 -0.060010 -1.597187 0
M  V30 43 H -3.028109 -1.874186 1.060997 0
M  V30 44 H -1.978574 -0.973084 -1.450949 0
M  V30 45 H -0.514698 -3.165190 -1.081612 0
M  V30 46 H -2.026402 -4.013315 -1.470903 0
M  V30 47 H -0.972044 -1.725260 -3.154288 0
M  V30 48 H -0.732384 -3.494672 -3.577025 0
M  V30 49 H -2.861563 -3.575539 -4.316167 0
M  V30 50 H -3.057907 -1.794129 -4.090390 0
M  V30 51 H -3.871621 -4.021825 -2.340991 0
M  V30 52 H -4.217447 -1.156882 -1.632669 0
M  V30 53 H -4.285627 -2.650426 -0.591701 0
M  V30 END ATOM
M  V30 BEGIN BOND
M  V30 1 1 1 2
M  V30 2 1 2 3
M  V30 3 1 2 4
M  V30 4 1 4 5
M  V30 5 2 5 6
M  V30 6 1 6 7
M  V30 7 2 7 8
M  V30 8 1 8 9
M  V30 9 1 9 10
M  V30 10 2 10 11
M  V30 11 1 11 12
M  V30 12 1 12 13
M  V30 13 2 12 14
M  V30 14 1 14 15
M  V30 15 1 15 16
M  V30 16 2 15 17
M  V30 17 1 8 18
M  V30 18 2 18 19
M  V30 19 1 19 20
M  V30 20 1 20 21
M  V30 21 1 21 22
M  V30 22 1 22 23
M  V30 23 1 23 24
M  V30 24 1 24 25
M  V30 25 1 25 26
M  V30 26 1 19 27
M  V30 27 2 27 28
M  V30 28 1 28 4
M  V30 29 1 28 7
M  V30 30 1 17 10
M  V30 31 1 26 21
M  V30 32 1 1 29
M  V30 33 1 1 30
M  V30 34 1 1 31
M  V30 35 1 2 32
M  V30 36 1 3 33
M  V30 37 1 3 34
M  V30 38 1 3 35
M  V30 39 1 5 36
M  V30 40 1 9 37
M  V30 41 1 11 38
M  V30 42 1 13 39
M  V30 43 1 13 40
M  V30 44 1 14 41
M  V30 45 1 17 42
M  V30 46 1 20 43
M  V30 47 1 21 44 CFG=3
M  V30 48 1 22 45
M  V30 49 1 22 46
M  V30 50 1 23 47
M  V30 51 1 23 48
M  V30 52 1 24 49
M  V30 53 1 24 50
M  V30 54 1 25 51
M  V30 55 1 26 52
M  V30 56 1 26 53
M  V30 END BOND
M  V30 END CTAB
M  END
>  <Dataset>  (428) 
ChEMBL_Kinases

>  <Ligand_Instance>  (428) 
nan

>  <PDB_ID>  (428) 
nan

>  <Standardized_SMILES>  (428) 
CC(C)n1cnc2c(Nc3cc(N)cc(Cl)c3)nc(N[C@H]3CCCNC3)nc21

>  <Name>  (428) 
nan

>  <Pocket>  (428) 
nan

>  <ATP_Site>  (428) 
nan

>  <Peripheral>  (428) 
nan

>  <Num_H_Atoms_ProtBoundConf>  (428) 
nan

>  <Num_Resolved_Atoms>  (428) 
nan

>  <Num_Not_Resolved_Atoms>  (428) 
nan

$$$$
CHEMBL4064232
     RDKit          3D

  0  0  0  0  0  0  0  0  0  0999 V3000
M  V30 BEGIN CTAB
M  V30 COUNTS 59 62 0 0 0
M  V30 BEGIN ATOM
M  V30 1 C 2.309954 -3.416674 4.890512 0
M  V30 2 O 2.783137 -4.458973 4.136895 0
M  V30 3 C 3.212048 -4.120016 2.862377 0
M  V30 4 C 2.124733 -3.513973 2.023972 0
M  V30 5 N 2.566850 -3.163517 0.685070 0
M  V30 6 C 3.103738 -2.017508 0.171094 0
M  V30 7 C 3.286630 -0.898827 1.144482 0
M  V30 8 N 2.164377 -0.038932 1.278235 0
M  V30 9 C 1.583934 0.815926 0.306816 0
M  V30 10 C 2.058567 0.965813 -0.975282 0
M  V30 11 C 1.493737 1.791462 -1.927456 0
M  V30 12 C 0.375720 2.519856 -1.576120 0
M  V30 13 C -0.142538 2.408271 -0.304000 0
M  V30 14 C -1.318857 3.143284 0.144099 0
M  V30 15 O -1.770934 3.019832 1.324354 0
M  V30 16 N -2.066271 4.046116 -0.652390 0
M  V30 17 C -3.231535 4.792924 -0.256158 0
M  V30 18 C -4.465637 4.009388 -0.197209 0
M  V30 19 C -5.172573 3.963512 -1.389440 0
M  V30 20 C -6.361105 3.270816 -1.511393 0
M  V30 21 C -6.866203 2.603762 -0.423783 0
M  V30 22 C -6.189331 2.623775 0.791125 0
M  V30 23 C -5.015682 3.323241 0.864688 0
M  V30 24 C 0.467070 1.568489 0.596844 0
M  V30 25 N 3.308243 -2.295771 -1.127780 0
M  V30 26 N 2.923711 -3.530724 -1.398429 0
M  V30 27 C 2.455343 -4.088511 -0.268073 0
M  V30 28 C 1.982480 -5.462802 -0.379028 0
M  V30 29 C 2.766369 -6.600458 -0.175808 0
M  V30 30 C 2.174570 -7.857998 -0.317600 0
M  V30 31 N 0.863284 -7.967193 -0.646411 0
M  V30 32 C 0.099749 -6.871164 -0.844223 0
M  V30 33 C 0.649551 -5.603346 -0.713081 0
M  V30 34 H 2.010014 -3.847469 5.892108 0
M  V30 35 H 3.090158 -2.659843 5.044759 0
M  V30 36 H 1.365053 -2.948949 4.492609 0
M  V30 37 H 4.112343 -3.444080 2.930116 0
M  V30 38 H 3.620073 -5.056509 2.419089 0
M  V30 39 H 1.803565 -2.571732 2.560061 0
M  V30 40 H 1.253199 -4.168981 2.039200 0
M  V30 41 H 4.113711 -0.259802 0.701116 0
M  V30 42 H 3.669791 -1.236901 2.104234 0
M  V30 43 H 1.703083 -0.042426 2.236340 0
M  V30 44 H 2.917824 0.433264 -1.295407 0
M  V30 45 H 1.919410 1.869464 -2.938262 0
M  V30 46 H -0.080416 3.168176 -2.299381 0
M  V30 47 H -1.712753 4.171642 -1.648000 0
M  V30 48 H -3.341498 5.669253 -0.927650 0
M  V30 49 H -3.071713 5.222902 0.758873 0
M  V30 50 H -4.854983 4.459704 -2.308828 0
M  V30 51 H -6.934866 3.216829 -2.426936 0
M  V30 52 H -7.793526 2.047574 -0.472162 0
M  V30 53 H -6.520023 2.124018 1.695910 0
M  V30 54 H -4.446051 3.378582 1.777402 0
M  V30 55 H 0.052440 1.485435 1.600223 0
M  V30 56 H 3.799255 -6.432343 0.082849 0
M  V30 57 H 2.832231 -8.715738 -0.147669 0
M  V30 58 H -0.951373 -7.056443 -1.107257 0
M  V30 59 H -0.039207 -4.780640 -0.890688 0
M  V30 END ATOM
M  V30 BEGIN BOND
M  V30 1 1 1 2
M  V30 2 1 2 3
M  V30 3 1 3 4
M  V30 4 1 4 5
M  V30 5 1 5 6
M  V30 6 1 6 7
M  V30 7 1 7 8
M  V30 8 1 8 9
M  V30 9 2 9 10
M  V30 10 1 10 11
M  V30 11 2 11 12
M  V30 12 1 12 13
M  V30 13 1 13 14
M  V30 14 2 14 15
M  V30 15 1 14 16
M  V30 16 1 16 17
M  V30 17 1 17 18
M  V30 18 2 18 19
M  V30 19 1 19 20
M  V30 20 2 20 21
M  V30 21 1 21 22
M  V30 22 2 22 23
M  V30 23 2 13 24
M  V30 24 2 6 25
M  V30 25 1 25 26
M  V30 26 2 26 27
M  V30 27 1 27 28
M  V30 28 2 28 29
M  V30 29 1 29 30
M  V30 30 2 30 31
M  V30 31 1 31 32
M  V30 32 2 32 33
M  V30 33 1 27 5
M  V30 34 1 33 28
M  V30 35 1 24 9
M  V30 36 1 23 18
M  V30 37 1 1 34
M  V30 38 1 1 35
M  V30 39 1 1 36
M  V30 40 1 3 37
M  V30 41 1 3 38
M  V30 42 1 4 39
M  V30 43 1 4 40
M  V30 44 1 7 41
M  V30 45 1 7 42
M  V30 46 1 8 43
M  V30 47 1 10 44
M  V30 48 1 11 45
M  V30 49 1 12 46
M  V30 50 1 16 47
M  V30 51 1 17 48
M  V30 52 1 17 49
M  V30 53 1 19 50
M  V30 54 1 20 51
M  V30 55 1 21 52
M  V30 56 1 22 53
M  V30 57 1 23 54
M  V30 58 1 24 55
M  V30 59 1 29 56
M  V30 60 1 30 57
M  V30 61 1 32 58
M  V30 62 1 33 59
M  V30 END BOND
M  V30 END CTAB
M  END
>  <Dataset>  (429) 
ChEMBL_Kinases

>  <Ligand_Instance>  (429) 
nan

>  <PDB_ID>  (429) 
nan

>  <Standardized_SMILES>  (429) 
COCCn1c(CNc2cccc(C(=O)NCc3ccccc3)c2)nnc1-c1ccncc1

>  <Name>  (429) 
nan

>  <Pocket>  (429) 
nan

>  <ATP_Site>  (429) 
nan

>  <Peripheral>  (429) 
nan

>  <Num_H_Atoms_ProtBoundConf>  (429) 
nan

>  <Num_Resolved_Atoms>  (429) 
nan

>  <Num_Not_Resolved_Atoms>  (429) 
nan

$$$$
CHEMBL4064302
     RDKit          3D

  0  0  0  0  0  0  0  0  0  0999 V3000
M  V30 BEGIN CTAB
M  V30 COUNTS 40 42 0 0 0
M  V30 BEGIN ATOM
M  V30 1 N 0.539515 -3.945075 1.846740 0
M  V30 2 C 1.326384 -3.947211 0.667741 0
M  V30 3 O 1.477226 -5.109236 0.218128 0
M  V30 4 C 1.870625 -2.723124 0.088186 0
M  V30 5 C 2.623943 -2.815021 -1.057903 0
M  V30 6 C 3.093739 -1.600993 -1.527678 0
M  V30 7 Cl 4.068057 -1.607920 -2.988421 0
M  V30 8 C 2.829690 -0.404959 -0.901712 0
M  V30 9 C 3.164401 0.887603 -1.144376 0
M  V30 10 Cl 4.128594 1.443068 -2.476828 0
M  V30 11 C 2.583875 1.612827 -0.130251 0
M  V30 12 I 2.800111 3.718686 -0.032358 0
M  V30 13 N 1.892293 0.861521 0.754493 0
M  V30 14 C 1.247815 1.371492 1.894139 0
M  V30 15 C -0.097050 1.921505 1.870754 0
M  V30 16 C -1.281723 1.177675 1.456609 0
M  V30 17 C -1.312769 0.677911 0.042234 0
M  V30 18 C -1.779240 -0.763411 -0.060052 0
M  V30 19 N -3.100027 -0.849619 0.549817 0
M  V30 20 C -3.023272 -0.465211 1.927601 0
M  V30 21 C -1.659615 0.022242 2.361877 0
M  V30 22 C 2.068694 -0.395218 0.239617 0
M  V30 23 N 1.602631 -1.564070 0.712731 0
M  V30 24 H -0.436938 -4.268731 2.057100 0
M  V30 25 H 0.742110 -3.613924 2.816591 0
M  V30 26 H 2.804249 -3.772965 -1.512558 0
M  V30 27 H 1.301813 0.620343 2.750093 0
M  V30 28 H 1.927927 2.195298 2.302434 0
M  V30 29 H -0.279072 2.347156 2.919510 0
M  V30 30 H -0.089522 2.881618 1.261102 0
M  V30 31 H -2.167126 1.885806 1.563729 0
M  V30 32 H -2.097126 1.249231 -0.555968 0
M  V30 33 H -0.344499 0.818986 -0.434684 0
M  V30 34 H -1.139860 -1.481882 0.447878 0
M  V30 35 H -1.802240 -1.031031 -1.127489 0
M  V30 36 H -3.449719 -1.831511 0.446270 0
M  V30 37 H -3.323430 -1.335261 2.556107 0
M  V30 38 H -3.769210 0.330836 2.172842 0
M  V30 39 H -1.786385 0.454901 3.377853 0
M  V30 40 H -0.951393 -0.800781 2.353929 0
M  V30 END ATOM
M  V30 BEGIN BOND
M  V30 1 1 1 2
M  V30 2 2 2 3
M  V30 3 1 2 4
M  V30 4 2 4 5
M  V30 5 1 5 6
M  V30 6 1 6 7
M  V30 7 2 6 8
M  V30 8 1 8 9
M  V30 9 1 9 10
M  V30 10 2 9 11
M  V30 11 1 11 12
M  V30 12 1 11 13
M  V30 13 1 13 14
M  V30 14 1 14 15
M  V30 15 1 15 16
M  V30 16 1 16 17
M  V30 17 1 17 18
M  V30 18 1 18 19
M  V30 19 1 19 20
M  V30 20 1 20 21
M  V30 21 1 13 22
M  V30 22 2 22 23
M  V30 23 1 23 4
M  V30 24 1 22 8
M  V30 25 1 21 16
M  V30 26 1 1 24
M  V30 27 1 1 25
M  V30 28 1 5 26
M  V30 29 1 14 27
M  V30 30 1 14 28
M  V30 31 1 15 29
M  V30 32 1 15 30
M  V30 33 1 16 31
M  V30 34 1 17 32
M  V30 35 1 17 33
M  V30 36 1 18 34
M  V30 37 1 18 35
M  V30 38 1 19 36
M  V30 39 1 20 37
M  V30 40 1 20 38
M  V30 41 1 21 39
M  V30 42 1 21 40
M  V30 END BOND
M  V30 END CTAB
M  END
>  <Dataset>  (430) 
ChEMBL_Kinases

>  <Ligand_Instance>  (430) 
nan

>  <PDB_ID>  (430) 
nan

>  <Standardized_SMILES>  (430) 
NC(=O)c1cc(Cl)c2c(Cl)c(I)n(CCC3CCNCC3)c2n1

>  <Name>  (430) 
nan

>  <Pocket>  (430) 
nan

>  <ATP_Site>  (430) 
nan

>  <Peripheral>  (430) 
nan

>  <Num_H_Atoms_ProtBoundConf>  (430) 
nan

>  <Num_Resolved_Atoms>  (430) 
nan

>  <Num_Not_Resolved_Atoms>  (430) 
nan

$$$$
CHEMBL4861739
     RDKit          3D

  0  0  0  0  0  0  0  0  0  0999 V3000
M  V30 BEGIN CTAB
M  V30 COUNTS 45 49 0 0 0
M  V30 BEGIN ATOM
M  V30 1 O 3.328093 -2.263749 3.005699 0
M  V30 2 C 3.744986 -2.751588 1.923932 0
M  V30 3 N 4.601288 -3.863080 1.958514 0
M  V30 4 C 5.004267 -4.446269 3.213451 0
M  V30 5 C 5.022648 -5.953016 3.379807 0
M  V30 6 C 6.279735 -5.119286 3.435188 0
M  V30 7 C 3.382325 -2.214991 0.551810 0
M  V30 8 C 2.601263 -1.190800 0.302138 0
M  V30 9 C 2.377026 -0.836769 -1.009813 0
M  V30 10 N 1.543917 0.264279 -1.461188 0
M  V30 11 N 1.915499 1.241995 -2.289237 0
M  V30 12 C 0.893930 2.093542 -2.493489 0
M  V30 13 C -0.180084 1.620085 -1.748926 0
M  V30 14 C -1.483543 2.106490 -1.588907 0
M  V30 15 C -2.352295 1.391794 -0.754101 0
M  V30 16 N -3.694778 1.800422 -0.526263 0
M  V30 17 C -4.352340 2.156463 0.680034 0
M  V30 18 C -3.657747 2.133885 1.866915 0
M  V30 19 C -4.407582 2.501239 2.978815 0
M  V30 20 C -5.736117 2.856596 2.886856 0
M  V30 21 C -6.386598 2.861669 1.663105 0
M  V30 22 C -5.678282 2.503862 0.537466 0
M  V30 23 Cl -6.489115 2.507146 -1.009082 0
M  V30 24 C -1.917154 0.246075 -0.118363 0
M  V30 25 F -2.644359 -0.524798 0.700079 0
M  V30 26 C -0.620855 -0.206616 -0.299245 0
M  V30 27 C 0.258362 0.474090 -1.114204 0
M  V30 28 C 2.971887 -1.560236 -1.989005 0
M  V30 29 S 3.928400 -2.849114 -0.967299 0
M  V30 30 H 4.967818 -4.294516 1.061950 0
M  V30 31 H 4.560204 -3.914156 4.104923 0
M  V30 32 H 4.937490 -6.582532 2.454087 0
M  V30 33 H 4.616712 -6.390658 4.321310 0
M  V30 34 H 7.041974 -5.272871 2.650303 0
M  V30 35 H 6.744536 -5.053830 4.453341 0
M  V30 36 H 2.123123 -0.610221 1.110653 0
M  V30 37 H 0.894674 2.982655 -3.116940 0
M  V30 38 H -1.833753 3.002983 -2.082601 0
M  V30 39 H -4.109440 1.782740 -1.465231 0
M  V30 40 H -2.618418 1.859256 1.958052 0
M  V30 41 H -3.880613 2.493606 3.945372 0
M  V30 42 H -6.205714 3.120899 3.822072 0
M  V30 43 H -7.428067 3.150430 1.662107 0
M  V30 44 H -0.211293 -1.110860 0.177141 0
M  V30 45 H 2.976824 -1.515248 -3.051081 0
M  V30 END ATOM
M  V30 BEGIN BOND
M  V30 1 2 1 2
M  V30 2 1 2 3
M  V30 3 1 3 4
M  V30 4 1 4 5
M  V30 5 1 5 6
M  V30 6 1 2 7
M  V30 7 2 7 8
M  V30 8 1 8 9
M  V30 9 1 9 10
M  V30 10 1 10 11
M  V30 11 2 11 12
M  V30 12 1 12 13
M  V30 13 2 13 14
M  V30 14 1 14 15
M  V30 15 1 15 16
M  V30 16 1 16 17
M  V30 17 2 17 18
M  V30 18 1 18 19
M  V30 19 2 19 20
M  V30 20 1 20 21
M  V30 21 2 21 22
M  V30 22 1 22 23
M  V30 23 2 15 24
M  V30 24 1 24 25
M  V30 25 1 24 26
M  V30 26 2 26 27
M  V30 27 2 9 28
M  V30 28 1 28 29
M  V30 29 1 6 4
M  V30 30 1 29 7
M  V30 31 1 27 10
M  V30 32 1 27 13
M  V30 33 1 22 17
M  V30 34 1 3 30
M  V30 35 1 4 31
M  V30 36 1 5 32
M  V30 37 1 5 33
M  V30 38 1 6 34
M  V30 39 1 6 35
M  V30 40 1 8 36
M  V30 41 1 12 37
M  V30 42 1 14 38
M  V30 43 1 16 39
M  V30 44 1 18 40
M  V30 45 1 19 41
M  V30 46 1 20 42
M  V30 47 1 21 43
M  V30 48 1 26 44
M  V30 49 1 28 45
M  V30 END BOND
M  V30 END CTAB
M  END
>  <Dataset>  (431) 
ChEMBL_Kinases

>  <Ligand_Instance>  (431) 
nan

>  <PDB_ID>  (431) 
nan

>  <Standardized_SMILES>  (431) 
O=C(NC1CC1)c1cc(-n2ncc3cc(Nc4ccccc4Cl)c(F)cc32)cs1

>  <Name>  (431) 
nan

>  <Pocket>  (431) 
nan

>  <ATP_Site>  (431) 
nan

>  <Peripheral>  (431) 
nan

>  <Num_H_Atoms_ProtBoundConf>  (431) 
nan

>  <Num_Resolved_Atoms>  (431) 
nan

>  <Num_Not_Resolved_Atoms>  (431) 
nan

$$$$
CHEMBL4065094
     RDKit          3D

  0  0  0  0  0  0  0  0  0  0999 V3000
M  V30 BEGIN CTAB
M  V30 COUNTS 36 38 0 0 0
M  V30 BEGIN ATOM
M  V30 1 N 0.179752 -3.185071 3.545631 0
M  V30 2 C 1.405461 -2.519626 3.832418 0
M  V30 3 O 2.101194 -2.937730 4.810250 0
M  V30 4 C 1.850676 -1.387208 3.024354 0
M  V30 5 C 3.045265 -0.775773 3.341772 0
M  V30 6 C 3.449193 0.291753 2.567612 0
M  V30 7 Cl 4.936771 1.104043 2.910777 0
M  V30 8 C 2.602390 0.664514 1.517022 0
M  V30 9 C 2.835698 1.706552 0.636341 0
M  V30 10 Cl 4.193371 2.813163 0.576491 0
M  V30 11 C 1.741495 1.683000 -0.202625 0
M  V30 12 I 1.487539 3.039681 -1.781297 0
M  V30 13 N 0.901730 0.713943 0.124883 0
M  V30 14 C -0.341498 0.293725 -0.425053 0
M  V30 15 C -0.292162 -1.207335 -0.740925 0
M  V30 16 C -1.709395 -1.696713 -0.583331 0
M  V30 17 C -2.640452 -0.620230 -1.061669 0
M  V30 18 O -3.766649 -1.249182 -1.593827 0
M  V30 19 C -2.041114 0.246697 -2.141525 0
M  V30 20 C -0.789834 0.969317 -1.667404 0
M  V30 21 C 1.406398 0.062995 1.188265 0
M  V30 22 N 1.096185 -0.964075 1.995056 0
M  V30 23 H -0.090592 -4.144889 3.210135 0
M  V30 24 H 0.326356 -4.153930 3.228868 0
M  V30 25 H 3.614072 -1.154969 4.179374 0
M  V30 26 H -1.126065 0.474686 0.358513 0
M  V30 27 H 0.056335 -1.289236 -1.793332 0
M  V30 28 H 0.424057 -1.753822 -0.130825 0
M  V30 29 H -1.847308 -1.878629 0.521542 0
M  V30 30 H -1.889117 -2.687694 -1.053329 0
M  V30 31 H -3.010504 -0.038191 -0.190258 0
M  V30 32 H -4.045127 -1.940918 -0.946283 0
M  V30 33 H -1.847959 -0.411384 -3.012432 0
M  V30 34 H -2.840930 0.947561 -2.452582 0
M  V30 35 H -1.104942 2.020297 -1.505776 0
M  V30 36 H -0.056625 0.837808 -2.491848 0
M  V30 END ATOM
M  V30 BEGIN BOND
M  V30 1 1 1 2
M  V30 2 2 2 3
M  V30 3 1 2 4
M  V30 4 2 4 5
M  V30 5 1 5 6
M  V30 6 1 6 7
M  V30 7 2 6 8
M  V30 8 1 8 9
M  V30 9 1 9 10
M  V30 10 2 9 11
M  V30 11 1 11 12
M  V30 12 1 11 13
M  V30 13 1 13 14
M  V30 14 1 14 15
M  V30 15 1 15 16
M  V30 16 1 16 17
M  V30 17 1 17 18
M  V30 18 1 17 19
M  V30 19 1 19 20
M  V30 20 1 13 21
M  V30 21 2 21 22
M  V30 22 1 22 4
M  V30 23 1 21 8
M  V30 24 1 20 14
M  V30 25 1 1 23
M  V30 26 1 1 24
M  V30 27 1 5 25
M  V30 28 1 14 26
M  V30 29 1 15 27
M  V30 30 1 15 28
M  V30 31 1 16 29
M  V30 32 1 16 30
M  V30 33 1 17 31
M  V30 34 1 18 32
M  V30 35 1 19 33
M  V30 36 1 19 34
M  V30 37 1 20 35
M  V30 38 1 20 36
M  V30 END BOND
M  V30 END CTAB
M  END
>  <Dataset>  (432) 
ChEMBL_Kinases

>  <Ligand_Instance>  (432) 
nan

>  <PDB_ID>  (432) 
nan

>  <Standardized_SMILES>  (432) 
NC(=O)c1cc(Cl)c2c(Cl)c(I)n(C3CCC(O)CC3)c2n1

>  <Name>  (432) 
nan

>  <Pocket>  (432) 
nan

>  <ATP_Site>  (432) 
nan

>  <Peripheral>  (432) 
nan

>  <Num_H_Atoms_ProtBoundConf>  (432) 
nan

>  <Num_Resolved_Atoms>  (432) 
nan

>  <Num_Not_Resolved_Atoms>  (432) 
nan

$$$$
CHEMBL4065187
     RDKit          3D

  0  0  0  0  0  0  0  0  0  0999 V3000
M  V30 BEGIN CTAB
M  V30 COUNTS 143 146 0 0 0
M  V30 BEGIN ATOM
M  V30 1 C 5.446122 0.563032 0.212203 0
M  V30 2 C 4.210441 0.448875 -0.626256 0
M  V30 3 O 3.781762 -0.755741 -0.552832 0
M  V30 4 N 3.755634 1.644596 -1.318578 0
M  V30 5 C 4.542716 2.901685 -1.188270 0
M  V30 6 C 4.826056 3.127774 -2.683619 0
M  V30 7 C 3.587161 2.605319 -3.379799 0
M  V30 8 C 2.739654 2.208366 -2.169903 0 CFG=1
M  V30 9 C 1.586987 1.429840 -2.529679 0
M  V30 10 O 0.742800 2.258323 -3.062740 0
M  V30 11 N 1.019764 0.148825 -2.534043 0
M  V30 12 C -0.291074 -0.200066 -3.031451 0 CFG=1
M  V30 13 C -0.294106 -0.725304 -4.445509 0
M  V30 14 C 0.514472 -1.955108 -4.682191 0
M  V30 15 C 0.411053 -2.368791 -6.162211 0
M  V30 16 C 1.998823 -1.781576 -4.441499 0
M  V30 17 C -1.011674 -1.016575 -2.059404 0
M  V30 18 O 0.023392 -0.942627 -1.307261 0
M  V30 19 N -2.245699 -1.678179 -1.836656 0
M  V30 20 C -2.463135 -2.396983 -0.633663 0 CFG=1
M  V30 21 C -3.688915 -2.065289 0.155445 0
M  V30 22 C -3.628053 -2.940553 1.383835 0
M  V30 23 C -4.031568 -4.198710 1.772099 0
M  V30 24 N -3.589017 -4.412308 3.015066 0
M  V30 25 C -2.905571 -3.324234 3.459566 0
M  V30 26 N -2.946039 -2.439604 2.449075 0
M  V30 27 C -2.378384 -1.102805 2.707688 0
M  V30 28 C -3.333832 -0.375813 3.634138 0
M  V30 29 C -2.925673 1.044433 3.928537 0
M  V30 30 C -3.799480 1.584741 5.018539 0
M  V30 31 C -3.537542 3.016898 5.378506 0
M  V30 32 C -2.095122 3.294155 5.641798 0
M  V30 33 C -1.395177 2.453654 6.646974 0
M  V30 34 C 0.095965 2.928235 6.686054 0
M  V30 35 C 0.556061 2.940318 5.252767 0
M  V30 36 C 0.578516 4.229407 4.678955 0
M  V30 37 C 0.861409 4.495428 3.338598 0
M  V30 38 C 1.137089 3.410175 2.519510 0
M  V30 39 C 1.421194 3.812622 1.118272 0
M  V30 40 C 0.172032 4.196481 0.380837 0
M  V30 41 O -0.803487 3.229833 0.290719 0
M  V30 42 C -1.913448 3.792828 -0.387113 0
M  V30 43 C -3.037032 2.871251 -0.527918 0
M  V30 44 C -3.349477 2.008524 -1.559783 0
M  V30 45 C -4.452833 1.191009 -1.535705 0
M  V30 46 C -5.335000 1.169330 -0.479959 0
M  V30 47 C -5.021701 2.028599 0.542737 0
M  V30 48 C -3.922808 2.861767 0.552012 0
M  V30 49 C 1.118907 2.170169 3.070546 0
M  V30 50 C 0.841929 1.914909 4.391429 0
M  V30 51 C -2.417246 -3.890603 -0.861904 0
M  V30 52 O -2.539913 -5.118949 -0.502470 0
M  V30 53 N -2.023780 -4.255935 -2.202927 0
M  V30 54 C -1.881790 -5.553773 -2.806926 0 CFG=1
M  V30 55 C -1.931908 -5.591704 -4.282289 0
M  V30 56 O -3.120454 -5.109207 -4.817446 0
M  V30 57 C -0.501682 -6.029778 -2.371682 0
M  V30 58 O -0.202664 -7.164534 -2.869055 0
M  V30 59 N 0.372095 -5.318403 -1.509623 0
M  V30 60 C 1.629903 -5.952450 -1.208897 0 CFG=2
M  V30 61 C 1.616152 -6.462436 0.216913 0
M  V30 62 N 0.373144 -6.293223 0.945284 0
M  V30 63 O 2.800305 -6.935391 0.383102 0
M  V30 64 C 2.744755 -4.984860 -1.364700 0 CFG=1
M  V30 65 C 2.486522 -3.776836 -0.523967 0
M  V30 66 O 3.995684 -5.569199 -1.079340 0
M  V30 67 P 4.925743 -5.571164 -2.476757 0
M  V30 68 O 6.206116 -6.356403 -2.245523 0
M  V30 69 O 4.044390 -6.322293 -3.734257 0
M  V30 70 O 5.330329 -4.037542 -3.022823 0
M  V30 71 H 5.386839 1.471881 0.856199 0
M  V30 72 H 5.626589 -0.302252 0.855851 0
M  V30 73 H 6.358860 0.680710 -0.408325 0
M  V30 74 H 3.842156 3.648327 -0.793555 0
M  V30 75 H 5.457965 2.777800 -0.624765 0
M  V30 76 H 5.014783 4.192632 -2.825634 0
M  V30 77 H 5.736426 2.578014 -2.977272 0
M  V30 78 H 3.125265 3.370092 -3.997296 0
M  V30 79 H 3.901789 1.678958 -3.942431 0
M  V30 80 H 2.430817 3.161855 -1.682396 0
M  V30 81 H 1.701015 -0.487631 -2.122732 0
M  V30 82 H -0.849768 0.786175 -3.125255 0
M  V30 83 H -1.336975 -0.853242 -4.773573 0
M  V30 84 H 0.107998 0.089991 -5.100078 0
M  V30 85 H 0.204620 -2.806115 -4.048176 0
M  V30 86 H -0.529800 -1.933757 -6.537768 0
M  V30 87 H 0.395036 -3.460440 -6.251700 0
M  V30 88 H 1.248727 -1.944918 -6.740884 0
M  V30 89 H 2.287048 -0.711646 -4.419189 0
M  V30 90 H 2.626595 -2.214443 -5.272347 0
M  V30 91 H 2.331039 -2.305528 -3.519139 0
M  V30 92 H -2.768456 -1.468168 -2.687345 0
M  V30 93 H -1.583359 -2.202924 0.052702 0
M  V30 94 H -3.692353 -1.023325 0.464345 0
M  V30 95 H -4.629788 -2.298670 -0.396248 0
M  V30 96 H -4.615009 -4.771593 1.076858 0
M  V30 97 H -2.516363 -3.428359 4.460384 0
M  V30 98 H -1.420546 -1.197130 3.276952 0
M  V30 99 H -2.263726 -0.575780 1.767299 0
M  V30 100 H -4.344180 -0.428585 3.209760 0
M  V30 101 H -3.376261 -0.932911 4.603234 0
M  V30 102 H -1.856396 1.050814 4.115146 0
M  V30 103 H -3.135094 1.668650 3.022688 0
M  V30 104 H -4.848428 1.556431 4.617093 0
M  V30 105 H -3.781064 0.955248 5.933308 0
M  V30 106 H -3.824513 3.627745 4.487899 0
M  V30 107 H -4.197906 3.295158 6.207815 0
M  V30 108 H -1.580567 3.163576 4.651879 0
M  V30 109 H -2.017081 4.383442 5.899096 0
M  V30 110 H -1.775701 2.705564 7.653272 0
M  V30 111 H -1.398785 1.383465 6.409203 0
M  V30 112 H 0.714591 2.202272 7.229678 0
M  V30 113 H 0.187407 3.933576 7.086510 0
M  V30 114 H 0.368190 5.109537 5.282313 0
M  V30 115 H 0.856327 5.522550 2.994906 0
M  V30 116 H 2.210306 4.565465 1.058626 0
M  V30 117 H 1.811989 2.888607 0.615281 0
M  V30 118 H 0.406035 4.587738 -0.643740 0
M  V30 119 H -0.275303 5.070781 0.914022 0
M  V30 120 H -2.237428 4.703609 0.185895 0
M  V30 121 H -1.524331 4.151134 -1.359368 0
M  V30 122 H -2.659741 2.045691 -2.375102 0
M  V30 123 H -4.668719 0.514182 -2.371903 0
M  V30 124 H -6.219015 0.562477 -0.379409 0
M  V30 125 H -5.691547 2.058736 1.417873 0
M  V30 126 H -3.776373 3.510131 1.430775 0
M  V30 127 H 1.340117 1.355750 2.404370 0
M  V30 128 H 0.821723 0.950946 4.849310 0
M  V30 129 H -1.781578 -3.511762 -2.946926 0
M  V30 130 H -2.531763 -6.341694 -2.327727 0
M  V30 131 H -1.054660 -5.128945 -4.779754 0
M  V30 132 H -1.874598 -6.674234 -4.598901 0
M  V30 133 H -3.072472 -5.078027 -5.801992 0
M  V30 134 H 0.033841 -4.395243 -1.163437 0
M  V30 135 H 1.701811 -6.878136 -1.816065 0
M  V30 136 H 0.136634 -7.323206 0.817025 0
M  V30 137 H 0.326263 -7.327840 0.711218 0
M  V30 138 H 2.827337 -4.661633 -2.431114 0
M  V30 139 H 2.109947 -2.950938 -1.153043 0
M  V30 140 H 1.783406 -3.950794 0.319834 0
M  V30 141 H 3.459976 -3.464357 -0.091264 0
M  V30 142 H 3.530732 -7.050808 -3.349021 0
M  V30 143 H 5.123565 -3.899670 -3.996312 0
M  V30 END ATOM
M  V30 BEGIN BOND
M  V30 1 1 1 2
M  V30 2 2 2 3
M  V30 3 1 2 4
M  V30 4 1 4 5
M  V30 5 1 5 6
M  V30 6 1 6 7
M  V30 7 1 7 8
M  V30 8 1 8 9
M  V30 9 2 9 10
M  V30 10 1 9 11
M  V30 11 1 11 12
M  V30 12 1 12 13
M  V30 13 1 13 14
M  V30 14 1 14 15
M  V30 15 1 14 16
M  V30 16 1 12 17
M  V30 17 2 17 18
M  V30 18 1 17 19
M  V30 19 1 19 20
M  V30 20 1 20 21
M  V30 21 1 21 22
M  V30 22 2 22 23
M  V30 23 1 23 24
M  V30 24 2 24 25
M  V30 25 1 25 26
M  V30 26 1 26 27
M  V30 27 1 27 28
M  V30 28 1 28 29
M  V30 29 1 29 30
M  V30 30 1 30 31
M  V30 31 1 31 32
M  V30 32 1 32 33
M  V30 33 1 33 34
M  V30 34 1 34 35
M  V30 35 2 35 36
M  V30 36 1 36 37
M  V30 37 2 37 38
M  V30 38 1 38 39
M  V30 39 1 39 40
M  V30 40 1 40 41
M  V30 41 1 41 42
M  V30 42 1 42 43
M  V30 43 2 43 44
M  V30 44 1 44 45
M  V30 45 2 45 46
M  V30 46 1 46 47
M  V30 47 2 47 48
M  V30 48 1 38 49
M  V30 49 2 49 50
M  V30 50 1 20 51
M  V30 51 2 51 52
M  V30 52 1 51 53
M  V30 53 1 53 54
M  V30 54 1 54 55
M  V30 55 1 55 56
M  V30 56 1 54 57
M  V30 57 2 57 58
M  V30 58 1 57 59
M  V30 59 1 59 60
M  V30 60 1 60 61
M  V30 61 1 61 62
M  V30 62 2 61 63
M  V30 63 1 60 64
M  V30 64 1 64 65
M  V30 65 1 64 66
M  V30 66 1 66 67
M  V30 67 2 67 68
M  V30 68 1 67 69
M  V30 69 1 67 70
M  V30 70 1 8 4
M  V30 71 1 26 22
M  V30 72 1 50 35
M  V30 73 1 48 43
M  V30 74 1 1 71
M  V30 75 1 1 72
M  V30 76 1 1 73
M  V30 77 1 5 74
M  V30 78 1 5 75
M  V30 79 1 6 76
M  V30 80 1 6 77
M  V30 81 1 7 78
M  V30 82 1 7 79
M  V30 83 1 8 80 CFG=1
M  V30 84 1 11 81
M  V30 85 1 12 82 CFG=3
M  V30 86 1 13 83
M  V30 87 1 13 84
M  V30 88 1 14 85
M  V30 89 1 15 86
M  V30 90 1 15 87
M  V30 91 1 15 88
M  V30 92 1 16 89
M  V30 93 1 16 90
M  V30 94 1 16 91
M  V30 95 1 19 92
M  V30 96 1 20 93 CFG=1
M  V30 97 1 21 94
M  V30 98 1 21 95
M  V30 99 1 23 96
M  V30 100 1 25 97
M  V30 101 1 27 98
M  V30 102 1 27 99
M  V30 103 1 28 100
M  V30 104 1 28 101
M  V30 105 1 29 102
M  V30 106 1 29 103
M  V30 107 1 30 104
M  V30 108 1 30 105
M  V30 109 1 31 106
M  V30 110 1 31 107
M  V30 111 1 32 108
M  V30 112 1 32 109
M  V30 113 1 33 110
M  V30 114 1 33 111
M  V30 115 1 34 112
M  V30 116 1 34 113
M  V30 117 1 36 114
M  V30 118 1 37 115
M  V30 119 1 39 116
M  V30 120 1 39 117
M  V30 121 1 40 118
M  V30 122 1 40 119
M  V30 123 1 42 120
M  V30 124 1 42 121
M  V30 125 1 44 122
M  V30 126 1 45 123
M  V30 127 1 46 124
M  V30 128 1 47 125
M  V30 129 1 48 126
M  V30 130 1 49 127
M  V30 131 1 50 128
M  V30 132 1 53 129
M  V30 133 1 54 130 CFG=1
M  V30 134 1 55 131
M  V30 135 1 55 132
M  V30 136 1 56 133
M  V30 137 1 59 134
M  V30 138 1 60 135 CFG=3
M  V30 139 1 62 136
M  V30 140 1 62 137
M  V30 141 1 64 138 CFG=3
M  V30 142 1 65 139
M  V30 143 1 65 140
M  V30 144 1 65 141
M  V30 145 1 69 142
M  V30 146 1 70 143
M  V30 END BOND
M  V30 END CTAB
M  END
>  <Dataset>  (433) 
ChEMBL_Kinases

>  <Ligand_Instance>  (433) 
nan

>  <PDB_ID>  (433) 
nan

>  <Standardized_SMILES>  (433) 
CC(=O)N1CCC[C@H]1C(=O)N[C@@H](CC(C)C)C(=O)N[C@@H](Cc1cncn1CCCCCCCCc1ccc(CCOCc2ccccc2)cc1)C(=O)N[C@@H](CO)C(=O)N[C@H](C(N)=O)[C@@H](C)OP(=O)(O)O

>  <Name>  (433) 
nan

>  <Pocket>  (433) 
nan

>  <ATP_Site>  (433) 
nan

>  <Peripheral>  (433) 
nan

>  <Num_H_Atoms_ProtBoundConf>  (433) 
nan

>  <Num_Resolved_Atoms>  (433) 
nan

>  <Num_Not_Resolved_Atoms>  (433) 
nan

$$$$
CHEMBL4065485
     RDKit          3D

  0  0  0  0  0  0  0  0  0  0999 V3000
M  V30 BEGIN CTAB
M  V30 COUNTS 77 82 0 0 0
M  V30 BEGIN ATOM
M  V30 1 C 3.600570 -0.893510 7.692947 0
M  V30 2 N 3.300037 -1.039522 6.304031 0
M  V30 3 C 3.322844 -2.419035 5.861440 0
M  V30 4 C 3.055059 -2.502677 4.377002 0
M  V30 5 C 4.134842 -1.841000 3.550539 0
M  V30 6 N 3.491390 -1.168485 2.467267 0
M  V30 7 C 3.554953 -1.327832 1.070076 0
M  V30 8 O 4.303138 -2.216105 0.596275 0
M  V30 9 C 2.779985 -0.494368 0.155640 0
M  V30 10 C 2.928162 -0.721673 -1.198136 0
M  V30 11 C 2.217711 0.036094 -2.107140 0
M  V30 12 C 1.336561 1.042944 -1.735126 0
M  V30 13 C 0.574776 1.866213 -2.635743 0
M  V30 14 C -0.779273 1.662313 -2.792642 0
M  V30 15 C -1.774459 0.743788 -2.251742 0
M  V30 16 C -2.169896 0.654815 -0.933023 0
M  V30 17 C -3.117916 -0.249805 -0.509218 0
M  V30 18 C -3.729236 -1.122127 -1.382593 0
M  V30 19 N -4.705159 -2.062616 -0.953896 0
M  V30 20 C -5.467226 -2.979752 -1.777845 0
M  V30 21 C -4.980352 -4.376283 -1.507470 0
M  V30 22 N -4.554754 -4.616403 -0.185739 0
M  V30 23 C -3.410976 -5.435206 -0.014393 0
M  V30 24 C -4.919410 -3.721494 0.822736 0
M  V30 25 C -5.112184 -2.277425 0.419687 0
M  V30 26 C -3.362023 -1.064843 -2.708726 0
M  V30 27 C -2.395053 -0.135988 -3.115380 0
M  V30 28 N -1.185712 2.599662 -3.698441 0
M  V30 29 C -2.520097 2.851246 -4.241285 0
M  V30 30 C -0.144873 3.356835 -4.094221 0
M  V30 31 N 0.031533 4.388539 -4.938456 0
M  V30 32 C 1.253262 4.944238 -5.116906 0
M  V30 33 C 2.387761 4.510224 -4.465283 0
M  V30 34 C 2.236915 3.441823 -3.583358 0
M  V30 35 Cl 3.629021 2.832163 -2.719027 0
M  V30 36 C 0.961458 2.911596 -3.440014 0
M  V30 37 C 1.235443 1.218279 -0.366961 0
M  V30 38 C 1.919011 0.492815 0.588150 0
M  V30 39 C 4.907457 -0.910298 4.455762 0
M  V30 40 C 4.045753 -0.172330 5.424956 0
M  V30 41 H 4.060524 -1.807894 8.119248 0
M  V30 42 H 2.608420 -0.796560 8.217158 0
M  V30 43 H 4.152694 0.033189 7.876895 0
M  V30 44 H 4.258329 -2.923093 6.103848 0
M  V30 45 H 2.456788 -2.922183 6.353420 0
M  V30 46 H 3.018530 -3.571354 4.088247 0
M  V30 47 H 2.050051 -2.039117 4.156046 0
M  V30 48 H 4.793664 -2.623297 3.125005 0
M  V30 49 H 2.888502 -0.446363 2.919201 0
M  V30 50 H 3.597709 -1.490977 -1.567158 0
M  V30 51 H 2.327219 -0.136044 -3.188544 0
M  V30 52 H -1.700458 1.333554 -0.239216 0
M  V30 53 H -3.342508 -0.226170 0.536416 0
M  V30 54 H -6.562901 -2.921027 -1.567208 0
M  V30 55 H -5.362953 -2.698304 -2.841095 0
M  V30 56 H -4.155967 -4.599795 -2.214886 0
M  V30 57 H -5.814455 -5.071348 -1.763099 0
M  V30 58 H -2.849220 -5.247243 0.905039 0
M  V30 59 H -3.654593 -6.526451 -0.027558 0
M  V30 60 H -2.711214 -5.315692 -0.891321 0
M  V30 61 H -5.792734 -4.111017 1.389021 0
M  V30 62 H -4.087260 -3.699951 1.587539 0
M  V30 63 H -4.690093 -1.574754 1.141798 0
M  V30 64 H -6.226611 -2.086518 0.450057 0
M  V30 65 H -3.756374 -1.681534 -3.479220 0
M  V30 66 H -2.110535 -0.095581 -4.158269 0
M  V30 67 H -2.855686 3.881138 -3.998891 0
M  V30 68 H -3.237327 2.061670 -3.919338 0
M  V30 69 H -2.518930 2.814207 -5.364032 0
M  V30 70 H 1.296463 5.776229 -5.822379 0
M  V30 71 H 3.324196 4.979024 -4.638415 0
M  V30 72 H 0.579029 1.978546 0.032904 0
M  V30 73 H 1.790605 0.683620 1.644595 0
M  V30 74 H 5.647286 -1.506021 5.000963 0
M  V30 75 H 5.447822 -0.147259 3.849481 0
M  V30 76 H 4.723431 0.429229 6.069947 0
M  V30 77 H 3.391258 0.577344 4.905729 0
M  V30 END ATOM
M  V30 BEGIN BOND
M  V30 1 1 1 2
M  V30 2 1 2 3
M  V30 3 1 3 4
M  V30 4 1 4 5
M  V30 5 1 5 6
M  V30 6 1 6 7
M  V30 7 2 7 8
M  V30 8 1 7 9
M  V30 9 2 9 10
M  V30 10 1 10 11
M  V30 11 2 11 12
M  V30 12 1 12 13
M  V30 13 2 13 14
M  V30 14 1 14 15
M  V30 15 2 15 16
M  V30 16 1 16 17
M  V30 17 2 17 18
M  V30 18 1 18 19
M  V30 19 1 19 20
M  V30 20 1 20 21
M  V30 21 1 21 22
M  V30 22 1 22 23
M  V30 23 1 22 24
M  V30 24 1 24 25
M  V30 25 1 18 26
M  V30 26 2 26 27
M  V30 27 1 14 28
M  V30 28 1 28 29
M  V30 29 1 28 30
M  V30 30 2 30 31
M  V30 31 1 31 32
M  V30 32 2 32 33
M  V30 33 1 33 34
M  V30 34 1 34 35
M  V30 35 2 34 36
M  V30 36 1 12 37
M  V30 37 2 37 38
M  V30 38 1 5 39
M  V30 39 1 39 40
M  V30 40 1 40 2
M  V30 41 1 38 9
M  V30 42 1 36 13
M  V30 43 1 27 15
M  V30 44 1 36 30
M  V30 45 1 25 19
M  V30 46 1 1 41
M  V30 47 1 1 42
M  V30 48 1 1 43
M  V30 49 1 3 44
M  V30 50 1 3 45
M  V30 51 1 4 46
M  V30 52 1 4 47
M  V30 53 1 5 48
M  V30 54 1 6 49
M  V30 55 1 10 50
M  V30 56 1 11 51
M  V30 57 1 16 52
M  V30 58 1 17 53
M  V30 59 1 20 54
M  V30 60 1 20 55
M  V30 61 1 21 56
M  V30 62 1 21 57
M  V30 63 1 23 58
M  V30 64 1 23 59
M  V30 65 1 23 60
M  V30 66 1 24 61
M  V30 67 1 24 62
M  V30 68 1 25 63
M  V30 69 1 25 64
M  V30 70 1 26 65
M  V30 71 1 27 66
M  V30 72 1 29 67
M  V30 73 1 29 68
M  V30 74 1 29 69
M  V30 75 1 32 70
M  V30 76 1 33 71
M  V30 77 1 37 72
M  V30 78 1 38 73
M  V30 79 1 39 74
M  V30 80 1 39 75
M  V30 81 1 40 76
M  V30 82 1 40 77
M  V30 END BOND
M  V30 END CTAB
M  END
>  <Dataset>  (434) 
ChEMBL_Kinases

>  <Ligand_Instance>  (434) 
nan

>  <PDB_ID>  (434) 
nan

>  <Standardized_SMILES>  (434) 
CN1CCC(NC(=O)c2ccc(-c3c(-c4ccc(N5CCN(C)CC5)cc4)n(C)c4nccc(Cl)c34)cc2)CC1

>  <Name>  (434) 
nan

>  <Pocket>  (434) 
nan

>  <ATP_Site>  (434) 
nan

>  <Peripheral>  (434) 
nan

>  <Num_H_Atoms_ProtBoundConf>  (434) 
nan

>  <Num_Resolved_Atoms>  (434) 
nan

>  <Num_Not_Resolved_Atoms>  (434) 
nan

$$$$
CHEMBL4861369
     RDKit          3D

  0  0  0  0  0  0  0  0  0  0999 V3000
M  V30 BEGIN CTAB
M  V30 COUNTS 46 48 0 0 0
M  V30 BEGIN ATOM
M  V30 1 C 0.259141 -5.333581 3.010173 0
M  V30 2 O -0.545675 -4.923056 1.940092 0
M  V30 3 C -0.277140 -3.876677 1.100771 0
M  V30 4 C 0.822341 -3.042597 1.153314 0
M  V30 5 C 0.821821 -2.078951 0.179351 0
M  V30 6 C -0.077817 -1.823763 -0.809122 0
M  V30 7 N 0.019219 -0.762700 -1.751577 0
M  V30 8 C 1.093032 0.180401 -1.538294 0
M  V30 9 N 2.232408 0.516378 -2.159309 0
M  V30 10 C 3.025862 1.472276 -1.646058 0
M  V30 11 C 2.660251 2.102670 -0.480673 0
M  V30 12 C 3.579090 3.105549 -0.016093 0
M  V30 13 N 4.785613 3.518525 -0.613938 0
M  V30 14 O 3.650962 3.891885 0.965192 0
M  V30 15 C 1.503094 1.791277 0.189484 0
M  V30 16 N 1.127949 2.421488 1.406429 0
M  V30 17 C -0.052735 2.104744 2.117620 0
M  V30 18 C -1.149597 1.519790 1.531321 0
M  V30 19 C -2.302578 1.171481 2.232080 0
M  V30 20 C -2.365547 1.424671 3.605417 0
M  V30 21 C -1.291355 2.011115 4.235545 0
M  V30 22 C -0.190923 2.322978 3.471040 0
M  V30 23 N 0.799057 0.831375 -0.411521 0
M  V30 24 C -1.182640 -2.692204 -0.833418 0
M  V30 25 C -1.264038 -3.709151 0.127024 0
M  V30 26 O -2.394807 -4.540152 0.046568 0
M  V30 27 C -3.329704 -4.275108 -0.978506 0
M  V30 28 H 0.641059 -6.375824 2.907597 0
M  V30 29 H 1.150021 -4.695725 3.104706 0
M  V30 30 H -0.294798 -5.285743 3.990271 0
M  V30 31 H 1.572888 -3.169832 1.898515 0
M  V30 32 H 1.699074 -1.409792 0.216753 0
M  V30 33 H -0.680479 -0.730223 -2.533683 0
M  V30 34 H 3.906412 1.647844 -2.238085 0
M  V30 35 H 5.795871 3.304448 -0.368170 0
M  V30 36 H 4.548378 4.144816 -1.440633 0
M  V30 37 H 1.691460 3.155139 1.858625 0
M  V30 38 H -1.245627 1.275143 0.491191 0
M  V30 39 H -3.175990 0.705440 1.780622 0
M  V30 40 H -3.256631 1.153344 4.148264 0
M  V30 41 H -1.397395 2.178003 5.280851 0
M  V30 42 H 0.641723 2.788281 4.017648 0
M  V30 43 H -1.904177 -2.503046 -1.610062 0
M  V30 44 H -2.867874 -4.424381 -1.957787 0
M  V30 45 H -3.664986 -3.205067 -0.874156 0
M  V30 46 H -4.225917 -4.927955 -0.857481 0
M  V30 END ATOM
M  V30 BEGIN BOND
M  V30 1 1 1 2
M  V30 2 1 2 3
M  V30 3 2 3 4
M  V30 4 1 4 5
M  V30 5 2 5 6
M  V30 6 1 6 7
M  V30 7 1 7 8
M  V30 8 2 8 9
M  V30 9 1 9 10
M  V30 10 2 10 11
M  V30 11 1 11 12
M  V30 12 1 12 13
M  V30 13 2 12 14
M  V30 14 1 11 15
M  V30 15 1 15 16
M  V30 16 1 16 17
M  V30 17 2 17 18
M  V30 18 1 18 19
M  V30 19 2 19 20
M  V30 20 1 20 21
M  V30 21 2 21 22
M  V30 22 2 15 23
M  V30 23 1 6 24
M  V30 24 2 24 25
M  V30 25 1 25 26
M  V30 26 1 26 27
M  V30 27 1 25 3
M  V30 28 1 23 8
M  V30 29 1 22 17
M  V30 30 1 1 28
M  V30 31 1 1 29
M  V30 32 1 1 30
M  V30 33 1 4 31
M  V30 34 1 5 32
M  V30 35 1 7 33
M  V30 36 1 10 34
M  V30 37 1 13 35
M  V30 38 1 13 36
M  V30 39 1 16 37
M  V30 40 1 18 38
M  V30 41 1 19 39
M  V30 42 1 20 40
M  V30 43 1 21 41
M  V30 44 1 22 42
M  V30 45 1 24 43
M  V30 46 1 27 44
M  V30 47 1 27 45
M  V30 48 1 27 46
M  V30 END BOND
M  V30 END CTAB
M  END
>  <Dataset>  (435) 
ChEMBL_Kinases

>  <Ligand_Instance>  (435) 
nan

>  <PDB_ID>  (435) 
nan

>  <Standardized_SMILES>  (435) 
COc1ccc(Nc2ncc(C(N)=O)c(Nc3ccccc3)n2)cc1OC

>  <Name>  (435) 
nan

>  <Pocket>  (435) 
nan

>  <ATP_Site>  (435) 
nan

>  <Peripheral>  (435) 
nan

>  <Num_H_Atoms_ProtBoundConf>  (435) 
nan

>  <Num_Resolved_Atoms>  (435) 
nan

>  <Num_Not_Resolved_Atoms>  (435) 
nan

$$$$
CHEMBL4065701
     RDKit          3D

  0  0  0  0  0  0  0  0  0  0999 V3000
M  V30 BEGIN CTAB
M  V30 COUNTS 40 44 0 0 0
M  V30 BEGIN ATOM
M  V30 1 O 2.029521 -3.841970 5.699235 0
M  V30 2 C 2.327204 -2.959253 4.655679 0
M  V30 3 C 1.843461 -3.151770 3.365966 0
M  V30 4 C 2.166057 -2.250490 2.367899 0
M  V30 5 C 2.963891 -1.149033 2.610609 0
M  V30 6 C 3.248339 -0.253998 1.492546 0
M  V30 7 C 4.466164 0.307014 1.097912 0
M  V30 8 N 4.288574 1.076580 0.008120 0
M  V30 9 C 2.987917 1.045135 -0.335466 0
M  V30 10 N 2.319135 1.653994 -1.354042 0
M  V30 11 C 0.992005 1.481124 -1.514504 0
M  V30 12 C 0.271704 0.677678 -0.645314 0
M  V30 13 C -1.182334 0.445248 -0.762949 0
M  V30 14 C -1.906322 0.223326 0.396978 0
M  V30 15 C -3.274621 -0.003590 0.375510 0
M  V30 16 C -3.870287 0.005029 -0.868523 0
M  V30 17 N -5.181404 -0.185353 -1.198957 0
M  V30 18 C -5.353699 -0.097696 -2.536987 0
M  V30 19 C -4.095261 0.159066 -3.071132 0
M  V30 20 C -3.177842 0.222846 -2.041896 0
M  V30 21 C -1.821022 0.446175 -2.001331 0
M  V30 22 C 0.973645 0.069739 0.381856 0
M  V30 23 C 2.331698 0.231615 0.566147 0
M  V30 24 C 3.455900 -0.942426 3.896689 0
M  V30 25 C 3.130500 -1.853752 4.908605 0
M  V30 26 H 1.154818 -4.379909 5.676072 0
M  V30 27 H 1.231337 -4.033278 3.266710 0
M  V30 28 H 1.727092 -2.522282 1.426575 0
M  V30 29 H 5.417170 0.136821 1.609779 0
M  V30 30 H 5.044101 1.606052 -0.481325 0
M  V30 31 H 0.422838 1.954192 -2.320880 0
M  V30 32 H -1.445616 0.215373 1.375687 0
M  V30 33 H -3.877878 -0.181060 1.253530 0
M  V30 34 H -5.959621 -0.373759 -0.529764 0
M  V30 35 H -6.298757 -0.211669 -3.041221 0
M  V30 36 H -3.900682 0.284936 -4.142476 0
M  V30 37 H -1.258149 0.618864 -2.904810 0
M  V30 38 H 0.424181 -0.547826 1.052622 0
M  V30 39 H 4.080644 -0.071961 4.067722 0
M  V30 40 H 3.509074 -1.698178 5.904956 0
M  V30 END ATOM
M  V30 BEGIN BOND
M  V30 1 1 1 2
M  V30 2 2 2 3
M  V30 3 1 3 4
M  V30 4 2 4 5
M  V30 5 1 5 6
M  V30 6 2 6 7
M  V30 7 1 7 8
M  V30 8 1 8 9
M  V30 9 2 9 10
M  V30 10 1 10 11
M  V30 11 2 11 12
M  V30 12 1 12 13
M  V30 13 2 13 14
M  V30 14 1 14 15
M  V30 15 2 15 16
M  V30 16 1 16 17
M  V30 17 1 17 18
M  V30 18 2 18 19
M  V30 19 1 19 20
M  V30 20 2 20 21
M  V30 21 1 12 22
M  V30 22 2 22 23
M  V30 23 1 5 24
M  V30 24 2 24 25
M  V30 25 1 25 2
M  V30 26 1 23 6
M  V30 27 1 23 9
M  V30 28 1 21 13
M  V30 29 1 20 16
M  V30 30 1 1 26
M  V30 31 1 3 27
M  V30 32 1 4 28
M  V30 33 1 7 29
M  V30 34 1 8 30
M  V30 35 1 11 31
M  V30 36 1 14 32
M  V30 37 1 15 33
M  V30 38 1 17 34
M  V30 39 1 18 35
M  V30 40 1 19 36
M  V30 41 1 21 37
M  V30 42 1 22 38
M  V30 43 1 24 39
M  V30 44 1 25 40
M  V30 END BOND
M  V30 END CTAB
M  END
>  <Dataset>  (436) 
ChEMBL_Kinases

>  <Ligand_Instance>  (436) 
nan

>  <PDB_ID>  (436) 
nan

>  <Standardized_SMILES>  (436) 
Oc1ccc(-c2c[nH]c3ncc(-c4ccc5[nH]ccc5c4)cc23)cc1

>  <Name>  (436) 
nan

>  <Pocket>  (436) 
nan

>  <ATP_Site>  (436) 
nan

>  <Peripheral>  (436) 
nan

>  <Num_H_Atoms_ProtBoundConf>  (436) 
nan

>  <Num_Resolved_Atoms>  (436) 
nan

>  <Num_Not_Resolved_Atoms>  (436) 
nan

$$$$
CHEMBL4071398
     RDKit          3D

  0  0  0  0  0  0  0  0  0  0999 V3000
M  V30 BEGIN CTAB
M  V30 COUNTS 59 62 0 0 0
M  V30 BEGIN ATOM
M  V30 1 O -1.712119 1.648787 5.394238 0
M  V30 2 C -1.133845 1.028382 4.471730 0
M  V30 3 N 0.266873 0.899872 4.536252 0
M  V30 4 C 1.059046 1.457878 5.637275 0
M  V30 5 C 2.499222 1.190035 5.403514 0
M  V30 6 C 3.159454 0.159466 6.063418 0
M  V30 7 C 4.492542 -0.121741 5.854726 0
M  V30 8 C 5.188587 0.654948 4.954734 0
M  V30 9 C 4.532222 1.676045 4.302164 0
M  V30 10 C 3.182198 1.995369 4.484274 0
M  V30 11 C 2.551990 3.102071 3.768491 0
M  V30 12 F 1.496823 2.802147 2.976644 0
M  V30 13 F 3.522530 3.698783 2.959772 0
M  V30 14 F 2.203765 4.067051 4.696659 0
M  V30 15 C -1.976161 0.494056 3.410295 0
M  V30 16 C -3.328747 0.750403 3.454435 0
M  V30 17 C -4.189933 0.262600 2.474980 0
M  V30 18 C -3.718610 -0.496002 1.424162 0
M  V30 19 C -2.367181 -0.758267 1.370804 0
M  V30 20 N -1.831062 -1.540688 0.311552 0
M  V30 21 C -2.709988 -2.067064 -0.724710 0
M  V30 22 C -1.886020 -2.880984 -1.674156 0
M  V30 23 N -1.695474 -4.216868 -1.463371 0
M  V30 24 N -0.927120 -4.667788 -2.460802 0
M  V30 25 C -0.631378 -3.647565 -3.291822 0
M  V30 26 C 0.195198 -3.818175 -4.480571 0
M  V30 27 C 1.561088 -3.928168 -4.185123 0
M  V30 28 C 2.506352 -4.096436 -5.149862 0
M  V30 29 N 2.123490 -4.161801 -6.453579 0
M  V30 30 C 0.800521 -4.057649 -6.772065 0
M  V30 31 C -0.165443 -3.887137 -5.804072 0
M  V30 32 N -1.227443 -2.551198 -2.797666 0
M  V30 33 C -1.190259 -1.243338 -3.344831 0
M  V30 34 C -2.328354 -1.001237 -4.322309 0
M  V30 35 O -2.267765 0.288733 -4.841532 0
M  V30 36 C -1.535337 -0.265641 2.349511 0
M  V30 37 H 0.679808 0.363251 3.721505 0
M  V30 38 H 0.822060 2.516598 5.842001 0
M  V30 39 H 0.764679 0.885598 6.541072 0
M  V30 40 H 2.572041 -0.431126 6.766930 0
M  V30 41 H 4.989713 -0.925179 6.374457 0
M  V30 42 H 6.245339 0.487501 4.741218 0
M  V30 43 H 5.084225 2.276405 3.602558 0
M  V30 44 H -3.803670 1.340605 4.243321 0
M  V30 45 H -5.259223 0.429459 2.454775 0
M  V30 46 H -4.351586 -0.896667 0.639344 0
M  V30 47 H -0.796771 -1.736826 0.280822 0
M  V30 48 H -3.467579 -2.692453 -0.240655 0
M  V30 49 H -3.141166 -1.197576 -1.263570 0
M  V30 50 H 2.002136 -3.891897 -3.179482 0
M  V30 51 H 3.565365 -4.187870 -4.994974 0
M  V30 52 H 0.471113 -4.106005 -7.795067 0
M  V30 53 H -1.225391 -3.795923 -5.956858 0
M  V30 54 H -1.287134 -0.465914 -2.545173 0
M  V30 55 H -0.256972 -0.982622 -3.872428 0
M  V30 56 H -3.328936 -1.123439 -3.861285 0
M  V30 57 H -2.282769 -1.718110 -5.173235 0
M  V30 58 H -1.357769 0.551540 -5.134302 0
M  V30 59 H -0.488302 -0.483167 2.285413 0
M  V30 END ATOM
M  V30 BEGIN BOND
M  V30 1 2 1 2
M  V30 2 1 2 3
M  V30 3 1 3 4
M  V30 4 1 4 5
M  V30 5 2 5 6
M  V30 6 1 6 7
M  V30 7 2 7 8
M  V30 8 1 8 9
M  V30 9 2 9 10
M  V30 10 1 10 11
M  V30 11 1 11 12
M  V30 12 1 11 13
M  V30 13 1 11 14
M  V30 14 1 2 15
M  V30 15 2 15 16
M  V30 16 1 16 17
M  V30 17 2 17 18
M  V30 18 1 18 19
M  V30 19 1 19 20
M  V30 20 1 20 21
M  V30 21 1 21 22
M  V30 22 2 22 23
M  V30 23 1 23 24
M  V30 24 2 24 25
M  V30 25 1 25 26
M  V30 26 2 26 27
M  V30 27 1 27 28
M  V30 28 2 28 29
M  V30 29 1 29 30
M  V30 30 2 30 31
M  V30 31 1 25 32
M  V30 32 1 32 33
M  V30 33 1 33 34
M  V30 34 1 34 35
M  V30 35 2 19 36
M  V30 36 1 10 5
M  V30 37 1 36 15
M  V30 38 1 32 22
M  V30 39 1 31 26
M  V30 40 1 3 37
M  V30 41 1 4 38
M  V30 42 1 4 39
M  V30 43 1 6 40
M  V30 44 1 7 41
M  V30 45 1 8 42
M  V30 46 1 9 43
M  V30 47 1 16 44
M  V30 48 1 17 45
M  V30 49 1 18 46
M  V30 50 1 20 47
M  V30 51 1 21 48
M  V30 52 1 21 49
M  V30 53 1 27 50
M  V30 54 1 28 51
M  V30 55 1 30 52
M  V30 56 1 31 53
M  V30 57 1 33 54
M  V30 58 1 33 55
M  V30 59 1 34 56
M  V30 60 1 34 57
M  V30 61 1 35 58
M  V30 62 1 36 59
M  V30 END BOND
M  V30 END CTAB
M  END
>  <Dataset>  (437) 
ChEMBL_Kinases

>  <Ligand_Instance>  (437) 
nan

>  <PDB_ID>  (437) 
nan

>  <Standardized_SMILES>  (437) 
O=C(NCc1ccccc1C(F)(F)F)c1cccc(NCc2nnc(-c3ccncc3)n2CCO)c1

>  <Name>  (437) 
nan

>  <Pocket>  (437) 
nan

>  <ATP_Site>  (437) 
nan

>  <Peripheral>  (437) 
nan

>  <Num_H_Atoms_ProtBoundConf>  (437) 
nan

>  <Num_Resolved_Atoms>  (437) 
nan

>  <Num_Not_Resolved_Atoms>  (437) 
nan

$$$$
CHEMBL4066861
     RDKit          3D

  0  0  0  0  0  0  0  0  0  0999 V3000
M  V30 BEGIN CTAB
M  V30 COUNTS 54 57 0 0 0
M  V30 BEGIN ATOM
M  V30 1 C -0.591165 -3.538297 2.707783 0
M  V30 2 C -0.153488 -2.360634 3.512868 0
M  V30 3 C -1.298552 -1.445923 3.924014 0
M  V30 4 N 0.871088 -1.594376 2.790367 0
M  V30 5 C 2.105677 -1.258357 3.272601 0
M  V30 6 N 2.751778 -0.549724 2.300180 0
M  V30 7 C 1.928941 -0.458145 1.253415 0
M  V30 8 C 2.051006 0.134015 0.017386 0
M  V30 9 N 3.219922 0.831408 -0.397771 0
M  V30 10 C 3.321298 2.227828 -0.139007 0
M  V30 11 C 2.263240 2.839280 0.510748 0
M  V30 12 C 2.308627 4.191042 0.786953 0
M  V30 13 C 3.424893 4.908637 0.402154 0
M  V30 14 C 4.493689 4.306554 -0.250760 0
M  V30 15 Cl 5.872181 5.300445 -0.702163 0
M  V30 16 C 4.429240 2.943934 -0.520087 0
M  V30 17 N 1.051753 0.078359 -0.869118 0
M  V30 18 C -0.131173 -0.555789 -0.613578 0
M  V30 19 N -1.192999 -0.572864 -1.583097 0
M  V30 20 C -2.486832 -1.200814 -1.544451 0 CFG=2
M  V30 21 C -3.250457 -1.052415 -0.295618 0
M  V30 22 C -3.392359 -2.228965 0.601596 0
M  V30 23 C -3.017209 -3.542982 0.045273 0
M  V30 24 C -2.013951 -3.538564 -1.051309 0
M  V30 25 C -2.429950 -2.573560 -2.120259 0 CFG=2
M  V30 26 N -1.521813 -2.639170 -3.262634 0
M  V30 27 N -0.202132 -1.117138 0.603473 0
M  V30 28 C 0.741128 -1.100461 1.522773 0
M  V30 29 H -1.667286 -3.703970 2.930218 0
M  V30 30 H -0.023943 -4.432734 2.992068 0
M  V30 31 H -0.382257 -3.333905 1.649861 0
M  V30 32 H 0.326235 -2.742844 4.438342 0
M  V30 33 H -1.145731 -0.988723 4.917950 0
M  V30 34 H -2.272528 -1.950338 3.854133 0
M  V30 35 H -1.312629 -0.611760 3.191599 0
M  V30 36 H 2.519309 -1.498077 4.244041 0
M  V30 37 H 4.012047 0.345351 -0.890617 0
M  V30 38 H 1.394545 2.281224 0.810290 0
M  V30 39 H 1.474885 4.657758 1.295626 0
M  V30 40 H 3.406540 5.966197 0.644458 0
M  V30 41 H 5.258574 2.475356 -1.027030 0
M  V30 42 H -0.921881 -0.015480 -2.457482 0
M  V30 43 H -3.065123 -0.611033 -2.381495 0
M  V30 44 H -4.269220 -0.680592 -0.534453 0
M  V30 45 H -2.793347 -0.178458 0.259296 0
M  V30 46 H -4.424718 -2.311765 1.004463 0
M  V30 47 H -2.769694 -2.053433 1.505139 0
M  V30 48 H -2.671023 -4.257294 0.822317 0
M  V30 49 H -3.922938 -4.066006 -0.386360 0
M  V30 50 H -2.052774 -4.567333 -1.546552 0
M  V30 51 H -1.008932 -3.360696 -0.663915 0
M  V30 52 H -3.449445 -2.856393 -2.491189 0
M  V30 53 H -1.871580 -1.905424 -3.930399 0
M  V30 54 H -1.628506 -3.556402 -3.743346 0
M  V30 END ATOM
M  V30 BEGIN BOND
M  V30 1 1 1 2
M  V30 2 1 2 3
M  V30 3 1 2 4
M  V30 4 1 4 5
M  V30 5 2 5 6
M  V30 6 1 6 7
M  V30 7 2 7 8
M  V30 8 1 8 9
M  V30 9 1 9 10
M  V30 10 2 10 11
M  V30 11 1 11 12
M  V30 12 2 12 13
M  V30 13 1 13 14
M  V30 14 1 14 15
M  V30 15 2 14 16
M  V30 16 1 8 17
M  V30 17 2 17 18
M  V30 18 1 18 19
M  V30 19 1 19 20
M  V30 20 1 20 21
M  V30 21 1 21 22
M  V30 22 1 22 23
M  V30 23 1 23 24
M  V30 24 1 24 25
M  V30 25 1 25 26
M  V30 26 1 18 27
M  V30 27 2 27 28
M  V30 28 1 28 4
M  V30 29 1 28 7
M  V30 30 1 16 10
M  V30 31 1 25 20
M  V30 32 1 1 29
M  V30 33 1 1 30
M  V30 34 1 1 31
M  V30 35 1 2 32
M  V30 36 1 3 33
M  V30 37 1 3 34
M  V30 38 1 3 35
M  V30 39 1 5 36
M  V30 40 1 9 37
M  V30 41 1 11 38
M  V30 42 1 12 39
M  V30 43 1 13 40
M  V30 44 1 16 41
M  V30 45 1 19 42
M  V30 46 1 20 43 CFG=3
M  V30 47 1 21 44
M  V30 48 1 21 45
M  V30 49 1 22 46
M  V30 50 1 22 47
M  V30 51 1 23 48
M  V30 52 1 23 49
M  V30 53 1 24 50
M  V30 54 1 24 51
M  V30 55 1 25 52 CFG=3
M  V30 56 1 26 53
M  V30 57 1 26 54
M  V30 END BOND
M  V30 END CTAB
M  END
>  <Dataset>  (438) 
ChEMBL_Kinases

>  <Ligand_Instance>  (438) 
nan

>  <PDB_ID>  (438) 
nan

>  <Standardized_SMILES>  (438) 
CC(C)n1cnc2c(Nc3cccc(Cl)c3)nc(N[C@@H]3CCCC[C@@H]3N)nc21

>  <Name>  (438) 
nan

>  <Pocket>  (438) 
nan

>  <ATP_Site>  (438) 
nan

>  <Peripheral>  (438) 
nan

>  <Num_H_Atoms_ProtBoundConf>  (438) 
nan

>  <Num_Resolved_Atoms>  (438) 
nan

>  <Num_Not_Resolved_Atoms>  (438) 
nan

$$$$
CHEMBL4067013
     RDKit          3D

  0  0  0  0  0  0  0  0  0  0999 V3000
M  V30 BEGIN CTAB
M  V30 COUNTS 61 64 0 0 0
M  V30 BEGIN ATOM
M  V30 1 C 1.961946 -2.777316 5.353160 0
M  V30 2 C 2.457286 -1.562887 4.676039 0
M  V30 3 O 1.994173 -0.442814 5.010871 0
M  V30 4 N 3.443058 -1.630591 3.655850 0
M  V30 5 C 4.006432 -0.537824 2.923762 0
M  V30 6 C 5.129525 0.151949 3.319870 0
M  V30 7 C 5.603919 1.199163 2.536426 0
M  V30 8 Cl 7.040832 2.067892 3.060617 0
M  V30 9 C 4.978829 1.570542 1.366010 0
M  V30 10 C 3.834197 0.886818 0.937696 0
M  V30 11 N 3.137018 1.212656 -0.283692 0
M  V30 12 C 1.903591 0.521999 -0.537894 0
M  V30 13 N 0.714413 1.082148 -0.236977 0
M  V30 14 C -0.441489 0.433876 -0.464176 0
M  V30 15 N -1.661791 1.080659 -0.135610 0
M  V30 16 C -2.991072 0.540738 -0.302818 0 CFG=1
M  V30 17 C -3.218003 -0.698442 0.516091 0
M  V30 18 C -4.702387 -0.978655 0.548809 0
M  V30 19 C -5.405557 -0.497273 -0.700533 0
M  V30 20 C -5.321580 1.003707 -0.845491 0
M  V30 21 C -4.064722 1.567558 -0.194969 0 CFG=1
M  V30 22 N -4.418471 1.892221 1.170094 0
M  V30 23 N -0.457446 -0.820439 -1.009007 0
M  V30 24 C 0.702455 -1.438959 -1.334318 0
M  V30 25 C 1.854642 -0.726081 -1.079133 0
M  V30 26 N 2.916838 -1.477646 -1.455883 0
M  V30 27 C 2.478828 -2.645636 -1.942551 0
M  V30 28 N 1.116369 -2.608757 -1.862201 0
M  V30 29 C 0.224121 -3.648314 -2.270070 0
M  V30 30 C -0.484366 -3.297561 -3.554512 0
M  V30 31 C -0.719608 -3.981878 -1.148061 0
M  V30 32 C 3.393153 -0.154285 1.751388 0
M  V30 33 H 2.587775 -3.662593 5.236555 0
M  V30 34 H 1.828293 -2.507527 6.434106 0
M  V30 35 H 0.923692 -3.039334 5.002732 0
M  V30 36 H 3.815491 -2.585285 3.391302 0
M  V30 37 H 5.610229 -0.152209 4.242629 0
M  V30 38 H 5.323578 2.386000 0.730067 0
M  V30 39 H 3.587488 1.929487 -0.888469 0
M  V30 40 H -1.645729 2.041339 0.269186 0
M  V30 41 H -3.018876 0.187441 -1.378077 0
M  V30 42 H -2.656796 -1.531675 0.047369 0
M  V30 43 H -2.800998 -0.611436 1.544286 0
M  V30 44 H -4.845843 -2.076719 0.593335 0
M  V30 45 H -5.108953 -0.486546 1.443990 0
M  V30 46 H -5.006854 -1.049924 -1.581407 0
M  V30 47 H -6.470010 -0.781998 -0.602147 0
M  V30 48 H -5.322809 1.258506 -1.923055 0
M  V30 49 H -6.231274 1.446386 -0.362425 0
M  V30 50 H -3.725889 2.478983 -0.709181 0
M  V30 51 H -4.784193 2.839301 1.301053 0
M  V30 52 H -3.718858 1.596264 1.879585 0
M  V30 53 H 3.110974 -3.435733 -2.315539 0
M  V30 54 H 0.823073 -4.583690 -2.448720 0
M  V30 55 H -0.649249 -2.212220 -3.627398 0
M  V30 56 H -1.435889 -3.838623 -3.570430 0
M  V30 57 H 0.107036 -3.628103 -4.430002 0
M  V30 58 H -1.116359 -4.999754 -1.365509 0
M  V30 59 H -0.156308 -3.972645 -0.206148 0
M  V30 60 H -1.566715 -3.266298 -1.174884 0
M  V30 61 H 2.511028 -0.688578 1.433841 0
M  V30 END ATOM
M  V30 BEGIN BOND
M  V30 1 1 1 2
M  V30 2 2 2 3
M  V30 3 1 2 4
M  V30 4 1 4 5
M  V30 5 2 5 6
M  V30 6 1 6 7
M  V30 7 1 7 8
M  V30 8 2 7 9
M  V30 9 1 9 10
M  V30 10 1 10 11
M  V30 11 1 11 12
M  V30 12 2 12 13
M  V30 13 1 13 14
M  V30 14 1 14 15
M  V30 15 1 15 16
M  V30 16 1 16 17
M  V30 17 1 17 18
M  V30 18 1 18 19
M  V30 19 1 19 20
M  V30 20 1 20 21
M  V30 21 1 21 22
M  V30 22 2 14 23
M  V30 23 1 23 24
M  V30 24 2 24 25
M  V30 25 1 25 26
M  V30 26 2 26 27
M  V30 27 1 27 28
M  V30 28 1 28 29
M  V30 29 1 29 30
M  V30 30 1 29 31
M  V30 31 2 10 32
M  V30 32 1 32 5
M  V30 33 1 25 12
M  V30 34 1 21 16
M  V30 35 1 28 24
M  V30 36 1 1 33
M  V30 37 1 1 34
M  V30 38 1 1 35
M  V30 39 1 4 36
M  V30 40 1 6 37
M  V30 41 1 9 38
M  V30 42 1 11 39
M  V30 43 1 15 40
M  V30 44 1 16 41 CFG=3
M  V30 45 1 17 42
M  V30 46 1 17 43
M  V30 47 1 18 44
M  V30 48 1 18 45
M  V30 49 1 19 46
M  V30 50 1 19 47
M  V30 51 1 20 48
M  V30 52 1 20 49
M  V30 53 1 21 50 CFG=3
M  V30 54 1 22 51
M  V30 55 1 22 52
M  V30 56 1 27 53
M  V30 57 1 29 54
M  V30 58 1 30 55
M  V30 59 1 30 56
M  V30 60 1 30 57
M  V30 61 1 31 58
M  V30 62 1 31 59
M  V30 63 1 31 60
M  V30 64 1 32 61
M  V30 END BOND
M  V30 END CTAB
M  END
>  <Dataset>  (439) 
ChEMBL_Kinases

>  <Ligand_Instance>  (439) 
nan

>  <PDB_ID>  (439) 
nan

>  <Standardized_SMILES>  (439) 
CC(=O)Nc1cc(Cl)cc(Nc2nc(N[C@H]3CCCC[C@H]3N)nc3c2ncn3C(C)C)c1

>  <Name>  (439) 
nan

>  <Pocket>  (439) 
nan

>  <ATP_Site>  (439) 
nan

>  <Peripheral>  (439) 
nan

>  <Num_H_Atoms_ProtBoundConf>  (439) 
nan

>  <Num_Resolved_Atoms>  (439) 
nan

>  <Num_Not_Resolved_Atoms>  (439) 
nan

$$$$
CHEMBL4067797
     RDKit          3D

  0  0  0  0  0  0  0  0  0  0999 V3000
M  V30 BEGIN CTAB
M  V30 COUNTS 37 39 0 0 0
M  V30 BEGIN ATOM
M  V30 1 N 0.581501 -3.748096 2.898464 0
M  V30 2 C 1.751435 -3.068332 3.394768 0
M  V30 3 O 2.486042 -3.559987 4.305388 0
M  V30 4 C 2.070661 -1.770137 2.804535 0
M  V30 5 C 3.175901 -1.061916 3.230396 0
M  V30 6 C 3.527513 0.184361 2.700050 0
M  V30 7 Cl 4.930299 1.076469 3.244984 0
M  V30 8 C 2.692861 0.669570 1.713230 0
M  V30 9 C 2.708759 1.831354 0.968349 0
M  V30 10 Cl 3.919449 3.093922 1.117393 0
M  V30 11 C 1.616887 1.780724 0.124380 0
M  V30 12 I 1.096419 3.274694 -1.267949 0
M  V30 13 N 0.926965 0.651659 0.306550 0
M  V30 14 C -0.285275 0.171421 -0.353976 0
M  V30 15 C -1.073436 -0.719247 0.575008 0
M  V30 16 C -2.515249 -0.837394 0.210412 0
M  V30 17 C -2.963121 0.025951 -0.917023 0
M  V30 18 N -2.184135 -0.165555 -2.078771 0
M  V30 19 C -1.243738 -1.202176 -2.111885 0
M  V30 20 C 0.068531 -0.652883 -1.582989 0
M  V30 21 C 1.585197 -0.028813 1.279008 0
M  V30 22 N 1.324426 -1.205134 1.836697 0
M  V30 23 H -0.252883 -3.114320 3.067202 0
M  V30 24 H 0.935307 -4.663870 2.524563 0
M  V30 25 H 3.839348 -1.449524 4.016045 0
M  V30 26 H -0.838147 1.050759 -0.680617 0
M  V30 27 H -1.017231 -0.378172 1.630832 0
M  V30 28 H -0.597991 -1.723797 0.525513 0
M  V30 29 H -3.195153 -0.589898 1.078306 0
M  V30 30 H -2.800531 -1.907712 -0.015259 0
M  V30 31 H -4.008992 -0.305730 -1.167959 0
M  V30 32 H -3.038161 1.078087 -0.595564 0
M  V30 33 H -2.349384 0.416217 -2.876798 0
M  V30 34 H -1.506529 -2.127482 -1.595032 0
M  V30 35 H -1.083272 -1.491028 -3.185991 0
M  V30 36 H 0.765263 -1.481417 -1.320164 0
M  V30 37 H 0.548110 -0.008991 -2.359125 0
M  V30 END ATOM
M  V30 BEGIN BOND
M  V30 1 1 1 2
M  V30 2 2 2 3
M  V30 3 1 2 4
M  V30 4 2 4 5
M  V30 5 1 5 6
M  V30 6 1 6 7
M  V30 7 2 6 8
M  V30 8 1 8 9
M  V30 9 1 9 10
M  V30 10 2 9 11
M  V30 11 1 11 12
M  V30 12 1 11 13
M  V30 13 1 13 14
M  V30 14 1 14 15
M  V30 15 1 15 16
M  V30 16 1 16 17
M  V30 17 1 17 18
M  V30 18 1 18 19
M  V30 19 1 19 20
M  V30 20 1 13 21
M  V30 21 2 21 22
M  V30 22 1 22 4
M  V30 23 1 21 8
M  V30 24 1 20 14
M  V30 25 1 1 23
M  V30 26 1 1 24
M  V30 27 1 5 25
M  V30 28 1 14 26
M  V30 29 1 15 27
M  V30 30 1 15 28
M  V30 31 1 16 29
M  V30 32 1 16 30
M  V30 33 1 17 31
M  V30 34 1 17 32
M  V30 35 1 18 33
M  V30 36 1 19 34
M  V30 37 1 19 35
M  V30 38 1 20 36
M  V30 39 1 20 37
M  V30 END BOND
M  V30 END CTAB
M  END
>  <Dataset>  (440) 
ChEMBL_Kinases

>  <Ligand_Instance>  (440) 
nan

>  <PDB_ID>  (440) 
nan

>  <Standardized_SMILES>  (440) 
NC(=O)c1cc(Cl)c2c(Cl)c(I)n(C3CCCNCC3)c2n1

>  <Name>  (440) 
nan

>  <Pocket>  (440) 
nan

>  <ATP_Site>  (440) 
nan

>  <Peripheral>  (440) 
nan

>  <Num_H_Atoms_ProtBoundConf>  (440) 
nan

>  <Num_Resolved_Atoms>  (440) 
nan

>  <Num_Not_Resolved_Atoms>  (440) 
nan

$$$$
CHEMBL4067877
     RDKit          3D

  0  0  0  0  0  0  0  0  0  0999 V3000
M  V30 BEGIN CTAB
M  V30 COUNTS 50 53 0 0 0
M  V30 BEGIN ATOM
M  V30 1 O 1.935393 -1.321390 -0.200547 0
M  V30 2 C 2.068801 -1.840124 0.960097 0
M  V30 3 N 2.906475 -2.954108 1.065649 0
M  V30 4 C 3.666446 -3.635445 0.058883 0
M  V30 5 C 4.869985 -2.823715 -0.244148 0
M  V30 6 C 4.905008 -1.874817 -1.243637 0
M  V30 7 C 5.999032 -1.083750 -1.571378 0
M  V30 8 C 7.149969 -1.288629 -0.805447 0
M  V30 9 C 7.201067 -2.206641 0.201564 0
M  V30 10 C 6.054962 -2.943524 0.446858 0
M  V30 11 C 1.339927 -1.225065 2.057737 0
M  V30 12 C 1.384872 -1.711311 3.346372 0
M  V30 13 C 0.679263 -1.106021 4.359621 0
M  V30 14 C -0.092316 0.002799 4.119363 0
M  V30 15 C -0.167457 0.531953 2.821864 0
M  V30 16 N -0.966077 1.681475 2.605333 0
M  V30 17 C -1.268498 2.454941 1.416230 0
M  V30 18 C -2.021483 1.648045 0.435820 0
M  V30 19 N -3.332098 1.626178 0.632000 0
M  V30 20 C -4.009999 0.908867 -0.251752 0
M  V30 21 C -5.355448 0.491985 -0.604082 0
M  V30 22 C -6.279824 1.022201 0.290815 0
M  V30 23 C -7.642790 0.742695 0.140719 0
M  V30 24 N -7.973169 -0.056742 -0.909695 0
M  V30 25 C -7.068860 -0.549779 -1.749096 0
M  V30 26 C -5.713778 -0.308010 -1.649742 0
M  V30 27 C -2.963021 0.457622 -1.063135 0
M  V30 28 N -1.773757 0.909462 -0.638617 0
M  V30 29 C 0.551831 -0.113384 1.873545 0
M  V30 30 H 2.987368 -3.345787 2.034304 0
M  V30 31 H 3.082866 -3.839541 -0.863863 0
M  V30 32 H 4.026918 -4.628048 0.397688 0
M  V30 33 H 4.048105 -1.682948 -1.862601 0
M  V30 34 H 5.997180 -0.350262 -2.356040 0
M  V30 35 H 8.019424 -0.662626 -1.063939 0
M  V30 36 H 8.107049 -2.347538 0.784672 0
M  V30 37 H 6.067153 -3.687928 1.251508 0
M  V30 38 H 1.970071 -2.578470 3.605361 0
M  V30 39 H 0.696571 -1.469863 5.381229 0
M  V30 40 H -0.645230 0.468041 4.949839 0
M  V30 41 H -1.457013 2.082531 3.463629 0
M  V30 42 H -0.313776 2.745351 0.887940 0
M  V30 43 H -1.735227 3.427977 1.662576 0
M  V30 44 H -6.074732 1.665496 1.142258 0
M  V30 45 H -8.420935 1.117462 0.795829 0
M  V30 46 H -7.367291 -1.194646 -2.590403 0
M  V30 47 H -4.920952 -0.665753 -2.281497 0
M  V30 48 H -2.963505 -0.182660 -1.958479 0
M  V30 49 H -0.811177 0.787647 -0.985252 0
M  V30 50 H 0.524195 0.264360 0.873309 0
M  V30 END ATOM
M  V30 BEGIN BOND
M  V30 1 2 1 2
M  V30 2 1 2 3
M  V30 3 1 3 4
M  V30 4 1 4 5
M  V30 5 2 5 6
M  V30 6 1 6 7
M  V30 7 2 7 8
M  V30 8 1 8 9
M  V30 9 2 9 10
M  V30 10 1 2 11
M  V30 11 2 11 12
M  V30 12 1 12 13
M  V30 13 2 13 14
M  V30 14 1 14 15
M  V30 15 1 15 16
M  V30 16 1 16 17
M  V30 17 1 17 18
M  V30 18 2 18 19
M  V30 19 1 19 20
M  V30 20 1 20 21
M  V30 21 2 21 22
M  V30 22 1 22 23
M  V30 23 2 23 24
M  V30 24 1 24 25
M  V30 25 2 25 26
M  V30 26 2 20 27
M  V30 27 1 27 28
M  V30 28 2 15 29
M  V30 29 1 10 5
M  V30 30 1 29 11
M  V30 31 1 28 18
M  V30 32 1 26 21
M  V30 33 1 3 30
M  V30 34 1 4 31
M  V30 35 1 4 32
M  V30 36 1 6 33
M  V30 37 1 7 34
M  V30 38 1 8 35
M  V30 39 1 9 36
M  V30 40 1 10 37
M  V30 41 1 12 38
M  V30 42 1 13 39
M  V30 43 1 14 40
M  V30 44 1 16 41
M  V30 45 1 17 42
M  V30 46 1 17 43
M  V30 47 1 22 44
M  V30 48 1 23 45
M  V30 49 1 25 46
M  V30 50 1 26 47
M  V30 51 1 27 48
M  V30 52 1 28 49
M  V30 53 1 29 50
M  V30 END BOND
M  V30 END CTAB
M  END
>  <Dataset>  (441) 
ChEMBL_Kinases

>  <Ligand_Instance>  (441) 
nan

>  <PDB_ID>  (441) 
nan

>  <Standardized_SMILES>  (441) 
O=C(NCc1ccccc1)c1cccc(NCc2nc(-c3ccncc3)c[nH]2)c1

>  <Name>  (441) 
nan

>  <Pocket>  (441) 
nan

>  <ATP_Site>  (441) 
nan

>  <Peripheral>  (441) 
nan

>  <Num_H_Atoms_ProtBoundConf>  (441) 
nan

>  <Num_Resolved_Atoms>  (441) 
nan

>  <Num_Not_Resolved_Atoms>  (441) 
nan

$$$$
CHEMBL4067978
     RDKit          3D

  0  0  0  0  0  0  0  0  0  0999 V3000
M  V30 BEGIN CTAB
M  V30 COUNTS 65 68 0 0 0
M  V30 BEGIN ATOM
M  V30 1 C 3.299783 -2.819671 2.642861 0
M  V30 2 O 2.277665 -3.083236 1.714687 0
M  V30 3 C 1.086968 -2.381164 1.780420 0
M  V30 4 C 1.022221 -1.436928 2.813821 0
M  V30 5 C -0.117624 -0.659340 2.996704 0
M  V30 6 C -0.228340 0.282249 3.998292 0
M  V30 7 N 0.844638 0.477227 4.879342 0
M  V30 8 C 1.812075 1.444587 4.505297 0
M  V30 9 C 1.671575 2.140621 3.320469 0
M  V30 10 C 2.621961 3.077349 2.972994 0
M  V30 11 Cl 2.473050 3.971353 1.485290 0
M  V30 12 C 3.718726 3.340266 3.783887 0
M  V30 13 O 4.655904 4.304826 3.380771 0
M  V30 14 C 4.385460 5.622719 3.821254 0
M  V30 15 C 3.876440 2.650567 4.978252 0
M  V30 16 Cl 5.263907 3.002748 5.975168 0
M  V30 17 C 2.905834 1.714867 5.302049 0
M  V30 18 C -1.426220 0.997562 4.074883 0
M  V30 19 C -1.494815 1.963370 5.129637 0
M  V30 20 N -1.552995 2.740505 6.008421 0
M  V30 21 C -2.486965 0.812312 3.212688 0
M  V30 22 N -2.325340 -0.120807 2.251986 0
M  V30 23 C -1.198580 -0.812887 2.158075 0
M  V30 24 C -1.071003 -1.754004 1.167382 0
M  V30 25 C 0.005916 -2.563948 0.907801 0
M  V30 26 O 0.304007 -3.519745 -0.000594 0
M  V30 27 C -0.464885 -3.980722 -1.048061 0
M  V30 28 C -0.785581 -2.969567 -2.119282 0
M  V30 29 C -1.628514 -3.620515 -3.181584 0
M  V30 30 N -2.016857 -2.832961 -4.246813 0
M  V30 31 C -2.804268 -3.344766 -5.289053 0
M  V30 32 C -4.089536 -2.569394 -5.378777 0
M  V30 33 N -3.955331 -1.301954 -4.745751 0
M  V30 34 C -4.492429 -1.250325 -3.410485 0
M  V30 35 C -2.684835 -0.656734 -4.883080 0
M  V30 36 C -1.524379 -1.528116 -4.443377 0
M  V30 37 H 4.215011 -3.388809 2.451483 0
M  V30 38 H 3.003648 -3.039912 3.703943 0
M  V30 39 H 3.585698 -1.741856 2.638026 0
M  V30 40 H 1.815796 -1.243938 3.521188 0
M  V30 41 H 0.978679 -0.038850 5.787311 0
M  V30 42 H 0.812627 1.950400 2.662278 0
M  V30 43 H 3.438495 5.971246 3.357238 0
M  V30 44 H 5.186099 6.327148 3.563105 0
M  V30 45 H 4.266349 5.583867 4.927179 0
M  V30 46 H 3.068042 1.197152 6.246618 0
M  V30 47 H -3.399893 1.386987 3.304639 0
M  V30 48 H -1.906062 -1.910036 0.507979 0
M  V30 49 H -1.429819 -4.398529 -0.628833 0
M  V30 50 H 0.009850 -4.900307 -1.504141 0
M  V30 51 H 0.188087 -2.605233 -2.504650 0
M  V30 52 H -1.274206 -2.103382 -1.667750 0
M  V30 53 H -2.552065 -3.970264 -2.640626 0
M  V30 54 H -1.124096 -4.547813 -3.525576 0
M  V30 55 H -2.264177 -3.119437 -6.255789 0
M  V30 56 H -2.936627 -4.432324 -5.290961 0
M  V30 57 H -4.867837 -3.167535 -4.841692 0
M  V30 58 H -4.429884 -2.492966 -6.443456 0
M  V30 59 H -4.851683 -2.211873 -3.017436 0
M  V30 60 H -5.303437 -0.500296 -3.389761 0
M  V30 61 H -3.685517 -0.837608 -2.744685 0
M  V30 62 H -2.704804 0.256092 -4.278928 0
M  V30 63 H -2.593011 -0.345002 -5.941630 0
M  V30 64 H -0.994931 -1.070718 -3.613408 0
M  V30 65 H -0.809026 -1.550354 -5.292447 0
M  V30 END ATOM
M  V30 BEGIN BOND
M  V30 1 1 1 2
M  V30 2 1 2 3
M  V30 3 2 3 4
M  V30 4 1 4 5
M  V30 5 2 5 6
M  V30 6 1 6 7
M  V30 7 1 7 8
M  V30 8 2 8 9
M  V30 9 1 9 10
M  V30 10 1 10 11
M  V30 11 2 10 12
M  V30 12 1 12 13
M  V30 13 1 13 14
M  V30 14 1 12 15
M  V30 15 1 15 16
M  V30 16 2 15 17
M  V30 17 1 6 18
M  V30 18 1 18 19
M  V30 19 3 19 20
M  V30 20 2 18 21
M  V30 21 1 21 22
M  V30 22 2 22 23
M  V30 23 1 23 24
M  V30 24 2 24 25
M  V30 25 1 25 26
M  V30 26 1 26 27
M  V30 27 1 27 28
M  V30 28 1 28 29
M  V30 29 1 29 30
M  V30 30 1 30 31
M  V30 31 1 31 32
M  V30 32 1 32 33
M  V30 33 1 33 34
M  V30 34 1 33 35
M  V30 35 1 35 36
M  V30 36 1 25 3
M  V30 37 1 36 30
M  V30 38 1 23 5
M  V30 39 1 17 8
M  V30 40 1 1 37
M  V30 41 1 1 38
M  V30 42 1 1 39
M  V30 43 1 4 40
M  V30 44 1 7 41
M  V30 45 1 9 42
M  V30 46 1 14 43
M  V30 47 1 14 44
M  V30 48 1 14 45
M  V30 49 1 17 46
M  V30 50 1 21 47
M  V30 51 1 24 48
M  V30 52 1 27 49
M  V30 53 1 27 50
M  V30 54 1 28 51
M  V30 55 1 28 52
M  V30 56 1 29 53
M  V30 57 1 29 54
M  V30 58 1 31 55
M  V30 59 1 31 56
M  V30 60 1 32 57
M  V30 61 1 32 58
M  V30 62 1 34 59
M  V30 63 1 34 60
M  V30 64 1 34 61
M  V30 65 1 35 62
M  V30 66 1 35 63
M  V30 67 1 36 64
M  V30 68 1 36 65
M  V30 END BOND
M  V30 END CTAB
M  END
>  <Dataset>  (442) 
ChEMBL_Kinases

>  <Ligand_Instance>  (442) 
nan

>  <PDB_ID>  (442) 
nan

>  <Standardized_SMILES>  (442) 
COc1cc2c(Nc3cc(Cl)c(OC)c(Cl)c3)c(C#N)cnc2cc1OCCCN1CCN(C)CC1

>  <Name>  (442) 
nan

>  <Pocket>  (442) 
nan

>  <ATP_Site>  (442) 
nan

>  <Peripheral>  (442) 
nan

>  <Num_H_Atoms_ProtBoundConf>  (442) 
nan

>  <Num_Resolved_Atoms>  (442) 
nan

>  <Num_Not_Resolved_Atoms>  (442) 
nan

$$$$
CHEMBL406821
     RDKit          3D

  0  0  0  0  0  0  0  0  0  0999 V3000
M  V30 BEGIN CTAB
M  V30 COUNTS 43 45 0 0 0
M  V30 BEGIN ATOM
M  V30 1 C -2.171987 -2.618307 -0.000404 0
M  V30 2 C -0.974872 -3.348809 -0.418108 0
M  V30 3 C -1.069018 -4.618443 -1.025772 0
M  V30 4 N -0.057353 -5.419951 -1.483332 0
M  V30 5 C 1.200549 -4.956777 -1.346228 0
M  V30 6 C 1.369595 -3.733608 -0.766120 0
M  V30 7 C 2.687704 -3.338195 -0.672216 0
M  V30 8 C 2.996204 -2.120560 -0.109874 0
M  V30 9 C 1.931226 -1.365007 0.330881 0
M  V30 10 C 0.555162 -1.663085 0.287279 0
M  V30 11 S -0.668019 -0.655300 0.921077 0
M  V30 12 O -1.010306 -0.947720 2.392856 0
M  V30 13 O -1.679709 -0.003335 0.119000 0
M  V30 14 N 0.196585 0.822701 1.298796 0
M  V30 15 C 0.779850 1.475118 0.196246 0
M  V30 16 C 1.897409 2.355224 0.642166 0
M  V30 17 C 2.067382 2.614264 2.079769 0
M  V30 18 N 1.791505 1.592570 3.019155 0
M  V30 19 C 0.416837 1.561717 3.493240 0
M  V30 20 C -0.404848 1.677113 2.206755 0 CFG=2
M  V30 21 C -1.863423 1.644690 2.442348 0
M  V30 22 C 0.360706 -2.922226 -0.303577 0
M  V30 23 H -2.414762 -2.402814 1.003695 0
M  V30 24 H -2.949934 -3.484345 -0.066574 0
M  V30 25 H -2.686447 -2.091322 -0.850184 0
M  V30 26 H -2.044195 -5.106112 -1.195215 0
M  V30 27 H 2.003888 -5.566708 -1.696872 0
M  V30 28 H 3.506324 -3.940786 -1.021356 0
M  V30 29 H 4.018435 -1.788522 -0.025130 0
M  V30 30 H 2.240781 -0.430322 0.780400 0
M  V30 31 H 0.991143 0.888157 -0.705223 0
M  V30 32 H -0.033962 2.185729 -0.177489 0
M  V30 33 H 2.892064 2.015288 0.226177 0
M  V30 34 H 1.802939 3.378816 0.159011 0
M  V30 35 H 1.560890 3.558991 2.446976 0
M  V30 36 H 3.160299 2.880162 2.246685 0
M  V30 37 H 2.232991 0.682786 2.898932 0
M  V30 38 H 0.185749 0.546012 3.886291 0
M  V30 39 H 0.200245 2.372712 4.194608 0
M  V30 40 H -0.184503 2.737719 1.869298 0
M  V30 41 H -2.194823 2.600877 2.963779 0
M  V30 42 H -2.436764 1.688466 1.494605 0
M  V30 43 H -2.226566 0.863762 3.152439 0
M  V30 END ATOM
M  V30 BEGIN BOND
M  V30 1 1 1 2
M  V30 2 2 2 3
M  V30 3 1 3 4
M  V30 4 2 4 5
M  V30 5 1 5 6
M  V30 6 2 6 7
M  V30 7 1 7 8
M  V30 8 2 8 9
M  V30 9 1 9 10
M  V30 10 1 10 11
M  V30 11 2 11 12
M  V30 12 2 11 13
M  V30 13 1 11 14
M  V30 14 1 14 15
M  V30 15 1 15 16
M  V30 16 1 16 17
M  V30 17 1 17 18
M  V30 18 1 18 19
M  V30 19 1 19 20
M  V30 20 1 20 21
M  V30 21 2 10 22
M  V30 22 1 22 2
M  V30 23 1 22 6
M  V30 24 1 20 14
M  V30 25 1 1 23
M  V30 26 1 1 24
M  V30 27 1 1 25
M  V30 28 1 3 26
M  V30 29 1 5 27
M  V30 30 1 7 28
M  V30 31 1 8 29
M  V30 32 1 9 30
M  V30 33 1 15 31
M  V30 34 1 15 32
M  V30 35 1 16 33
M  V30 36 1 16 34
M  V30 37 1 17 35
M  V30 38 1 17 36
M  V30 39 1 18 37
M  V30 40 1 19 38
M  V30 41 1 19 39
M  V30 42 1 20 40 CFG=3
M  V30 43 1 21 41
M  V30 44 1 21 42
M  V30 45 1 21 43
M  V30 END BOND
M  V30 END CTAB
M  END
>  <Dataset>  (443) 
ChEMBL_Kinases

>  <Ligand_Instance>  (443) 
nan

>  <PDB_ID>  (443) 
nan

>  <Standardized_SMILES>  (443) 
Cc1cncc2cccc(S(=O)(=O)N3CCCNC[C@@H]3C)c12

>  <Name>  (443) 
nan

>  <Pocket>  (443) 
nan

>  <ATP_Site>  (443) 
nan

>  <Peripheral>  (443) 
nan

>  <Num_H_Atoms_ProtBoundConf>  (443) 
nan

>  <Num_Resolved_Atoms>  (443) 
nan

>  <Num_Not_Resolved_Atoms>  (443) 
nan

$$$$
CHEMBL4068949
     RDKit          3D

  0  0  0  0  0  0  0  0  0  0999 V3000
M  V30 BEGIN CTAB
M  V30 COUNTS 135 138 0 0 0
M  V30 BEGIN ATOM
M  V30 1 C 8.150596 -0.227375 -2.844604 0
M  V30 2 C 6.768515 -0.279304 -2.267117 0
M  V30 3 O 6.076828 -1.152028 -2.888078 0
M  V30 4 N 6.343863 0.565556 -1.158003 0
M  V30 5 C 6.880525 1.593797 -0.293406 0
M  V30 6 C 6.371227 1.186207 1.063320 0
M  V30 7 C 5.016666 0.596456 0.767482 0
M  V30 8 C 4.964752 0.363558 -0.742812 0 CFG=1
M  V30 9 C 4.020253 1.329781 -1.379030 0
M  V30 10 O 4.368351 2.538365 -1.463214 0
M  V30 11 N 2.746815 0.869199 -1.883473 0
M  V30 12 C 1.819924 1.861278 -2.508259 0 CFG=1
M  V30 13 C 2.330428 2.093954 -3.900220 0
M  V30 14 C 1.545473 3.017618 -4.733232 0
M  V30 15 C 0.146304 2.654219 -5.088446 0
M  V30 16 C 2.307001 3.281042 -6.060801 0
M  V30 17 C 0.438050 1.465695 -2.331507 0
M  V30 18 O -0.402687 2.401452 -2.396787 0
M  V30 19 N -0.156631 0.192467 -2.098497 0
M  V30 20 C -1.396957 -0.428192 -1.905196 0 CFG=1
M  V30 21 C -2.468081 0.200472 -1.078432 0
M  V30 22 C -2.145635 0.378159 0.349322 0
M  V30 23 C -2.341262 -0.873002 1.004709 0
M  V30 24 N -2.021321 -0.869588 2.316101 0
M  V30 25 C -1.612686 0.370529 2.555506 0
M  V30 26 N -1.695383 1.070038 1.409808 0
M  V30 27 C -1.403029 2.443773 1.063435 0
M  V30 28 C -2.558982 3.376039 1.053950 0
M  V30 29 C -3.297889 3.535618 2.311567 0
M  V30 30 C -2.449287 4.054708 3.442108 0
M  V30 31 C -3.227943 4.367238 4.675456 0
M  V30 32 C -3.980115 3.242875 5.264457 0
M  V30 33 C -3.222341 2.071143 5.757398 0
M  V30 34 C -4.193788 1.030226 6.345154 0
M  V30 35 C -3.449258 -0.147247 6.829779 0
M  V30 36 C -2.718282 -0.146125 7.992838 0
M  V30 37 F -2.758169 1.027198 8.663271 0
M  V30 38 C -2.000533 -1.264323 8.438008 0
M  V30 39 C -2.068605 -2.383739 7.635826 0
M  V30 40 C -2.818741 -2.367358 6.454377 0
M  V30 41 C -3.534592 -1.244917 6.013011 0
M  V30 42 O -4.121861 -1.618000 4.849467 0
M  V30 43 C -5.438534 -1.704436 4.511765 0
M  V30 44 C -6.425641 -0.946554 3.902415 0
M  V30 45 C -7.707244 -1.389602 3.728055 0
M  V30 46 C -8.100743 -2.628122 4.150374 0
M  V30 47 C -7.138445 -3.433680 4.771844 0
M  V30 48 O -7.696049 -4.665879 5.144074 0
M  V30 49 C -5.848487 -2.981951 4.946253 0
M  V30 50 C -1.941676 -1.163218 -3.101966 0
M  V30 51 O -3.015537 -1.748976 -3.368986 0
M  V30 52 N -1.040205 -1.214482 -4.185750 0
M  V30 53 C -0.912944 -1.707065 -5.532338 0 CFG=1
M  V30 54 C -0.469959 -0.659614 -6.492441 0
M  V30 55 O -0.381336 -1.249803 -7.764825 0
M  V30 56 C 0.070800 -2.847319 -5.521297 0
M  V30 57 O 0.499228 -3.246723 -6.659834 0
M  V30 58 N 0.573901 -3.535030 -4.365891 0
M  V30 59 C 1.517933 -4.575283 -4.634552 0 CFG=2
M  V30 60 C 0.738082 -5.856862 -4.943474 0
M  V30 61 N 1.611204 -6.933914 -5.226211 0
M  V30 62 O -0.475191 -6.239196 -5.021326 0
M  V30 63 C 2.503801 -4.848131 -3.546736 0 CFG=1
M  V30 64 C 3.251828 -3.560946 -3.155496 0
M  V30 65 O 1.885563 -5.253599 -2.361975 0
M  V30 66 P 2.524371 -6.731847 -1.893290 0
M  V30 67 O 3.723381 -7.061119 -2.744604 0
M  V30 68 O 1.358597 -7.960198 -2.003413 0
M  V30 69 O 3.092282 -6.687388 -0.282618 0
M  V30 70 H 8.085499 -0.158025 -3.959574 0
M  V30 71 H 8.703088 -1.173088 -2.590290 0
M  V30 72 H 8.683772 0.639794 -2.444941 0
M  V30 73 H 8.003594 1.610700 -0.320492 0
M  V30 74 H 6.475259 2.611337 -0.501884 0
M  V30 75 H 6.302438 2.055468 1.759144 0
M  V30 76 H 7.094168 0.423060 1.475481 0
M  V30 77 H 4.197279 1.261051 1.105612 0
M  V30 78 H 4.957227 -0.357310 1.340506 0
M  V30 79 H 4.589746 -0.658577 -0.887450 0
M  V30 80 H 2.610343 -0.141347 -1.754478 0
M  V30 81 H 2.034441 2.808105 -1.966735 0
M  V30 82 H 3.340894 2.595836 -3.747105 0
M  V30 83 H 2.492016 1.127257 -4.447523 0
M  V30 84 H 1.544091 4.061968 -4.268826 0
M  V30 85 H -0.165769 1.640747 -4.828112 0
M  V30 86 H -0.575198 3.439818 -4.799165 0
M  V30 87 H 0.036412 2.659230 -6.246042 0
M  V30 88 H 1.617243 3.923565 -6.661047 0
M  V30 89 H 3.263937 3.812235 -5.862962 0
M  V30 90 H 2.432014 2.319018 -6.573528 0
M  V30 91 H 0.685640 -0.476976 -2.088876 0
M  V30 92 H -1.152451 -1.354828 -1.204861 0
M  V30 93 H -2.770187 1.212404 -1.502830 0
M  V30 94 H -3.404838 -0.384454 -1.225226 0
M  V30 95 H -2.690188 -1.886994 0.759515 0
M  V30 96 H -1.229531 0.964193 3.368307 0
M  V30 97 H -0.717664 2.885184 1.877721 0
M  V30 98 H -0.750187 2.546202 0.175609 0
M  V30 99 H -2.100698 4.395944 0.801016 0
M  V30 100 H -3.226932 3.225056 0.159856 0
M  V30 101 H -3.828553 2.588301 2.621026 0
M  V30 102 H -4.146084 4.262634 2.138638 0
M  V30 103 H -1.663588 3.295054 3.639859 0
M  V30 104 H -1.877703 4.958332 3.109087 0
M  V30 105 H -3.971463 5.152903 4.391156 0
M  V30 106 H -2.548921 4.866382 5.421372 0
M  V30 107 H -4.626758 3.677060 6.081993 0
M  V30 108 H -4.701151 2.877290 4.471834 0
M  V30 109 H -2.592242 1.546796 5.058466 0
M  V30 110 H -2.548780 2.437327 6.590827 0
M  V30 111 H -4.692860 1.551575 7.197705 0
M  V30 112 H -4.965076 0.803034 5.620113 0
M  V30 113 H -1.459829 -1.161001 9.361536 0
M  V30 114 H -1.491291 -3.203516 8.046232 0
M  V30 115 H -2.710411 -3.376774 6.005279 0
M  V30 116 H -5.947143 0.000136 3.622756 0
M  V30 117 H -8.308035 -0.617311 3.223705 0
M  V30 118 H -9.137599 -2.854535 3.954950 0
M  V30 119 H -8.074422 -5.228797 4.384625 0
M  V30 120 H -5.303777 -3.792512 5.449142 0
M  V30 121 H -0.076780 -0.777710 -4.086017 0
M  V30 122 H -1.929846 -2.129597 -5.816227 0
M  V30 123 H -1.186604 0.184103 -6.492735 0
M  V30 124 H 0.554334 -0.346020 -6.196586 0
M  V30 125 H -0.828976 -0.687940 -8.431309 0
M  V30 126 H 0.189328 -3.194162 -3.453666 0
M  V30 127 H 2.042182 -4.373077 -5.586254 0
M  V30 128 H 2.531557 -7.466921 -5.224619 0
M  V30 129 H 2.026216 -7.825757 -5.553832 0
M  V30 130 H 3.233653 -5.613620 -3.843391 0
M  V30 131 H 4.089646 -3.800846 -2.495706 0
M  V30 132 H 2.556110 -2.868135 -2.605148 0
M  V30 133 H 3.514662 -3.058890 -4.097082 0
M  V30 134 H 0.615353 -7.644301 -2.579194 0
M  V30 135 H 2.436807 -7.092307 0.326696 0
M  V30 END ATOM
M  V30 BEGIN BOND
M  V30 1 1 1 2
M  V30 2 2 2 3
M  V30 3 1 2 4
M  V30 4 1 4 5
M  V30 5 1 5 6
M  V30 6 1 6 7
M  V30 7 1 7 8
M  V30 8 1 8 9
M  V30 9 2 9 10
M  V30 10 1 9 11
M  V30 11 1 11 12
M  V30 12 1 12 13
M  V30 13 1 13 14
M  V30 14 1 14 15
M  V30 15 1 14 16
M  V30 16 1 12 17
M  V30 17 2 17 18
M  V30 18 1 17 19
M  V30 19 1 19 20
M  V30 20 1 20 21
M  V30 21 1 21 22
M  V30 22 2 22 23
M  V30 23 1 23 24
M  V30 24 2 24 25
M  V30 25 1 25 26
M  V30 26 1 26 27
M  V30 27 1 27 28
M  V30 28 1 28 29
M  V30 29 1 29 30
M  V30 30 1 30 31
M  V30 31 1 31 32
M  V30 32 1 32 33
M  V30 33 1 33 34
M  V30 34 1 34 35
M  V30 35 2 35 36
M  V30 36 1 36 37
M  V30 37 1 36 38
M  V30 38 2 38 39
M  V30 39 1 39 40
M  V30 40 2 40 41
M  V30 41 1 41 42
M  V30 42 1 42 43
M  V30 43 2 43 44
M  V30 44 1 44 45
M  V30 45 2 45 46
M  V30 46 1 46 47
M  V30 47 1 47 48
M  V30 48 2 47 49
M  V30 49 1 20 50
M  V30 50 2 50 51
M  V30 51 1 50 52
M  V30 52 1 52 53
M  V30 53 1 53 54
M  V30 54 1 54 55
M  V30 55 1 53 56
M  V30 56 2 56 57
M  V30 57 1 56 58
M  V30 58 1 58 59
M  V30 59 1 59 60
M  V30 60 1 60 61
M  V30 61 2 60 62
M  V30 62 1 59 63
M  V30 63 1 63 64
M  V30 64 1 63 65
M  V30 65 1 65 66
M  V30 66 2 66 67
M  V30 67 1 66 68
M  V30 68 1 66 69
M  V30 69 1 8 4
M  V30 70 1 26 22
M  V30 71 1 41 35
M  V30 72 1 49 43
M  V30 73 1 1 70
M  V30 74 1 1 71
M  V30 75 1 1 72
M  V30 76 1 5 73
M  V30 77 1 5 74
M  V30 78 1 6 75
M  V30 79 1 6 76
M  V30 80 1 7 77
M  V30 81 1 7 78
M  V30 82 1 8 79 CFG=1
M  V30 83 1 11 80
M  V30 84 1 12 81 CFG=1
M  V30 85 1 13 82
M  V30 86 1 13 83
M  V30 87 1 14 84
M  V30 88 1 15 85
M  V30 89 1 15 86
M  V30 90 1 15 87
M  V30 91 1 16 88
M  V30 92 1 16 89
M  V30 93 1 16 90
M  V30 94 1 19 91
M  V30 95 1 20 92 CFG=1
M  V30 96 1 21 93
M  V30 97 1 21 94
M  V30 98 1 23 95
M  V30 99 1 25 96
M  V30 100 1 27 97
M  V30 101 1 27 98
M  V30 102 1 28 99
M  V30 103 1 28 100
M  V30 104 1 29 101
M  V30 105 1 29 102
M  V30 106 1 30 103
M  V30 107 1 30 104
M  V30 108 1 31 105
M  V30 109 1 31 106
M  V30 110 1 32 107
M  V30 111 1 32 108
M  V30 112 1 33 109
M  V30 113 1 33 110
M  V30 114 1 34 111
M  V30 115 1 34 112
M  V30 116 1 38 113
M  V30 117 1 39 114
M  V30 118 1 40 115
M  V30 119 1 44 116
M  V30 120 1 45 117
M  V30 121 1 46 118
M  V30 122 1 48 119
M  V30 123 1 49 120
M  V30 124 1 52 121
M  V30 125 1 53 122 CFG=3
M  V30 126 1 54 123
M  V30 127 1 54 124
M  V30 128 1 55 125
M  V30 129 1 58 126
M  V30 130 1 59 127 CFG=3
M  V30 131 1 61 128
M  V30 132 1 61 129
M  V30 133 1 63 130 CFG=3
M  V30 134 1 64 131
M  V30 135 1 64 132
M  V30 136 1 64 133
M  V30 137 1 68 134
M  V30 138 1 69 135
M  V30 END BOND
M  V30 END CTAB
M  END
>  <Dataset>  (444) 
ChEMBL_Kinases

>  <Ligand_Instance>  (444) 
nan

>  <PDB_ID>  (444) 
nan

>  <Standardized_SMILES>  (444) 
CC(=O)N1CCC[C@H]1C(=O)N[C@@H](CC(C)C)C(=O)N[C@@H](Cc1cncn1CCCCCCCCc1c(F)cccc1Oc1cccc(O)c1)C(=O)N[C@@H](CO)C(=O)N[C@H](C(N)=O)[C@@H](C)OP(=O)(O)O

>  <Name>  (444) 
nan

>  <Pocket>  (444) 
nan

>  <ATP_Site>  (444) 
nan

>  <Peripheral>  (444) 
nan

>  <Num_H_Atoms_ProtBoundConf>  (444) 
nan

>  <Num_Resolved_Atoms>  (444) 
nan

>  <Num_Not_Resolved_Atoms>  (444) 
nan

$$$$
CHEMBL4860767
     RDKit          3D

  0  0  0  0  0  0  0  0  0  0999 V3000
M  V30 BEGIN CTAB
M  V30 COUNTS 68 72 0 0 0
M  V30 BEGIN ATOM
M  V30 1 C 1.964184 -2.097958 5.804190 0
M  V30 2 C 2.946530 -1.373535 5.298237 0
M  V30 3 C 3.575660 -1.882852 4.091817 0
M  V30 4 O 3.206618 -2.945679 3.557450 0
M  V30 5 N 4.641817 -1.249653 3.410670 0
M  V30 6 C 5.163841 -1.872019 2.208365 0
M  V30 7 C 5.081581 -0.867255 1.092842 0
M  V30 8 N 4.442846 0.377882 1.471059 0
M  V30 9 C 3.245937 0.928136 0.953093 0
M  V30 10 C 2.467089 0.343076 -0.011209 0
M  V30 11 C 1.312070 0.974952 -0.426956 0
M  V30 12 C 0.877929 2.185186 0.074627 0
M  V30 13 N -0.325452 2.814104 -0.347202 0
M  V30 14 C -1.026975 2.066271 -1.329950 0
M  V30 15 N -1.134784 2.241903 -2.672544 0
M  V30 16 C -1.841139 1.403519 -3.438991 0
M  V30 17 C -2.477122 0.331308 -2.852548 0
M  V30 18 C -3.204079 -0.550988 -3.602152 0
M  V30 19 C -3.342305 -0.379866 -5.070727 0
M  V30 20 C -3.797581 -1.595216 -2.923408 0
M  V30 21 C -4.592943 -2.587220 -3.629891 0
M  V30 22 C -5.906988 -3.036493 -4.139144 0
M  V30 23 O -3.701696 -3.412971 -3.910250 0
M  V30 24 C -3.694387 -1.789228 -1.541473 0
M  V30 25 O -4.255165 -2.757294 -0.976544 0
M  V30 26 N -2.979568 -0.916188 -0.820905 0
M  V30 27 C -2.785339 -0.993484 0.584569 0
M  V30 28 C -1.892329 -2.134929 1.012994 0
M  V30 29 C -2.362106 -2.489340 2.411249 0
M  V30 30 C -3.374306 -1.422964 2.795258 0
M  V30 31 C -4.009546 -1.162404 1.419524 0
M  V30 32 C -2.391034 0.119250 -1.493845 0
M  V30 33 N -1.661869 1.008606 -0.794857 0
M  V30 34 N 1.681095 2.739073 1.033442 0
M  V30 35 C 2.807367 2.133384 1.446112 0
M  V30 36 C 5.286226 0.920366 2.488864 0
M  V30 37 C 5.379029 -0.009499 3.697398 0
M  V30 38 H 1.340041 -1.960075 6.665550 0
M  V30 39 H 1.541325 -3.031770 5.460967 0
M  V30 40 H 3.191269 -0.478956 5.820155 0
M  V30 41 H 6.227088 -2.179685 2.346888 0
M  V30 42 H 4.550721 -2.754060 1.928906 0
M  V30 43 H 4.490681 -1.311140 0.267936 0
M  V30 44 H 6.086187 -0.668613 0.641420 0
M  V30 45 H 2.746948 -0.599936 -0.442707 0
M  V30 46 H 0.725813 0.469351 -1.196666 0
M  V30 47 H -0.577532 3.729685 0.081470 0
M  V30 48 H -1.893653 1.590865 -4.500488 0
M  V30 49 H -3.859546 -1.242367 -5.519501 0
M  V30 50 H -3.947639 0.517655 -5.315321 0
M  V30 51 H -2.353927 -0.329094 -5.569128 0
M  V30 52 H -6.170593 -3.998138 -3.622485 0
M  V30 53 H -6.730487 -2.320626 -3.909644 0
M  V30 54 H -5.888021 -3.147173 -5.253308 0
M  V30 55 H -2.270645 -0.065628 0.962925 0
M  V30 56 H -1.944769 -3.005475 0.361391 0
M  V30 57 H -0.831942 -1.801273 1.057824 0
M  V30 58 H -1.505362 -2.528150 3.116469 0
M  V30 59 H -2.895449 -3.472255 2.445956 0
M  V30 60 H -4.086213 -1.774345 3.539341 0
M  V30 61 H -2.852732 -0.495688 3.104257 0
M  V30 62 H -4.623633 -2.034098 1.199848 0
M  V30 63 H -4.626725 -0.234463 1.485178 0
M  V30 64 H 3.282293 2.740466 2.200322 0
M  V30 65 H 4.963958 1.885812 2.880740 0
M  V30 66 H 6.298992 1.113869 2.034071 0
M  V30 67 H 5.027813 0.454441 4.616358 0
M  V30 68 H 6.445407 -0.309978 3.776881 0
M  V30 END ATOM
M  V30 BEGIN BOND
M  V30 1 2 1 2
M  V30 2 1 2 3
M  V30 3 2 3 4
M  V30 4 1 3 5
M  V30 5 1 5 6
M  V30 6 1 6 7
M  V30 7 1 7 8
M  V30 8 1 8 9
M  V30 9 2 9 10
M  V30 10 1 10 11
M  V30 11 2 11 12
M  V30 12 1 12 13
M  V30 13 1 13 14
M  V30 14 2 14 15
M  V30 15 1 15 16
M  V30 16 2 16 17
M  V30 17 1 17 18
M  V30 18 1 18 19
M  V30 19 2 18 20
M  V30 20 1 20 21
M  V30 21 1 21 22
M  V30 22 2 21 23
M  V30 23 1 20 24
M  V30 24 2 24 25
M  V30 25 1 24 26
M  V30 26 1 26 27
M  V30 27 1 27 28
M  V30 28 1 28 29
M  V30 29 1 29 30
M  V30 30 1 30 31
M  V30 31 1 26 32
M  V30 32 2 32 33
M  V30 33 1 12 34
M  V30 34 2 34 35
M  V30 35 1 8 36
M  V30 36 1 36 37
M  V30 37 1 37 5
M  V30 38 1 35 9
M  V30 39 1 33 14
M  V30 40 1 32 17
M  V30 41 1 31 27
M  V30 42 1 1 38
M  V30 43 1 1 39
M  V30 44 1 2 40
M  V30 45 1 6 41
M  V30 46 1 6 42
M  V30 47 1 7 43
M  V30 48 1 7 44
M  V30 49 1 10 45
M  V30 50 1 11 46
M  V30 51 1 13 47
M  V30 52 1 16 48
M  V30 53 1 19 49
M  V30 54 1 19 50
M  V30 55 1 19 51
M  V30 56 1 22 52
M  V30 57 1 22 53
M  V30 58 1 22 54
M  V30 59 1 27 55
M  V30 60 1 28 56
M  V30 61 1 28 57
M  V30 62 1 29 58
M  V30 63 1 29 59
M  V30 64 1 30 60
M  V30 65 1 30 61
M  V30 66 1 31 62
M  V30 67 1 31 63
M  V30 68 1 35 64
M  V30 69 1 36 65
M  V30 70 1 36 66
M  V30 71 1 37 67
M  V30 72 1 37 68
M  V30 END BOND
M  V30 END CTAB
M  END
>  <Dataset>  (445) 
ChEMBL_Kinases

>  <Ligand_Instance>  (445) 
nan

>  <PDB_ID>  (445) 
nan

>  <Standardized_SMILES>  (445) 
C=CC(=O)N1CCN(c2ccc(Nc3ncc4c(C)c(C(C)=O)c(=O)n(C5CCCC5)c4n3)nc2)CC1

>  <Name>  (445) 
nan

>  <Pocket>  (445) 
nan

>  <ATP_Site>  (445) 
nan

>  <Peripheral>  (445) 
nan

>  <Num_H_Atoms_ProtBoundConf>  (445) 
nan

>  <Num_Resolved_Atoms>  (445) 
nan

>  <Num_Not_Resolved_Atoms>  (445) 
nan

$$$$
CHEMBL4070019
     RDKit          3D

  0  0  0  0  0  0  0  0  0  0999 V3000
M  V30 BEGIN CTAB
M  V30 COUNTS 37 39 0 0 0
M  V30 BEGIN ATOM
M  V30 1 C -1.274924 -2.604180 3.246174 0
M  V30 2 N 0.094931 -2.539025 2.829863 0
M  V30 3 C 0.265332 -2.799393 1.416358 0
M  V30 4 C 1.586164 -2.354863 0.886932 0
M  V30 5 C 1.967466 -0.948788 1.213641 0
M  V30 6 N 2.016975 -0.101787 0.031068 0
M  V30 7 C 3.125019 0.367919 -0.596234 0
M  V30 8 I 5.111544 -0.013309 -0.012525 0
M  V30 9 C 2.777724 1.137151 -1.680000 0
M  V30 10 Cl 3.819413 1.971935 -2.819068 0
M  V30 11 C 1.406700 1.124220 -1.698067 0
M  V30 12 C 0.443591 1.686499 -2.509483 0
M  V30 13 Cl 0.966027 2.660091 -3.856407 0
M  V30 14 C -0.904209 1.462676 -2.232321 0
M  V30 15 C -1.343304 0.697230 -1.173964 0
M  V30 16 C -2.779235 0.535078 -0.984614 0
M  V30 17 N -3.125475 -0.261422 0.119487 0
M  V30 18 O -3.677842 1.027920 -1.696721 0
M  V30 19 N -0.366857 0.159548 -0.396805 0
M  V30 20 C 0.932433 0.366847 -0.652087 0
M  V30 21 C 1.106664 -0.345877 2.306857 0
M  V30 22 C 0.802972 -1.405822 3.322408 0
M  V30 23 H -1.981284 -2.275781 2.461631 0
M  V30 24 H -1.405422 -2.041935 4.194690 0
M  V30 25 H -1.500450 -3.677789 3.480555 0
M  V30 26 H -0.592235 -2.382812 0.824115 0
M  V30 27 H 0.201629 -3.899893 1.277415 0
M  V30 28 H 2.358028 -3.084032 1.207068 0
M  V30 29 H 1.522307 -2.433359 -0.234882 0
M  V30 30 H 3.003114 -0.966925 1.641341 0
M  V30 31 H -1.658510 1.893269 -2.854381 0
M  V30 32 H -3.279828 -0.945576 0.871113 0
M  V30 33 H -3.833412 0.090613 0.813302 0
M  V30 34 H 0.205244 0.140647 1.923592 0
M  V30 35 H 1.675488 0.450687 2.850003 0
M  V30 36 H 1.759374 -1.708713 3.794555 0
M  V30 37 H 0.172497 -0.937477 4.128363 0
M  V30 END ATOM
M  V30 BEGIN BOND
M  V30 1 1 1 2
M  V30 2 1 2 3
M  V30 3 1 3 4
M  V30 4 1 4 5
M  V30 5 1 5 6
M  V30 6 1 6 7
M  V30 7 1 7 8
M  V30 8 2 7 9
M  V30 9 1 9 10
M  V30 10 1 9 11
M  V30 11 2 11 12
M  V30 12 1 12 13
M  V30 13 1 12 14
M  V30 14 2 14 15
M  V30 15 1 15 16
M  V30 16 1 16 17
M  V30 17 2 16 18
M  V30 18 1 15 19
M  V30 19 2 19 20
M  V30 20 1 5 21
M  V30 21 1 21 22
M  V30 22 1 22 2
M  V30 23 1 20 6
M  V30 24 1 20 11
M  V30 25 1 1 23
M  V30 26 1 1 24
M  V30 27 1 1 25
M  V30 28 1 3 26
M  V30 29 1 3 27
M  V30 30 1 4 28
M  V30 31 1 4 29
M  V30 32 1 5 30
M  V30 33 1 14 31
M  V30 34 1 17 32
M  V30 35 1 17 33
M  V30 36 1 21 34
M  V30 37 1 21 35
M  V30 38 1 22 36
M  V30 39 1 22 37
M  V30 END BOND
M  V30 END CTAB
M  END
>  <Dataset>  (446) 
ChEMBL_Kinases

>  <Ligand_Instance>  (446) 
nan

>  <PDB_ID>  (446) 
nan

>  <Standardized_SMILES>  (446) 
CN1CCC(n2c(I)c(Cl)c3c(Cl)cc(C(N)=O)nc32)CC1

>  <Name>  (446) 
nan

>  <Pocket>  (446) 
nan

>  <ATP_Site>  (446) 
nan

>  <Peripheral>  (446) 
nan

>  <Num_H_Atoms_ProtBoundConf>  (446) 
nan

>  <Num_Resolved_Atoms>  (446) 
nan

>  <Num_Not_Resolved_Atoms>  (446) 
nan

$$$$
CHEMBL4070100
     RDKit          3D

  0  0  0  0  0  0  0  0  0  0999 V3000
M  V30 BEGIN CTAB
M  V30 COUNTS 58 61 0 0 0
M  V30 BEGIN ATOM
M  V30 1 C 1.074603 -1.729563 4.624308 0
M  V30 2 C 1.823908 -2.219702 3.399485 0
M  V30 3 C 1.360795 -1.475457 2.140901 0
M  V30 4 N 2.053793 -1.923058 0.981421 0
M  V30 5 C 3.183529 -1.491581 0.401435 0
M  V30 6 C 4.034294 -0.323013 0.768603 0
M  V30 7 N 3.857313 0.804885 -0.083002 0
M  V30 8 C 2.944888 1.723498 -0.610412 0
M  V30 9 C 3.212766 2.784677 -1.486149 0
M  V30 10 C 2.192370 3.593518 -1.911894 0
M  V30 11 C 0.893426 3.394260 -1.501085 0
M  V30 12 C 0.566636 2.375001 -0.646329 0
M  V30 13 C -0.806371 2.222719 -0.251256 0
M  V30 14 O -1.648113 3.035709 -0.711596 0
M  V30 15 N -1.319326 1.229657 0.622914 0
M  V30 16 C -2.699941 1.079133 1.020484 0
M  V30 17 C -3.579111 0.484910 0.015336 0
M  V30 18 C -3.678247 -0.894113 0.040917 0
M  V30 19 C -4.480135 -1.569679 -0.855177 0
M  V30 20 C -5.197167 -0.859417 -1.794759 0
M  V30 21 C -5.135069 0.522213 -1.865278 0
M  V30 22 C -4.324225 1.128359 -0.951105 0
M  V30 23 C 1.621775 1.585323 -0.242502 0
M  V30 24 N 3.478057 -2.274188 -0.674885 0
M  V30 25 N 2.510387 -3.196554 -0.752192 0
M  V30 26 C 1.630199 -2.981336 0.268933 0
M  V30 27 C 0.494265 -3.892361 0.354953 0
M  V30 28 C 0.287900 -4.970439 1.197367 0
M  V30 29 C -0.865339 -5.699548 1.105103 0
M  V30 30 N -1.817876 -5.393757 0.205884 0
M  V30 31 C -1.676949 -4.343705 -0.653893 0
M  V30 32 C -0.509048 -3.592288 -0.572318 0
M  V30 33 H 0.290909 -2.424162 4.962936 0
M  V30 34 H 1.841943 -1.600902 5.430759 0
M  V30 35 H 0.637556 -0.726968 4.347363 0
M  V30 36 H 2.924621 -2.103380 3.518019 0
M  V30 37 H 1.627614 -3.308450 3.340338 0
M  V30 38 H 1.483788 -0.403821 2.396980 0
M  V30 39 H 0.270389 -1.656997 2.060513 0
M  V30 40 H 3.886254 -0.053446 1.847824 0
M  V30 41 H 5.074211 -0.688104 0.716873 0
M  V30 42 H 4.809451 1.072819 -0.496887 0
M  V30 43 H 4.245865 2.906771 -1.784422 0
M  V30 44 H 2.531363 4.364967 -2.577107 0
M  V30 45 H 0.197057 4.106738 -1.915991 0
M  V30 46 H -0.646231 0.539191 1.020831 0
M  V30 47 H -3.113400 2.113320 1.217965 0
M  V30 48 H -2.783859 0.577992 2.019447 0
M  V30 49 H -3.146059 -1.513606 0.748045 0
M  V30 50 H -4.627800 -2.643588 -0.919761 0
M  V30 51 H -5.848365 -1.346036 -2.529203 0
M  V30 52 H -5.670914 1.142966 -2.576574 0
M  V30 53 H -4.243906 2.205948 -0.964788 0
M  V30 54 H 1.279595 0.810236 0.418531 0
M  V30 55 H 1.102579 -5.129086 1.872560 0
M  V30 56 H -0.926427 -6.519585 1.808934 0
M  V30 57 H -2.461979 -4.121174 -1.369219 0
M  V30 58 H -0.473633 -2.773599 -1.290912 0
M  V30 END ATOM
M  V30 BEGIN BOND
M  V30 1 1 1 2
M  V30 2 1 2 3
M  V30 3 1 3 4
M  V30 4 1 4 5
M  V30 5 1 5 6
M  V30 6 1 6 7
M  V30 7 1 7 8
M  V30 8 2 8 9
M  V30 9 1 9 10
M  V30 10 2 10 11
M  V30 11 1 11 12
M  V30 12 1 12 13
M  V30 13 2 13 14
M  V30 14 1 13 15
M  V30 15 1 15 16
M  V30 16 1 16 17
M  V30 17 2 17 18
M  V30 18 1 18 19
M  V30 19 2 19 20
M  V30 20 1 20 21
M  V30 21 2 21 22
M  V30 22 2 12 23
M  V30 23 2 5 24
M  V30 24 1 24 25
M  V30 25 2 25 26
M  V30 26 1 26 27
M  V30 27 2 27 28
M  V30 28 1 28 29
M  V30 29 2 29 30
M  V30 30 1 30 31
M  V30 31 2 31 32
M  V30 32 1 26 4
M  V30 33 1 32 27
M  V30 34 1 23 8
M  V30 35 1 22 17
M  V30 36 1 1 33
M  V30 37 1 1 34
M  V30 38 1 1 35
M  V30 39 1 2 36
M  V30 40 1 2 37
M  V30 41 1 3 38
M  V30 42 1 3 39
M  V30 43 1 6 40
M  V30 44 1 6 41
M  V30 45 1 7 42
M  V30 46 1 9 43
M  V30 47 1 10 44
M  V30 48 1 11 45
M  V30 49 1 15 46
M  V30 50 1 16 47
M  V30 51 1 16 48
M  V30 52 1 18 49
M  V30 53 1 19 50
M  V30 54 1 20 51
M  V30 55 1 21 52
M  V30 56 1 22 53
M  V30 57 1 23 54
M  V30 58 1 28 55
M  V30 59 1 29 56
M  V30 60 1 31 57
M  V30 61 1 32 58
M  V30 END BOND
M  V30 END CTAB
M  END
>  <Dataset>  (447) 
ChEMBL_Kinases

>  <Ligand_Instance>  (447) 
nan

>  <PDB_ID>  (447) 
nan

>  <Standardized_SMILES>  (447) 
CCCn1c(CNc2cccc(C(=O)NCc3ccccc3)c2)nnc1-c1ccncc1

>  <Name>  (447) 
nan

>  <Pocket>  (447) 
nan

>  <ATP_Site>  (447) 
nan

>  <Peripheral>  (447) 
nan

>  <Num_H_Atoms_ProtBoundConf>  (447) 
nan

>  <Num_Resolved_Atoms>  (447) 
nan

>  <Num_Not_Resolved_Atoms>  (447) 
nan

$$$$
CHEMBL4070117
     RDKit          3D

  0  0  0  0  0  0  0  0  0  0999 V3000
M  V30 BEGIN CTAB
M  V30 COUNTS 52 56 0 0 0
M  V30 BEGIN ATOM
M  V30 1 C 1.182538 -2.410437 4.929150 0
M  V30 2 C 2.314791 -2.711689 4.018700 0
M  V30 3 C 3.284519 -3.651351 4.290935 0
M  V30 4 N 4.303850 -3.895135 3.428665 0
M  V30 5 C 4.371410 -3.202540 2.277420 0
M  V30 6 C 3.420875 -2.253480 1.967407 0
M  V30 7 C 3.483981 -1.494388 0.718311 0
M  V30 8 C 2.505320 -0.559526 0.464402 0
M  V30 9 C 2.601660 0.145204 -0.741342 0
M  V30 10 C 3.644827 -0.123411 -1.595018 0
M  V30 11 C 3.448963 0.717164 -2.655289 0
M  V30 12 C 2.317734 1.483460 -2.463252 0
M  V30 13 N 1.797715 1.118283 -1.266784 0
M  V30 14 C 0.620364 1.600648 -0.579875 0
M  V30 15 C 0.534343 2.835467 0.055580 0
M  V30 16 C -0.666341 3.140637 0.665408 0
M  V30 17 C -1.730940 2.248029 0.638718 0
M  V30 18 C -1.603465 1.038151 -0.000478 0
M  V30 19 N -2.650863 0.078989 -0.066513 0
M  V30 20 C -3.922164 0.344651 0.534326 0
M  V30 21 C -5.051868 -0.394983 -0.193718 0
M  V30 22 C -5.124105 -1.848685 0.210939 0
M  V30 23 N -4.200736 -2.622484 -0.589085 0
M  V30 24 C -2.879806 -2.364049 -0.044989 0
M  V30 25 C -2.336752 -1.152452 -0.769089 0
M  V30 26 N -0.431191 0.783487 -0.574771 0
M  V30 27 C 4.616453 -1.067886 -1.317686 0
M  V30 28 N 4.489476 -1.733485 -0.135145 0
M  V30 29 N 2.433575 -2.053442 2.858303 0
M  V30 30 H 1.408869 -1.488672 5.526067 0
M  V30 31 H 0.261198 -2.207360 4.350016 0
M  V30 32 H 0.962972 -3.248879 5.615246 0
M  V30 33 H 3.210449 -4.196724 5.222929 0
M  V30 34 H 5.156110 -3.341658 1.538703 0
M  V30 35 H 1.708975 -0.388788 1.168997 0
M  V30 36 H 4.029728 0.843582 -3.556788 0
M  V30 37 H 1.841102 2.247193 -3.063290 0
M  V30 38 H 1.418324 3.449348 0.015738 0
M  V30 39 H -0.704654 4.110922 1.153366 0
M  V30 40 H -2.636333 2.519974 1.119260 0
M  V30 41 H -4.234542 1.387606 0.571320 0
M  V30 42 H -3.986548 -0.046311 1.591652 0
M  V30 43 H -6.010659 0.094548 0.083847 0
M  V30 44 H -4.888872 -0.252033 -1.264599 0
M  V30 45 H -6.159403 -2.194341 -0.015849 0
M  V30 46 H -4.917512 -1.924678 1.285703 0
M  V30 47 H -4.258747 -2.332264 -1.585575 0
M  V30 48 H -2.912186 -2.132327 1.044230 0
M  V30 49 H -2.201333 -3.206492 -0.247791 0
M  V30 50 H -1.228508 -1.245505 -0.770196 0
M  V30 51 H -2.685895 -1.100574 -1.835033 0
M  V30 52 H 5.417642 -1.237857 -2.029494 0
M  V30 END ATOM
M  V30 BEGIN BOND
M  V30 1 1 1 2
M  V30 2 2 2 3
M  V30 3 1 3 4
M  V30 4 2 4 5
M  V30 5 1 5 6
M  V30 6 1 6 7
M  V30 7 2 7 8
M  V30 8 1 8 9
M  V30 9 2 9 10
M  V30 10 1 10 11
M  V30 11 2 11 12
M  V30 12 1 12 13
M  V30 13 1 13 14
M  V30 14 2 14 15
M  V30 15 1 15 16
M  V30 16 2 16 17
M  V30 17 1 17 18
M  V30 18 1 18 19
M  V30 19 1 19 20
M  V30 20 1 20 21
M  V30 21 1 21 22
M  V30 22 1 22 23
M  V30 23 1 23 24
M  V30 24 1 24 25
M  V30 25 2 18 26
M  V30 26 1 10 27
M  V30 27 2 27 28
M  V30 28 2 6 29
M  V30 29 1 29 2
M  V30 30 1 28 7
M  V30 31 1 13 9
M  V30 32 1 26 14
M  V30 33 1 25 19
M  V30 34 1 1 30
M  V30 35 1 1 31
M  V30 36 1 1 32
M  V30 37 1 3 33
M  V30 38 1 5 34
M  V30 39 1 8 35
M  V30 40 1 11 36
M  V30 41 1 12 37
M  V30 42 1 15 38
M  V30 43 1 16 39
M  V30 44 1 17 40
M  V30 45 1 20 41
M  V30 46 1 20 42
M  V30 47 1 21 43
M  V30 48 1 21 44
M  V30 49 1 22 45
M  V30 50 1 22 46
M  V30 51 1 23 47
M  V30 52 1 24 48
M  V30 53 1 24 49
M  V30 54 1 25 50
M  V30 55 1 25 51
M  V30 56 1 27 52
M  V30 END BOND
M  V30 END CTAB
M  END
>  <Dataset>  (448) 
ChEMBL_Kinases

>  <Ligand_Instance>  (448) 
nan

>  <PDB_ID>  (448) 
nan

>  <Standardized_SMILES>  (448) 
Cc1cncc(-c2cc3c(ccn3-c3cccc(N4CCCNCC4)n3)cn2)n1

>  <Name>  (448) 
nan

>  <Pocket>  (448) 
nan

>  <ATP_Site>  (448) 
nan

>  <Peripheral>  (448) 
nan

>  <Num_H_Atoms_ProtBoundConf>  (448) 
nan

>  <Num_Resolved_Atoms>  (448) 
nan

>  <Num_Not_Resolved_Atoms>  (448) 
nan

$$$$
CHEMBL4070441
     RDKit          3D

  0  0  0  0  0  0  0  0  0  0999 V3000
M  V30 BEGIN CTAB
M  V30 COUNTS 37 39 0 0 0
M  V30 BEGIN ATOM
M  V30 1 N 0.610369 -3.799414 2.921022 0
M  V30 2 C 1.406448 -2.854801 3.665775 0
M  V30 3 O 1.795961 -3.102438 4.833939 0
M  V30 4 C 1.749927 -1.586880 3.012897 0
M  V30 5 C 2.510054 -0.661628 3.697767 0
M  V30 6 C 2.817457 0.518827 3.061745 0
M  V30 7 Cl 3.784509 1.731460 3.892845 0
M  V30 8 C 2.365304 0.751204 1.768001 0
M  V30 9 C 2.503874 1.808303 0.883251 0
M  V30 10 Cl 3.422576 3.257733 1.334836 0
M  V30 11 C 1.828546 1.466614 -0.271066 0
M  V30 12 I 1.829332 2.851397 -1.855653 0
M  V30 13 N 1.284348 0.264911 -0.148076 0
M  V30 14 C 0.521563 -0.380021 -1.160291 0
M  V30 15 C -0.092976 -1.694647 -0.737124 0
M  V30 16 C -1.381036 -1.629759 -0.020523 0
M  V30 17 C -2.317891 -0.527135 -0.375544 0
M  V30 18 N -2.960037 -0.875837 -1.653375 0
M  V30 19 C -1.560737 0.758788 -0.668631 0
M  V30 20 C -0.587580 0.392312 -1.770132 0
M  V30 21 C 1.602806 -0.192148 1.098375 0
M  V30 22 N 1.344194 -1.305502 1.769544 0
M  V30 23 H -0.438765 -3.937575 3.019184 0
M  V30 24 H 1.252922 -4.305382 2.284734 0
M  V30 25 H 2.875351 -0.815069 4.704152 0
M  V30 26 H 1.209836 -0.635074 -2.022720 0
M  V30 27 H 0.585061 -2.369176 -0.209102 0
M  V30 28 H -0.305622 -2.244414 -1.706953 0
M  V30 29 H -1.335280 -1.633236 1.093441 0
M  V30 30 H -1.951647 -2.583742 -0.235561 0
M  V30 31 H -3.069266 -0.383458 0.398258 0
M  V30 32 H -3.364326 -0.012178 -2.068431 0
M  V30 33 H -3.655763 -1.632102 -1.537195 0
M  V30 34 H -0.969140 0.958682 0.258674 0
M  V30 35 H -2.248063 1.570052 -0.930297 0
M  V30 36 H -1.117126 -0.341304 -2.454139 0
M  V30 37 H -0.347535 1.216216 -2.430655 0
M  V30 END ATOM
M  V30 BEGIN BOND
M  V30 1 1 1 2
M  V30 2 2 2 3
M  V30 3 1 2 4
M  V30 4 2 4 5
M  V30 5 1 5 6
M  V30 6 1 6 7
M  V30 7 2 6 8
M  V30 8 1 8 9
M  V30 9 1 9 10
M  V30 10 2 9 11
M  V30 11 1 11 12
M  V30 12 1 11 13
M  V30 13 1 13 14
M  V30 14 1 14 15
M  V30 15 1 15 16
M  V30 16 1 16 17
M  V30 17 1 17 18
M  V30 18 1 17 19
M  V30 19 1 19 20
M  V30 20 1 13 21
M  V30 21 2 21 22
M  V30 22 1 22 4
M  V30 23 1 21 8
M  V30 24 1 20 14
M  V30 25 1 1 23
M  V30 26 1 1 24
M  V30 27 1 5 25
M  V30 28 1 14 26
M  V30 29 1 15 27
M  V30 30 1 15 28
M  V30 31 1 16 29
M  V30 32 1 16 30
M  V30 33 1 17 31
M  V30 34 1 18 32
M  V30 35 1 18 33
M  V30 36 1 19 34
M  V30 37 1 19 35
M  V30 38 1 20 36
M  V30 39 1 20 37
M  V30 END BOND
M  V30 END CTAB
M  END
>  <Dataset>  (449) 
ChEMBL_Kinases

>  <Ligand_Instance>  (449) 
nan

>  <PDB_ID>  (449) 
nan

>  <Standardized_SMILES>  (449) 
NC(=O)c1cc(Cl)c2c(Cl)c(I)n(C3CCC(N)CC3)c2n1

>  <Name>  (449) 
nan

>  <Pocket>  (449) 
nan

>  <ATP_Site>  (449) 
nan

>  <Peripheral>  (449) 
nan

>  <Num_H_Atoms_ProtBoundConf>  (449) 
nan

>  <Num_Resolved_Atoms>  (449) 
nan

>  <Num_Not_Resolved_Atoms>  (449) 
nan

$$$$
CHEMBL4860369
     RDKit          3D

  0  0  0  0  0  0  0  0  0  0999 V3000
M  V30 BEGIN CTAB
M  V30 COUNTS 56 61 0 0 0
M  V30 BEGIN ATOM
M  V30 1 C 4.142309 3.493151 3.328897 0
M  V30 2 O 2.904331 3.284184 2.696067 0
M  V30 3 C 2.454712 1.974269 2.533633 0
M  V30 4 N 3.242054 0.959050 2.998790 0
M  V30 5 C 2.772210 -0.290755 2.822430 0
M  V30 6 C 1.557952 -0.510294 2.202361 0
M  V30 7 C 0.764818 0.509240 1.734494 0
M  V30 8 C 1.209585 1.803328 1.895017 0
M  V30 9 N 0.556288 2.968234 1.474527 0
M  V30 10 S -0.163225 3.636553 0.084938 0
M  V30 11 O 0.872215 3.687652 -1.033432 0
M  V30 12 O -0.577388 5.069051 0.341138 0
M  V30 13 C -1.537225 2.750891 -0.512767 0
M  V30 14 C -2.770582 3.193826 -0.032517 0
M  V30 15 C -4.010796 2.686339 -0.356204 0
M  V30 16 C -3.971230 1.618770 -1.263024 0
M  V30 17 C -2.742904 1.166407 -1.749760 0
M  V30 18 C -1.531823 1.704214 -1.397994 0
M  V30 19 C -2.999107 0.067474 -2.649152 0
M  V30 20 O -3.786187 0.153960 -3.621301 0
M  V30 21 N -2.730007 -1.267649 -2.989090 0
M  V30 22 C -2.799668 -2.502750 -3.715165 0
M  V30 23 C -1.967501 -3.551114 -3.137335 0
M  V30 24 C -1.278721 -4.767332 -3.389612 0
M  V30 25 C -0.596884 -5.357101 -2.381057 0
M  V30 26 C -0.629659 -4.715661 -1.174691 0
M  V30 27 S -1.654385 -3.182807 -1.362808 0
M  V30 28 C -0.036452 -4.993538 0.151950 0
M  V30 29 N 0.015939 -6.257042 0.605049 0
M  V30 30 C 0.575896 -6.486742 1.842299 0
M  V30 31 N 1.058850 -5.484027 2.583229 0
M  V30 32 C 1.011717 -4.195377 2.133902 0
M  V30 33 C 1.476122 -3.073694 2.788877 0
M  V30 34 C 2.128927 -3.053734 4.152433 0
M  V30 35 C 1.321108 -1.918075 2.136539 0
M  V30 36 S 0.519585 -2.364471 0.586257 0
M  V30 37 C 0.470257 -3.977964 0.938844 0
M  V30 38 H 4.572145 2.532815 3.707991 0
M  V30 39 H 4.866395 3.927676 2.597965 0
M  V30 40 H 3.959936 4.185767 4.174868 0
M  V30 41 H 3.465127 -1.036287 3.224776 0
M  V30 42 H -0.173106 0.265134 1.260350 0
M  V30 43 H 0.513806 3.601667 2.332920 0
M  V30 44 H -2.832326 4.032225 0.682538 0
M  V30 45 H -4.922675 3.086722 0.060397 0
M  V30 46 H -4.956234 1.205392 -1.535184 0
M  V30 47 H -0.669371 1.270614 -1.837778 0
M  V30 48 H -2.079807 -1.307954 -2.173779 0
M  V30 49 H -3.864194 -2.874643 -3.795883 0
M  V30 50 H -2.505228 -2.377921 -4.795318 0
M  V30 51 H -1.422853 -5.040816 -4.418837 0
M  V30 52 H -0.051924 -6.272758 -2.479209 0
M  V30 53 H 0.644476 -7.490414 2.258815 0
M  V30 54 H 1.906717 -2.139508 4.713307 0
M  V30 55 H 3.198016 -3.239517 4.122358 0
M  V30 56 H 1.703474 -3.910524 4.756787 0
M  V30 END ATOM
M  V30 BEGIN BOND
M  V30 1 1 1 2
M  V30 2 1 2 3
M  V30 3 2 3 4
M  V30 4 1 4 5
M  V30 5 2 5 6
M  V30 6 1 6 7
M  V30 7 2 7 8
M  V30 8 1 8 9
M  V30 9 1 9 10
M  V30 10 2 10 11
M  V30 11 2 10 12
M  V30 12 1 10 13
M  V30 13 2 13 14
M  V30 14 1 14 15
M  V30 15 2 15 16
M  V30 16 1 16 17
M  V30 17 2 17 18
M  V30 18 1 17 19
M  V30 19 2 19 20
M  V30 20 1 19 21
M  V30 21 1 21 22
M  V30 22 1 22 23
M  V30 23 2 23 24
M  V30 24 1 24 25
M  V30 25 2 25 26
M  V30 26 1 26 27
M  V30 27 1 26 28
M  V30 28 1 28 29
M  V30 29 2 29 30
M  V30 30 1 30 31
M  V30 31 2 31 32
M  V30 32 1 32 33
M  V30 33 1 33 34
M  V30 34 2 33 35
M  V30 35 1 35 36
M  V30 36 1 36 37
M  V30 37 1 8 3
M  V30 38 1 18 13
M  V30 39 1 27 23
M  V30 40 2 37 28
M  V30 41 1 35 6
M  V30 42 1 37 32
M  V30 43 1 1 38
M  V30 44 1 1 39
M  V30 45 1 1 40
M  V30 46 1 5 41
M  V30 47 1 7 42
M  V30 48 1 9 43
M  V30 49 1 14 44
M  V30 50 1 15 45
M  V30 51 1 16 46
M  V30 52 1 18 47
M  V30 53 1 21 48
M  V30 54 1 22 49
M  V30 55 1 22 50
M  V30 56 1 24 51
M  V30 57 1 25 52
M  V30 58 1 30 53
M  V30 59 1 34 54
M  V30 60 1 34 55
M  V30 61 1 34 56
M  V30 END BOND
M  V30 END CTAB
M  END
>  <Dataset>  (450) 
ChEMBL_Kinases

>  <Ligand_Instance>  (450) 
nan

>  <PDB_ID>  (450) 
nan

>  <Standardized_SMILES>  (450) 
COc1ncc2cc1NS(=O)(=O)c1cccc(c1)C(=O)NCc1ccc(s1)-c1ncnc3c(C)c-2sc13

>  <Name>  (450) 
nan

>  <Pocket>  (450) 
nan

>  <ATP_Site>  (450) 
nan

>  <Peripheral>  (450) 
nan

>  <Num_H_Atoms_ProtBoundConf>  (450) 
nan

>  <Num_Resolved_Atoms>  (450) 
nan

>  <Num_Not_Resolved_Atoms>  (450) 
nan

$$$$
CHEMBL4066096
     RDKit          3D

  0  0  0  0  0  0  0  0  0  0999 V3000
M  V30 BEGIN CTAB
M  V30 COUNTS 45 47 0 0 0
M  V30 BEGIN ATOM
M  V30 1 C -3.888059 -4.189693 1.496989 0
M  V30 2 N -2.573812 -4.796319 1.611656 0
M  V30 3 C -1.807107 -5.250547 0.528485 0
M  V30 4 C -0.914971 -4.421974 -0.122281 0
M  V30 5 C -0.155561 -4.831531 -1.176909 0
M  V30 6 O 0.759346 -4.132492 -1.911918 0
M  V30 7 C 1.135327 -2.826199 -1.758305 0
M  V30 8 C 2.436944 -2.461928 -1.484153 0
M  V30 9 C 2.838511 -1.151069 -1.325373 0
M  V30 10 C 1.904246 -0.140872 -1.443411 0
M  V30 11 N 2.143172 1.271438 -1.309765 0
M  V30 12 C 1.978606 1.711764 0.046063 0
M  V30 13 O 1.658751 0.850743 0.921980 0
M  V30 14 N 2.153604 3.058581 0.464057 0
M  V30 15 C 1.967939 3.414887 1.848975 0
M  V30 16 C 2.949720 3.410969 2.819370 0
M  V30 17 C 2.596726 3.784365 4.110810 0
M  V30 18 C 1.292010 4.148143 4.402399 0
M  V30 19 C 0.312402 4.147824 3.415541 0
M  V30 20 C -1.107063 4.542987 3.730004 0
M  V30 21 F -1.295385 5.887027 3.590529 0
M  V30 22 F -1.420804 4.127500 4.986246 0
M  V30 23 F -1.933718 3.878779 2.827786 0
M  V30 24 C 0.649699 3.781313 2.138674 0
M  V30 25 C 0.585690 -0.503101 -1.720718 0
M  V30 26 C 0.175056 -1.822900 -1.881815 0
M  V30 27 F -1.135211 -2.068573 -2.150792 0
M  V30 28 N -0.321448 -6.126210 -1.568111 0
M  V30 29 C -1.189787 -6.939306 -0.937665 0
M  V30 30 N -1.945563 -6.539047 0.108599 0
M  V30 31 H -4.688624 -4.951657 1.359909 0
M  V30 32 H -3.832935 -3.487723 0.640771 0
M  V30 33 H -4.140148 -3.607755 2.386723 0
M  V30 34 H -2.178972 -4.897558 2.575481 0
M  V30 35 H -0.767932 -3.388900 0.173450 0
M  V30 36 H 3.213305 -3.225558 -1.381402 0
M  V30 37 H 3.843552 -0.826164 -1.111022 0
M  V30 38 H 2.405753 2.003412 -2.003516 0
M  V30 39 H 2.419518 3.753954 -0.284725 0
M  V30 40 H 3.937515 3.111501 2.492674 0
M  V30 41 H 3.386588 3.774114 4.860059 0
M  V30 42 H 1.028213 4.440502 5.426009 0
M  V30 43 H -0.145005 3.795843 1.403404 0
M  V30 44 H -0.188092 0.273633 -1.822212 0
M  V30 45 H -1.313162 -7.955205 -1.252405 0
M  V30 END ATOM
M  V30 BEGIN BOND
M  V30 1 1 1 2
M  V30 2 1 2 3
M  V30 3 2 3 4
M  V30 4 1 4 5
M  V30 5 1 5 6
M  V30 6 1 6 7
M  V30 7 2 7 8
M  V30 8 1 8 9
M  V30 9 2 9 10
M  V30 10 1 10 11
M  V30 11 1 11 12
M  V30 12 2 12 13
M  V30 13 1 12 14
M  V30 14 1 14 15
M  V30 15 2 15 16
M  V30 16 1 16 17
M  V30 17 2 17 18
M  V30 18 1 18 19
M  V30 19 1 19 20
M  V30 20 1 20 21
M  V30 21 1 20 22
M  V30 22 1 20 23
M  V30 23 2 19 24
M  V30 24 1 10 25
M  V30 25 2 25 26
M  V30 26 1 26 27
M  V30 27 2 5 28
M  V30 28 1 28 29
M  V30 29 2 29 30
M  V30 30 1 30 3
M  V30 31 1 26 7
M  V30 32 1 24 15
M  V30 33 1 1 31
M  V30 34 1 1 32
M  V30 35 1 1 33
M  V30 36 1 2 34
M  V30 37 1 4 35
M  V30 38 1 8 36
M  V30 39 1 9 37
M  V30 40 1 11 38
M  V30 41 1 14 39
M  V30 42 1 16 40
M  V30 43 1 17 41
M  V30 44 1 18 42
M  V30 45 1 24 43
M  V30 46 1 25 44
M  V30 47 1 29 45
M  V30 END BOND
M  V30 END CTAB
M  END
>  <Dataset>  (451) 
ChEMBL_Kinases

>  <Ligand_Instance>  (451) 
nan

>  <PDB_ID>  (451) 
nan

>  <Standardized_SMILES>  (451) 
CNc1cc(Oc2ccc(NC(=O)Nc3cccc(C(F)(F)F)c3)cc2F)ncn1

>  <Name>  (451) 
nan

>  <Pocket>  (451) 
nan

>  <ATP_Site>  (451) 
nan

>  <Peripheral>  (451) 
nan

>  <Num_H_Atoms_ProtBoundConf>  (451) 
nan

>  <Num_Resolved_Atoms>  (451) 
nan

>  <Num_Not_Resolved_Atoms>  (451) 
nan

$$$$
CHEMBL4796957
     RDKit          3D

  0  0  0  0  0  0  0  0  0  0999 V3000
M  V30 BEGIN CTAB
M  V30 COUNTS 57 62 0 0 0
M  V30 BEGIN ATOM
M  V30 1 C 5.337834 -2.193638 -1.459417 0
M  V30 2 C 5.476393 -0.989637 -2.366272 0
M  V30 3 C 4.419805 -0.006811 -2.057556 0
M  V30 4 O 3.644455 -0.332424 -1.132563 0
M  V30 5 N 4.244981 1.228735 -2.723337 0
M  V30 6 C 3.270264 2.227196 -2.500090 0
M  V30 7 C 3.298547 3.354194 -3.290253 0
M  V30 8 N 2.411761 4.351658 -3.147839 0
M  V30 9 C 1.432331 4.326113 -2.226492 0
M  V30 10 C 1.339451 3.220874 -1.391349 0
M  V30 11 C 0.300940 3.089896 -0.344499 0
M  V30 12 C -0.177471 4.217807 0.293415 0
M  V30 13 C -1.145155 4.069958 1.269702 0
M  V30 14 C -1.617060 2.816119 1.593207 0
M  V30 15 N -2.520674 2.330820 2.461150 0
M  V30 16 N -2.607883 1.021698 2.382257 0
M  V30 17 C -1.769765 0.529269 1.455866 0
M  V30 18 C -1.604789 -0.863239 1.108220 0
M  V30 19 C -2.340788 -1.867834 1.731052 0
M  V30 20 C -2.020594 -3.111949 1.238872 0
M  V30 21 C -2.463112 -4.382870 1.529351 0
M  V30 22 C -3.477777 -4.634383 2.537354 0
M  V30 23 C -3.192921 -5.659972 3.422734 0
M  V30 24 C -4.075798 -5.997242 4.412210 0
M  V30 25 C -5.296692 -5.344579 4.592411 0
M  V30 26 C -5.568917 -4.319028 3.697709 0
M  V30 27 F -6.744838 -3.627939 3.804316 0
M  V30 28 C -4.678081 -3.981717 2.702200 0
M  V30 29 N -1.911360 -5.418420 0.832940 0
M  V30 30 C -0.978049 -5.248029 -0.100759 0
M  V30 31 C -0.545114 -3.970479 -0.381598 0
M  V30 32 C -1.057137 -2.887287 0.280778 0
M  V30 33 N -0.865084 -1.575328 0.256152 0
M  V30 34 C -1.165006 1.668324 0.979864 0
M  V30 35 C -0.203732 1.859678 0.015544 0
M  V30 36 C 2.266605 2.212869 -1.563754 0
M  V30 37 H 6.004190 -3.003642 -1.812136 0
M  V30 38 H 4.299007 -2.603390 -1.482429 0
M  V30 39 H 5.617699 -1.969034 -0.410120 0
M  V30 40 H 5.335983 -1.372756 -3.413396 0
M  V30 41 H 6.495973 -0.573512 -2.251434 0
M  V30 42 H 4.962288 1.359006 -3.464363 0
M  V30 43 H 4.020223 3.555197 -4.092477 0
M  V30 44 H 0.699165 5.117357 -2.086057 0
M  V30 45 H 0.179483 5.213410 0.054356 0
M  V30 46 H -1.553719 4.943118 1.803521 0
M  V30 47 H -3.104648 2.887605 3.133731 0
M  V30 48 H -3.081049 -1.751126 2.510418 0
M  V30 49 H -2.293414 -6.274329 3.431688 0
M  V30 50 H -3.904159 -6.788332 5.129968 0
M  V30 51 H -6.035768 -5.559935 5.349807 0
M  V30 52 H -4.889621 -3.193689 2.008882 0
M  V30 53 H -0.526339 -6.058066 -0.665957 0
M  V30 54 H 0.206206 -3.795261 -1.128255 0
M  V30 55 H -0.174723 -1.175028 -0.398889 0
M  V30 56 H 0.214007 1.035555 -0.523562 0
M  V30 57 H 2.175660 1.380697 -0.913732 0
M  V30 END ATOM
M  V30 BEGIN BOND
M  V30 1 1 1 2
M  V30 2 1 2 3
M  V30 3 2 3 4
M  V30 4 1 3 5
M  V30 5 1 5 6
M  V30 6 2 6 7
M  V30 7 1 7 8
M  V30 8 2 8 9
M  V30 9 1 9 10
M  V30 10 1 10 11
M  V30 11 2 11 12
M  V30 12 1 12 13
M  V30 13 2 13 14
M  V30 14 1 14 15
M  V30 15 1 15 16
M  V30 16 2 16 17
M  V30 17 1 17 18
M  V30 18 2 18 19
M  V30 19 1 19 20
M  V30 20 2 20 21
M  V30 21 1 21 22
M  V30 22 2 22 23
M  V30 23 1 23 24
M  V30 24 2 24 25
M  V30 25 1 25 26
M  V30 26 1 26 27
M  V30 27 2 26 28
M  V30 28 1 21 29
M  V30 29 2 29 30
M  V30 30 1 30 31
M  V30 31 2 31 32
M  V30 32 1 32 33
M  V30 33 1 17 34
M  V30 34 2 34 35
M  V30 35 2 10 36
M  V30 36 1 36 6
M  V30 37 1 35 11
M  V30 38 1 34 14
M  V30 39 1 33 18
M  V30 40 1 32 20
M  V30 41 1 28 22
M  V30 42 1 1 37
M  V30 43 1 1 38
M  V30 44 1 1 39
M  V30 45 1 2 40
M  V30 46 1 2 41
M  V30 47 1 5 42
M  V30 48 1 7 43
M  V30 49 1 9 44
M  V30 50 1 12 45
M  V30 51 1 13 46
M  V30 52 1 15 47
M  V30 53 1 19 48
M  V30 54 1 23 49
M  V30 55 1 24 50
M  V30 56 1 25 51
M  V30 57 1 28 52
M  V30 58 1 30 53
M  V30 59 1 31 54
M  V30 60 1 33 55
M  V30 61 1 35 56
M  V30 62 1 36 57
M  V30 END BOND
M  V30 END CTAB
M  END
>  <Dataset>  (452) 
ChEMBL_Kinases

>  <Ligand_Instance>  (452) 
nan

>  <PDB_ID>  (452) 
nan

>  <Standardized_SMILES>  (452) 
CCC(=O)Nc1cncc(-c2ccc3[nH]nc(-c4cc5c(-c6cccc(F)c6)nccc5[nH]4)c3c2)c1

>  <Name>  (452) 
nan

>  <Pocket>  (452) 
nan

>  <ATP_Site>  (452) 
nan

>  <Peripheral>  (452) 
nan

>  <Num_H_Atoms_ProtBoundConf>  (452) 
nan

>  <Num_Resolved_Atoms>  (452) 
nan

>  <Num_Not_Resolved_Atoms>  (452) 
nan

$$$$
CHEMBL3393722
     RDKit          3D

  0  0  0  0  0  0  0  0  0  0999 V3000
M  V30 BEGIN CTAB
M  V30 COUNTS 50 54 0 0 0
M  V30 BEGIN ATOM
M  V30 1 N 0.127423 -1.132365 3.529924 0
M  V30 2 C 0.779638 -2.342408 3.103846 0
M  V30 3 C 1.900869 -2.641623 4.064974 0
M  V30 4 C 3.070932 -3.264668 3.330295 0
M  V30 5 C 3.625251 -2.317861 2.282818 0
M  V30 6 N 2.553604 -1.678885 1.541736 0
M  V30 7 C 2.831674 -0.531290 0.749860 0
M  V30 8 C 4.133108 -0.090512 0.726020 0
M  V30 9 N 4.417345 1.006250 -0.026282 0
M  V30 10 C 3.429622 1.616458 -0.713637 0
M  V30 11 C 2.132173 1.191861 -0.700941 0
M  V30 12 C 1.107126 1.893792 -1.465496 0
M  V30 13 N 1.313521 2.981647 -2.229846 0
M  V30 14 N 0.154876 3.357074 -2.781829 0
M  V30 15 C -0.801967 2.505437 -2.369773 0
M  V30 16 C -2.152621 2.460939 -2.652973 0
M  V30 17 C -2.943977 1.474391 -2.101321 0
M  V30 18 C -2.384303 0.523190 -1.259536 0
M  V30 19 C -3.073917 -0.573768 -0.601446 0
M  V30 20 C -3.555793 -0.197552 0.650204 0
M  V30 21 F -3.415593 1.035920 1.216328 0
M  V30 22 C -4.247193 -1.084415 1.457730 0
M  V30 23 C -4.464686 -2.373223 1.012135 0
M  V30 24 C -3.984863 -2.748521 -0.234661 0
M  V30 25 C -3.304674 -1.866482 -1.022435 0
M  V30 26 F -2.786743 -2.112260 -2.257851 0
M  V30 27 C -1.020277 0.574941 -0.978635 0
M  V30 28 C -0.232868 1.565853 -1.534479 0
M  V30 29 N 1.869448 0.094835 0.056602 0
M  V30 30 C 1.245350 -2.288402 1.677246 0
M  V30 31 H 0.783095 -0.324122 3.493335 0
M  V30 32 H -0.641809 -0.923292 2.852407 0
M  V30 33 H 0.037123 -3.182677 3.175405 0
M  V30 34 H 2.212527 -1.683767 4.529725 0
M  V30 35 H 1.530276 -3.270758 4.877452 0
M  V30 36 H 2.743529 -4.213359 2.872784 0
M  V30 37 H 3.881723 -3.429255 4.069541 0
M  V30 38 H 4.288389 -2.898136 1.629730 0
M  V30 39 H 4.199730 -1.533087 2.822695 0
M  V30 40 H 4.982797 -0.514605 1.241749 0
M  V30 41 H 3.670181 2.501594 -1.318136 0
M  V30 42 H 0.024651 4.180039 -3.427167 0
M  V30 43 H -2.634000 3.186387 -3.307782 0
M  V30 44 H -4.017818 1.356573 -2.264898 0
M  V30 45 H -4.640041 -0.835177 2.438275 0
M  V30 46 H -5.002464 -3.086781 1.623783 0
M  V30 47 H -4.126276 -3.755152 -0.641172 0
M  V30 48 H -0.470285 -0.105876 -0.341081 0
M  V30 49 H 1.276221 -3.351357 1.304824 0
M  V30 50 H 0.481487 -1.796982 1.069216 0
M  V30 END ATOM
M  V30 BEGIN BOND
M  V30 1 1 1 2
M  V30 2 1 2 3
M  V30 3 1 3 4
M  V30 4 1 4 5
M  V30 5 1 5 6
M  V30 6 1 6 7
M  V30 7 2 7 8
M  V30 8 1 8 9
M  V30 9 2 9 10
M  V30 10 1 10 11
M  V30 11 1 11 12
M  V30 12 2 12 13
M  V30 13 1 13 14
M  V30 14 1 14 15
M  V30 15 2 15 16
M  V30 16 1 16 17
M  V30 17 2 17 18
M  V30 18 1 18 19
M  V30 19 2 19 20
M  V30 20 1 20 21
M  V30 21 1 20 22
M  V30 22 2 22 23
M  V30 23 1 23 24
M  V30 24 2 24 25
M  V30 25 1 25 26
M  V30 26 1 18 27
M  V30 27 2 27 28
M  V30 28 2 11 29
M  V30 29 1 6 30
M  V30 30 1 30 2
M  V30 31 1 29 7
M  V30 32 1 28 12
M  V30 33 1 28 15
M  V30 34 1 25 19
M  V30 35 1 1 31
M  V30 36 1 1 32
M  V30 37 1 2 33
M  V30 38 1 3 34
M  V30 39 1 3 35
M  V30 40 1 4 36
M  V30 41 1 4 37
M  V30 42 1 5 38
M  V30 43 1 5 39
M  V30 44 1 8 40
M  V30 45 1 10 41
M  V30 46 1 14 42
M  V30 47 1 16 43
M  V30 48 1 17 44
M  V30 49 1 22 45
M  V30 50 1 23 46
M  V30 51 1 24 47
M  V30 52 1 27 48
M  V30 53 1 30 49
M  V30 54 1 30 50
M  V30 END BOND
M  V30 END CTAB
M  END
>  <Dataset>  (453) 
ChEMBL_Kinases

>  <Ligand_Instance>  (453) 
nan

>  <PDB_ID>  (453) 
nan

>  <Standardized_SMILES>  (453) 
NC1CCCN(c2cncc(-c3n[nH]c4ccc(-c5c(F)cccc5F)cc34)n2)C1

>  <Name>  (453) 
nan

>  <Pocket>  (453) 
nan

>  <ATP_Site>  (453) 
nan

>  <Peripheral>  (453) 
nan

>  <Num_H_Atoms_ProtBoundConf>  (453) 
nan

>  <Num_Resolved_Atoms>  (453) 
nan

>  <Num_Not_Resolved_Atoms>  (453) 
nan

$$$$
CHEMBL4796925
     RDKit          3D

  0  0  0  0  0  0  0  0  0  0999 V3000
M  V30 BEGIN CTAB
M  V30 COUNTS 46 49 0 0 0
M  V30 BEGIN ATOM
M  V30 1 C 2.688351 -2.474594 4.207942 0
M  V30 2 C 3.066131 -1.862554 2.875759 0 CFG=2
M  V30 3 C 3.215054 -2.953005 1.827629 0
M  V30 4 O 3.564219 -2.403676 0.590659 0
M  V30 5 N 4.227821 -1.031749 2.963721 0
M  V30 6 C 5.417789 -1.409108 3.458338 0
M  V30 7 N 6.224464 -0.341419 3.357796 0
M  V30 8 N 5.549783 0.668420 2.815269 0
M  V30 9 C 4.296598 0.250001 2.563035 0
M  V30 10 C 3.279920 1.107740 1.964151 0
M  V30 11 C 3.151895 2.385341 2.463020 0
M  V30 12 C 2.202986 3.269870 1.945272 0
M  V30 13 C 1.393653 2.831023 0.917767 0
M  V30 14 C 1.536700 1.547204 0.430917 0
M  V30 15 N 0.680997 1.135766 -0.629649 0
M  V30 16 C -0.582014 0.522484 -0.627079 0
M  V30 17 O -1.003766 0.313308 0.517876 0
M  V30 18 N -1.228801 0.213078 -1.839633 0
M  V30 19 C -2.508653 -0.408639 -1.762583 0
M  V30 20 C -3.630428 0.386204 -1.722572 0
M  V30 21 C -4.717076 -0.481644 -1.650206 0
M  V30 22 C -6.098912 -0.269781 -1.585177 0
M  V30 23 C -6.975608 -1.325893 -1.519493 0
M  V30 24 C -6.431281 -2.609725 -1.520478 0
M  V30 25 C -5.058092 -2.818933 -1.585126 0
M  V30 26 N -4.232506 -1.756147 -1.648382 0
M  V30 27 N -2.900778 -1.708920 -1.716211 0
M  V30 28 N 2.467060 0.703403 0.950054 0
M  V30 29 H 2.599884 -1.655041 4.931732 0
M  V30 30 H 3.471264 -3.212117 4.489693 0
M  V30 31 H 1.695771 -2.941768 4.085113 0
M  V30 32 H 2.171370 -1.267682 2.557094 0
M  V30 33 H 3.964278 -3.694878 2.172345 0
M  V30 34 H 2.243904 -3.467744 1.680260 0
M  V30 35 H 2.720877 -2.102023 0.139596 0
M  V30 36 H 5.730255 -2.367548 3.871219 0
M  V30 37 H 3.751867 2.797507 3.267369 0
M  V30 38 H 2.072933 4.281393 2.311454 0
M  V30 39 H 0.657037 3.490449 0.502491 0
M  V30 40 H 1.148559 1.366301 -1.543254 0
M  V30 41 H -0.785677 0.431828 -2.775799 0
M  V30 42 H -3.777100 1.457353 -1.737189 0
M  V30 43 H -6.479727 0.737001 -1.586710 0
M  V30 44 H -8.038217 -1.130768 -1.470152 0
M  V30 45 H -7.163815 -3.410220 -1.467278 0
M  V30 46 H -4.690669 -3.836565 -1.582700 0
M  V30 END ATOM
M  V30 BEGIN BOND
M  V30 1 1 1 2
M  V30 2 1 2 3
M  V30 3 1 3 4
M  V30 4 1 2 5
M  V30 5 1 5 6
M  V30 6 2 6 7
M  V30 7 1 7 8
M  V30 8 2 8 9
M  V30 9 1 9 10
M  V30 10 2 10 11
M  V30 11 1 11 12
M  V30 12 2 12 13
M  V30 13 1 13 14
M  V30 14 1 14 15
M  V30 15 1 15 16
M  V30 16 2 16 17
M  V30 17 1 16 18
M  V30 18 1 18 19
M  V30 19 1 19 20
M  V30 20 2 20 21
M  V30 21 1 21 22
M  V30 22 2 22 23
M  V30 23 1 23 24
M  V30 24 2 24 25
M  V30 25 1 25 26
M  V30 26 1 26 27
M  V30 27 2 14 28
M  V30 28 1 9 5
M  V30 29 1 28 10
M  V30 30 2 27 19
M  V30 31 1 26 21
M  V30 32 1 1 29
M  V30 33 1 1 30
M  V30 34 1 1 31
M  V30 35 1 2 32 CFG=3
M  V30 36 1 3 33
M  V30 37 1 3 34
M  V30 38 1 4 35
M  V30 39 1 6 36
M  V30 40 1 11 37
M  V30 41 1 12 38
M  V30 42 1 13 39
M  V30 43 1 15 40
M  V30 44 1 18 41
M  V30 45 1 20 42
M  V30 46 1 22 43
M  V30 47 1 23 44
M  V30 48 1 24 45
M  V30 49 1 25 46
M  V30 END BOND
M  V30 END CTAB
M  END
>  <Dataset>  (454) 
ChEMBL_Kinases

>  <Ligand_Instance>  (454) 
nan

>  <PDB_ID>  (454) 
nan

>  <Standardized_SMILES>  (454) 
C[C@H](CO)n1cnnc1-c1cccc(NC(=O)Nc2cc3ccccn3n2)n1

>  <Name>  (454) 
nan

>  <Pocket>  (454) 
nan

>  <ATP_Site>  (454) 
nan

>  <Peripheral>  (454) 
nan

>  <Num_H_Atoms_ProtBoundConf>  (454) 
nan

>  <Num_Resolved_Atoms>  (454) 
nan

>  <Num_Not_Resolved_Atoms>  (454) 
nan

$$$$
CHEMBL3393721
     RDKit          3D

  0  0  0  0  0  0  0  0  0  0999 V3000
M  V30 BEGIN CTAB
M  V30 COUNTS 48 52 0 0 0
M  V30 BEGIN ATOM
M  V30 1 F 2.964900 -3.720716 0.105984 0
M  V30 2 C 2.382093 -3.428279 -1.098202 0
M  V30 3 C 1.883624 -4.351362 -2.000682 0
M  V30 4 C 1.320732 -3.923412 -3.179364 0
M  V30 5 C 1.258882 -2.571143 -3.450496 0
M  V30 6 C 1.753306 -1.639214 -2.557134 0
M  V30 7 F 1.644077 -0.328194 -2.919344 0
M  V30 8 C 2.312645 -2.080193 -1.384198 0
M  V30 9 C 2.799725 -0.995027 -0.522302 0
M  V30 10 C 4.118246 -0.592296 -0.707423 0
M  V30 11 C 4.658004 0.435646 0.074343 0
M  V30 12 C 3.855916 1.031046 1.021944 0
M  V30 13 N 4.037766 2.011152 1.914643 0
M  V30 14 N 2.957583 2.243929 2.625250 0
M  V30 15 C 1.964461 1.401866 2.229662 0
M  V30 16 C 0.621714 1.361377 2.784474 0
M  V30 17 C 0.285577 2.235087 3.795436 0
M  V30 18 N -0.938659 2.265949 4.366316 0
M  V30 19 C -1.908389 1.407359 3.946712 0
M  V30 20 C -1.579663 0.533386 2.938820 0
M  V30 21 N -2.532251 -0.392129 2.442516 0
M  V30 22 C -3.905390 -0.529999 2.878070 0
M  V30 23 C -4.857273 -0.219289 1.755570 0
M  V30 24 C -4.229992 -0.137097 0.410152 0
M  V30 25 C -2.980486 -0.899217 0.185191 0
M  V30 26 C -2.241436 -1.353792 1.395109 0
M  V30 27 N -0.353860 0.524406 2.388891 0
M  V30 28 C 2.540823 0.650876 1.227960 0
M  V30 29 C 2.039187 -0.364254 0.442028 0
M  V30 30 H 1.977978 -5.397817 -1.697499 0
M  V30 31 H 0.972975 -4.739379 -3.789997 0
M  V30 32 H 0.796349 -2.319146 -4.408274 0
M  V30 33 H 4.767576 -1.052125 -1.452431 0
M  V30 34 H 5.668135 0.800267 -0.011820 0
M  V30 35 H 4.959579 2.516551 2.007585 0
M  V30 36 H 1.019216 2.936530 4.164150 0
M  V30 37 H -2.865406 1.458659 4.419489 0
M  V30 38 H -4.023780 -1.590710 3.195028 0
M  V30 39 H -4.170921 0.081477 3.753565 0
M  V30 40 H -5.604911 -1.038273 1.717620 0
M  V30 41 H -5.441314 0.689156 2.009723 0
M  V30 42 H -4.980457 -0.362805 -0.384698 0
M  V30 43 H -3.977596 0.946863 0.251114 0
M  V30 44 H -2.267950 -0.406747 -0.511970 0
M  V30 45 H -3.276732 -1.841399 -0.365218 0
M  V30 46 H -1.156317 -1.378237 1.169096 0
M  V30 47 H -2.561915 -2.362704 1.750870 0
M  V30 48 H 1.037654 -0.683839 0.568466 0
M  V30 END ATOM
M  V30 BEGIN BOND
M  V30 1 1 1 2
M  V30 2 2 2 3
M  V30 3 1 3 4
M  V30 4 2 4 5
M  V30 5 1 5 6
M  V30 6 1 6 7
M  V30 7 2 6 8
M  V30 8 1 8 9
M  V30 9 2 9 10
M  V30 10 1 10 11
M  V30 11 2 11 12
M  V30 12 1 12 13
M  V30 13 1 13 14
M  V30 14 2 14 15
M  V30 15 1 15 16
M  V30 16 2 16 17
M  V30 17 1 17 18
M  V30 18 2 18 19
M  V30 19 1 19 20
M  V30 20 1 20 21
M  V30 21 1 21 22
M  V30 22 1 22 23
M  V30 23 1 23 24
M  V30 24 1 24 25
M  V30 25 1 25 26
M  V30 26 2 20 27
M  V30 27 1 15 28
M  V30 28 2 28 29
M  V30 29 1 8 2
M  V30 30 1 29 9
M  V30 31 1 28 12
M  V30 32 1 27 16
M  V30 33 1 26 21
M  V30 34 1 3 30
M  V30 35 1 4 31
M  V30 36 1 5 32
M  V30 37 1 10 33
M  V30 38 1 11 34
M  V30 39 1 13 35
M  V30 40 1 17 36
M  V30 41 1 19 37
M  V30 42 1 22 38
M  V30 43 1 22 39
M  V30 44 1 23 40
M  V30 45 1 23 41
M  V30 46 1 24 42
M  V30 47 1 24 43
M  V30 48 1 25 44
M  V30 49 1 25 45
M  V30 50 1 26 46
M  V30 51 1 26 47
M  V30 52 1 29 48
M  V30 END BOND
M  V30 END CTAB
M  END
>  <Dataset>  (455) 
ChEMBL_Kinases

>  <Ligand_Instance>  (455) 
nan

>  <PDB_ID>  (455) 
nan

>  <Standardized_SMILES>  (455) 
Fc1cccc(F)c1-c1ccc2[nH]nc(-c3cncc(N4CCCCC4)n3)c2c1

>  <Name>  (455) 
nan

>  <Pocket>  (455) 
nan

>  <ATP_Site>  (455) 
nan

>  <Peripheral>  (455) 
nan

>  <Num_H_Atoms_ProtBoundConf>  (455) 
nan

>  <Num_Resolved_Atoms>  (455) 
nan

>  <Num_Not_Resolved_Atoms>  (455) 
nan

$$$$
CHEMBL4796832
     RDKit          3D

  0  0  0  0  0  0  0  0  0  0999 V3000
M  V30 BEGIN CTAB
M  V30 COUNTS 47 51 0 0 0
M  V30 BEGIN ATOM
M  V30 1 C 1.570106 -3.143593 2.556231 0
M  V30 2 N 2.619653 -3.775662 1.788587 0
M  V30 3 C 3.860731 -3.854958 2.531296 0
M  V30 4 C 2.801705 -3.189822 0.480275 0
M  V30 5 C 3.156962 -1.759863 0.507136 0
M  V30 6 C 4.514012 -1.429929 0.552702 0
M  V30 7 N 4.877929 -0.116016 0.578650 0
M  V30 8 C 3.961717 0.868555 0.561379 0
M  V30 9 C 2.606974 0.611825 0.516677 0
M  V30 10 C 1.564148 1.613855 0.495946 0
M  V30 11 C 1.830078 2.966875 0.519905 0
M  V30 12 C 0.865674 3.964596 0.501775 0
M  V30 13 C -0.471802 3.559565 0.455797 0
M  V30 14 N -1.599025 4.285712 0.429451 0
M  V30 15 N -2.587547 3.414542 0.388791 0
M  V30 16 C -2.098355 2.152095 0.389197 0
M  V30 17 C -2.897678 0.909194 0.350052 0
M  V30 18 C -4.276115 0.864638 0.306867 0
M  V30 19 C -4.693893 -0.453467 0.278607 0
M  V30 20 C -5.959473 -0.986625 0.233259 0
M  V30 21 N -6.106537 -2.318675 0.213219 0
M  V30 22 C -4.994606 -3.103208 0.238508 0
M  V30 23 C -3.719242 -2.566994 0.284197 0
M  V30 24 C -3.523447 -1.183427 0.306332 0
M  V30 25 N -2.457774 -0.358226 0.348914 0
M  V30 26 C -0.717950 2.202684 0.432409 0
M  V30 27 N 0.260802 1.281048 0.451867 0
M  V30 28 C 2.247184 -0.719436 0.490678 0
M  V30 29 H 2.024298 -2.214369 3.010483 0
M  V30 30 H 1.181825 -3.823975 3.329123 0
M  V30 31 H 0.740191 -2.785507 1.950888 0
M  V30 32 H 4.013935 -2.876815 3.046340 0
M  V30 33 H 3.795268 -4.629281 3.322813 0
M  V30 34 H 4.726425 -4.051071 1.874809 0
M  V30 35 H 3.643552 -3.765542 0.015403 0
M  V30 36 H 1.928496 -3.405319 -0.154514 0
M  V30 37 H 5.335720 -2.132861 0.570027 0
M  V30 38 H 4.278265 1.902109 0.582744 0
M  V30 39 H 2.827425 3.333281 0.554951 0
M  V30 40 H 1.094678 5.010801 0.520999 0
M  V30 41 H -1.626561 5.341380 0.440957 0
M  V30 42 H -4.898930 1.750570 0.297925 0
M  V30 43 H -6.828202 -0.323967 0.214060 0
M  V30 44 H -5.158998 -4.173985 0.221008 0
M  V30 45 H -2.840817 -3.195162 0.304071 0
M  V30 46 H -1.479723 -0.671789 0.375502 0
M  V30 47 H 1.199007 -0.968048 0.455301 0
M  V30 END ATOM
M  V30 BEGIN BOND
M  V30 1 1 1 2
M  V30 2 1 2 3
M  V30 3 1 2 4
M  V30 4 1 4 5
M  V30 5 2 5 6
M  V30 6 1 6 7
M  V30 7 2 7 8
M  V30 8 1 8 9
M  V30 9 1 9 10
M  V30 10 2 10 11
M  V30 11 1 11 12
M  V30 12 2 12 13
M  V30 13 1 13 14
M  V30 14 1 14 15
M  V30 15 2 15 16
M  V30 16 1 16 17
M  V30 17 2 17 18
M  V30 18 1 18 19
M  V30 19 2 19 20
M  V30 20 1 20 21
M  V30 21 2 21 22
M  V30 22 1 22 23
M  V30 23 2 23 24
M  V30 24 1 24 25
M  V30 25 1 16 26
M  V30 26 2 26 27
M  V30 27 2 9 28
M  V30 28 1 28 5
M  V30 29 1 27 10
M  V30 30 1 26 13
M  V30 31 1 25 17
M  V30 32 1 24 19
M  V30 33 1 1 29
M  V30 34 1 1 30
M  V30 35 1 1 31
M  V30 36 1 3 32
M  V30 37 1 3 33
M  V30 38 1 3 34
M  V30 39 1 4 35
M  V30 40 1 4 36
M  V30 41 1 6 37
M  V30 42 1 8 38
M  V30 43 1 11 39
M  V30 44 1 12 40
M  V30 45 1 14 41
M  V30 46 1 18 42
M  V30 47 1 20 43
M  V30 48 1 22 44
M  V30 49 1 23 45
M  V30 50 1 25 46
M  V30 51 1 28 47
M  V30 END BOND
M  V30 END CTAB
M  END
>  <Dataset>  (456) 
ChEMBL_Kinases

>  <Ligand_Instance>  (456) 
nan

>  <PDB_ID>  (456) 
nan

>  <Standardized_SMILES>  (456) 
CN(C)Cc1cncc(-c2ccc3[nH]nc(-c4cc5cnccc5[nH]4)c3n2)c1

>  <Name>  (456) 
nan

>  <Pocket>  (456) 
nan

>  <ATP_Site>  (456) 
nan

>  <Peripheral>  (456) 
nan

>  <Num_H_Atoms_ProtBoundConf>  (456) 
nan

>  <Num_Resolved_Atoms>  (456) 
nan

>  <Num_Not_Resolved_Atoms>  (456) 
nan

$$$$
CHEMBL4796795
     RDKit          3D

  0  0  0  0  0  0  0  0  0  0999 V3000
M  V30 BEGIN CTAB
M  V30 COUNTS 57 62 0 0 0
M  V30 BEGIN ATOM
M  V30 1 C 1.445496 -4.018068 3.424495 0
M  V30 2 C 2.798482 -3.598054 2.894559 0
M  V30 3 C 2.685728 -2.278642 2.225289 0
M  V30 4 O 1.544413 -1.758641 2.216180 0
M  V30 5 N 3.766553 -1.598702 1.615609 0
M  V30 6 C 3.771392 -0.348086 0.955407 0
M  V30 7 C 4.963085 0.110983 0.442350 0
M  V30 8 N 5.068860 1.284421 -0.198790 0
M  V30 9 C 4.019855 2.102850 -0.390201 0
M  V30 10 C 2.794723 1.701279 0.100024 0
M  V30 11 C 1.588216 2.537702 -0.062441 0
M  V30 12 C 1.669294 3.920897 -0.082983 0
M  V30 13 C 0.526344 4.688303 -0.236219 0
M  V30 14 C -0.690064 4.051693 -0.367691 0
M  V30 15 N -1.942669 4.472078 -0.526333 0
M  V30 16 N -2.769317 3.446671 -0.602792 0
M  V30 17 C -2.120894 2.275645 -0.499945 0
M  V30 18 C -2.750203 0.977063 -0.546460 0
M  V30 19 C -2.349836 -0.327599 -0.472046 0
M  V30 20 C -3.397985 -1.211551 -0.578121 0
M  V30 21 C -3.451944 -2.577517 -0.554178 0
M  V30 22 C -2.270643 -3.394959 -0.407257 0
M  V30 23 C -1.097477 -3.248508 -1.104926 0
M  V30 24 C -0.005763 -4.051556 -0.919779 0
M  V30 25 C -0.027078 -5.077813 0.002130 0
M  V30 26 C -1.189463 -5.270727 0.735593 0
M  V30 27 F -1.182677 -6.273945 1.623453 0
M  V30 28 C -2.268581 -4.433305 0.513703 0
M  V30 29 C -4.682395 -3.168390 -0.684712 0
M  V30 30 N -5.786082 -2.411767 -0.830592 0
M  V30 31 C -5.717076 -1.066832 -0.852659 0
M  V30 32 C -4.503324 -0.409191 -0.725408 0
M  V30 33 N -4.080732 0.863644 -0.701751 0
M  V30 34 C -0.820485 2.678427 -0.353374 0
M  V30 35 C 0.343647 1.961969 -0.198641 0
M  V30 36 C 2.707987 0.491762 0.755869 0
M  V30 37 H 1.381300 -5.094005 3.579656 0
M  V30 38 H 0.653693 -3.744300 2.672456 0
M  V30 39 H 1.182443 -3.468295 4.354086 0
M  V30 40 H 3.112602 -4.363992 2.133857 0
M  V30 41 H 3.505037 -3.567441 3.763916 0
M  V30 42 H 4.645810 -2.143291 1.697439 0
M  V30 43 H 5.901182 -0.430367 0.513476 0
M  V30 44 H 4.070485 3.060608 -0.905238 0
M  V30 45 H 2.642340 4.375798 0.023364 0
M  V30 46 H 0.569642 5.784325 -0.254999 0
M  V30 47 H -2.291914 5.456825 -0.589568 0
M  V30 48 H -1.335487 -0.641132 -0.343378 0
M  V30 49 H -1.027518 -2.474126 -1.832005 0
M  V30 50 H 0.896975 -3.885624 -1.504845 0
M  V30 51 H 0.830580 -5.708944 0.147919 0
M  V30 52 H -3.118756 -4.670331 1.135128 0
M  V30 53 H -4.794173 -4.262499 -0.673194 0
M  V30 54 H -6.596346 -0.478927 -0.969059 0
M  V30 55 H -4.823208 1.592220 -0.804825 0
M  V30 56 H 0.317701 0.890303 -0.178265 0
M  V30 57 H 1.750243 0.217909 1.117803 0
M  V30 END ATOM
M  V30 BEGIN BOND
M  V30 1 1 1 2
M  V30 2 1 2 3
M  V30 3 2 3 4
M  V30 4 1 3 5
M  V30 5 1 5 6
M  V30 6 2 6 7
M  V30 7 1 7 8
M  V30 8 2 8 9
M  V30 9 1 9 10
M  V30 10 1 10 11
M  V30 11 2 11 12
M  V30 12 1 12 13
M  V30 13 2 13 14
M  V30 14 1 14 15
M  V30 15 1 15 16
M  V30 16 2 16 17
M  V30 17 1 17 18
M  V30 18 2 18 19
M  V30 19 1 19 20
M  V30 20 2 20 21
M  V30 21 1 21 22
M  V30 22 2 22 23
M  V30 23 1 23 24
M  V30 24 2 24 25
M  V30 25 1 25 26
M  V30 26 1 26 27
M  V30 27 2 26 28
M  V30 28 1 21 29
M  V30 29 2 29 30
M  V30 30 1 30 31
M  V30 31 2 31 32
M  V30 32 1 32 33
M  V30 33 1 17 34
M  V30 34 2 34 35
M  V30 35 2 10 36
M  V30 36 1 36 6
M  V30 37 1 35 11
M  V30 38 1 34 14
M  V30 39 1 33 18
M  V30 40 1 32 20
M  V30 41 1 28 22
M  V30 42 1 1 37
M  V30 43 1 1 38
M  V30 44 1 1 39
M  V30 45 1 2 40
M  V30 46 1 2 41
M  V30 47 1 5 42
M  V30 48 1 7 43
M  V30 49 1 9 44
M  V30 50 1 12 45
M  V30 51 1 13 46
M  V30 52 1 15 47
M  V30 53 1 19 48
M  V30 54 1 23 49
M  V30 55 1 24 50
M  V30 56 1 25 51
M  V30 57 1 28 52
M  V30 58 1 29 53
M  V30 59 1 31 54
M  V30 60 1 33 55
M  V30 61 1 35 56
M  V30 62 1 36 57
M  V30 END BOND
M  V30 END CTAB
M  END
>  <Dataset>  (457) 
ChEMBL_Kinases

>  <Ligand_Instance>  (457) 
nan

>  <PDB_ID>  (457) 
nan

>  <Standardized_SMILES>  (457) 
CCC(=O)Nc1cncc(-c2ccc3[nH]nc(-c4cc5c(-c6cccc(F)c6)cncc5[nH]4)c3c2)c1

>  <Name>  (457) 
nan

>  <Pocket>  (457) 
nan

>  <ATP_Site>  (457) 
nan

>  <Peripheral>  (457) 
nan

>  <Num_H_Atoms_ProtBoundConf>  (457) 
nan

>  <Num_Resolved_Atoms>  (457) 
nan

>  <Num_Not_Resolved_Atoms>  (457) 
nan

$$$$
CHEMBL4796752
     RDKit          3D

  0  0  0  0  0  0  0  0  0  0999 V3000
M  V30 BEGIN CTAB
M  V30 COUNTS 70 75 0 0 0
M  V30 BEGIN ATOM
M  V30 1 C -4.241507 -5.059532 -2.868518 0
M  V30 2 C -3.910046 -3.642088 -3.345452 0
M  V30 3 C -2.442628 -3.456399 -3.139916 0
M  V30 4 C -1.966876 -2.115838 -3.560676 0
M  V30 5 O -2.558400 -1.114959 -4.055941 0
M  V30 6 N -0.567019 -2.016869 -3.330689 0
M  V30 7 C 0.251630 -0.885852 -3.606413 0
M  V30 8 C 0.805283 -0.853514 -4.854913 0
M  V30 9 N 1.592267 0.224581 -5.128546 0
M  V30 10 C 1.780211 1.183319 -4.173852 0
M  V30 11 C 1.212014 1.148595 -2.894669 0
M  V30 12 C 1.534534 2.265893 -2.015968 0
M  V30 13 C 1.737034 3.477698 -2.639774 0
M  V30 14 N 2.047798 4.574930 -1.888055 0
M  V30 15 C 2.155557 4.476429 -0.553166 0
M  V30 16 N 2.440997 5.346941 0.412040 0
M  V30 17 N 2.425151 4.745767 1.579699 0
M  V30 18 C 2.129178 3.438758 1.473419 0
M  V30 19 C 2.040436 2.514223 2.580616 0
M  V30 20 C 1.765381 1.199743 2.758989 0
M  V30 21 C 1.815751 0.815918 4.081479 0
M  V30 22 C 1.627663 -0.356267 4.762554 0
M  V30 23 C 1.262096 -1.557378 4.027267 0
M  V30 24 C 1.891253 -2.799038 4.174098 0
M  V30 25 C 1.459275 -3.893503 3.433933 0
M  V30 26 F 2.077028 -5.091710 3.584908 0
M  V30 27 C 0.422510 -3.806399 2.548827 0
M  V30 28 C -0.234869 -2.619205 2.359482 0
M  V30 29 C -1.389688 -2.404699 1.418220 0
M  V30 30 N -2.606225 -2.674246 2.187706 0
M  V30 31 S -4.008469 -2.451832 1.184483 0
M  V30 32 C -4.072889 -0.771733 0.631215 0
M  V30 33 O -3.999509 -3.372263 0.022793 0
M  V30 34 O -5.231005 -2.710306 2.015547 0
M  V30 35 C 0.210773 -1.531230 3.109510 0
M  V30 36 C 1.752195 -0.452255 6.130889 0
M  V30 37 N 2.073186 0.690601 6.764022 0
M  V30 38 C 2.261746 1.847350 6.125190 0
M  V30 39 C 2.143177 1.970175 4.754126 0
M  V30 40 N 2.264067 2.932185 3.844902 0
M  V30 41 C 1.963103 3.289202 0.121944 0
M  V30 42 C 1.652331 2.198973 -0.645962 0
M  V30 43 C 0.421470 0.064758 -2.621382 0
M  V30 44 H -5.208343 -5.092663 -2.325147 0
M  V30 45 H -4.340384 -5.739618 -3.750332 0
M  V30 46 H -3.449877 -5.449682 -2.174991 0
M  V30 47 H -4.216537 -3.573507 -4.398288 0
M  V30 48 H -4.486844 -2.942927 -2.722261 0
M  V30 49 H -2.221978 -3.581504 -2.060030 0
M  V30 50 H -1.910631 -4.296445 -3.637155 0
M  V30 51 H 0.114618 -2.707635 -2.936050 0
M  V30 52 H 0.643620 -1.618635 -5.589877 0
M  V30 53 H 2.423083 1.977734 -4.523002 0
M  V30 54 H 1.681557 3.693790 -3.697534 0
M  V30 55 H 2.656306 6.367197 0.336694 0
M  V30 56 H 1.533856 0.516263 1.963002 0
M  V30 57 H 2.707368 -2.855283 4.875064 0
M  V30 58 H 0.050767 -4.627821 1.951156 0
M  V30 59 H -1.314100 -3.153913 0.627407 0
M  V30 60 H -1.406070 -1.388266 1.019462 0
M  V30 61 H -2.592487 -3.643366 2.574759 0
M  V30 62 H -3.239227 -0.593878 -0.085911 0
M  V30 63 H -5.034630 -0.560482 0.153046 0
M  V30 64 H -3.896847 -0.101695 1.505608 0
M  V30 65 H -0.321935 -0.580686 2.959396 0
M  V30 66 H 1.612211 -1.363360 6.713588 0
M  V30 67 H 2.517744 2.733736 6.683784 0
M  V30 68 H 2.516683 3.893794 4.214792 0
M  V30 69 H 1.491208 1.247960 -0.178773 0
M  V30 70 H -0.013324 0.037644 -1.643866 0
M  V30 END ATOM
M  V30 BEGIN BOND
M  V30 1 1 1 2
M  V30 2 1 2 3
M  V30 3 1 3 4
M  V30 4 2 4 5
M  V30 5 1 4 6
M  V30 6 1 6 7
M  V30 7 2 7 8
M  V30 8 1 8 9
M  V30 9 2 9 10
M  V30 10 1 10 11
M  V30 11 1 11 12
M  V30 12 2 12 13
M  V30 13 1 13 14
M  V30 14 2 14 15
M  V30 15 1 15 16
M  V30 16 1 16 17
M  V30 17 2 17 18
M  V30 18 1 18 19
M  V30 19 2 19 20
M  V30 20 1 20 21
M  V30 21 2 21 22
M  V30 22 1 22 23
M  V30 23 2 23 24
M  V30 24 1 24 25
M  V30 25 1 25 26
M  V30 26 2 25 27
M  V30 27 1 27 28
M  V30 28 1 28 29
M  V30 29 1 29 30
M  V30 30 1 30 31
M  V30 31 1 31 32
M  V30 32 2 31 33
M  V30 33 2 31 34
M  V30 34 2 28 35
M  V30 35 1 22 36
M  V30 36 2 36 37
M  V30 37 1 37 38
M  V30 38 2 38 39
M  V30 39 1 39 40
M  V30 40 1 18 41
M  V30 41 2 41 42
M  V30 42 2 11 43
M  V30 43 1 43 7
M  V30 44 1 42 12
M  V30 45 1 41 15
M  V30 46 1 40 19
M  V30 47 1 39 21
M  V30 48 1 35 23
M  V30 49 1 1 44
M  V30 50 1 1 45
M  V30 51 1 1 46
M  V30 52 1 2 47
M  V30 53 1 2 48
M  V30 54 1 3 49
M  V30 55 1 3 50
M  V30 56 1 6 51
M  V30 57 1 8 52
M  V30 58 1 10 53
M  V30 59 1 13 54
M  V30 60 1 16 55
M  V30 61 1 20 56
M  V30 62 1 24 57
M  V30 63 1 27 58
M  V30 64 1 29 59
M  V30 65 1 29 60
M  V30 66 1 30 61
M  V30 67 1 32 62
M  V30 68 1 32 63
M  V30 69 1 32 64
M  V30 70 1 35 65
M  V30 71 1 36 66
M  V30 72 1 38 67
M  V30 73 1 40 68
M  V30 74 1 42 69
M  V30 75 1 43 70
M  V30 END BOND
M  V30 END CTAB
M  END
>  <Dataset>  (458) 
ChEMBL_Kinases

>  <Ligand_Instance>  (458) 
nan

>  <PDB_ID>  (458) 
nan

>  <Standardized_SMILES>  (458) 
CCCC(=O)Nc1cncc(-c2cnc3[nH]nc(-c4cc5c(-c6cc(F)cc(CNS(C)(=O)=O)c6)cncc5[nH]4)c3c2)c1

>  <Name>  (458) 
nan

>  <Pocket>  (458) 
nan

>  <ATP_Site>  (458) 
nan

>  <Peripheral>  (458) 
nan

>  <Num_H_Atoms_ProtBoundConf>  (458) 
nan

>  <Num_Resolved_Atoms>  (458) 
nan

>  <Num_Not_Resolved_Atoms>  (458) 
nan

$$$$
CHEMBL3393707
     RDKit          3D

  0  0  0  0  0  0  0  0  0  0999 V3000
M  V30 BEGIN CTAB
M  V30 COUNTS 53 58 0 0 0
M  V30 BEGIN ATOM
M  V30 1 F 3.132436 1.003822 3.653170 0
M  V30 2 C 3.785243 0.328632 2.667610 0
M  V30 3 C 4.620993 -0.723144 2.945022 0
M  V30 4 C 5.287148 -1.416122 1.971952 0
M  V30 5 C 5.100118 -1.027744 0.652919 0
M  V30 6 C 4.257986 0.030895 0.382987 0
M  V30 7 F 4.050965 0.437996 -0.889795 0
M  V30 8 C 3.584605 0.731837 1.362949 0
M  V30 9 C 2.695401 1.850628 1.069782 0
M  V30 10 C 3.311621 3.094140 1.049874 0
M  V30 11 C 2.564953 4.213482 0.783811 0
M  V30 12 C 1.211905 4.032872 0.545769 0
M  V30 13 N 0.282719 4.946878 0.267600 0
M  V30 14 N -0.884831 4.340078 0.112027 0
M  V30 15 C -0.741200 3.014425 0.285898 0
M  V30 16 C -1.768446 1.977991 0.204593 0
M  V30 17 C -3.069143 2.377867 -0.087532 0
M  V30 18 N -4.065742 1.453938 -0.175385 0
M  V30 19 C -3.762692 0.158671 0.025534 0
M  V30 20 C -2.465455 -0.277567 0.321019 0
M  V30 21 O -2.090615 -1.574906 0.535861 0
M  V30 22 C -2.876333 -2.720506 0.512760 0 CFG=2
M  V30 23 C -2.818476 -3.541901 1.755866 0
M  V30 24 N -2.045931 -4.765527 1.553270 0
M  V30 25 C -2.746195 -5.640328 0.612102 0
M  V30 26 C -3.068903 -4.900741 -0.668070 0
M  V30 27 C -2.348257 -3.585822 -0.635064 0
M  V30 28 C -1.621195 -3.005384 -1.754156 0
M  V30 29 C -0.824665 -3.665949 -0.680778 0
M  V30 30 N -1.514445 0.671824 0.397366 0
M  V30 31 C 0.596305 2.801919 0.564407 0
M  V30 32 C 1.346008 1.677303 0.831632 0
M  V30 33 H 4.774586 -1.033978 3.961601 0
M  V30 34 H 5.945467 -2.245644 2.199053 0
M  V30 35 H 5.619754 -1.563796 -0.143201 0
M  V30 36 H 4.369531 3.234524 1.236082 0
M  V30 37 H 3.031392 5.202750 0.763444 0
M  V30 38 H 0.308495 5.990564 0.157189 0
M  V30 39 H -3.345181 3.428481 -0.256266 0
M  V30 40 H -4.529449 -0.601688 -0.036583 0
M  V30 41 H -3.948351 -2.530111 0.287175 0
M  V30 42 H -2.396906 -3.003885 2.627292 0
M  V30 43 H -3.820984 -3.886086 2.083797 0
M  V30 44 H -1.902922 -5.268202 2.434183 0
M  V30 45 H -2.060790 -6.466073 0.339979 0
M  V30 46 H -3.670116 -6.059061 1.058495 0
M  V30 47 H -4.164925 -4.648704 -0.630045 0
M  V30 48 H -2.801175 -5.447238 -1.572014 0
M  V30 49 H -1.565291 -1.898754 -1.842671 0
M  V30 50 H -1.664699 -3.512040 -2.735465 0
M  V30 51 H -0.389682 -4.680008 -0.853255 0
M  V30 52 H -0.223350 -3.020392 -0.042138 0
M  V30 53 H 0.904780 0.695800 0.855956 0
M  V30 END ATOM
M  V30 BEGIN BOND
M  V30 1 1 1 2
M  V30 2 2 2 3
M  V30 3 1 3 4
M  V30 4 2 4 5
M  V30 5 1 5 6
M  V30 6 1 6 7
M  V30 7 2 6 8
M  V30 8 1 8 9
M  V30 9 2 9 10
M  V30 10 1 10 11
M  V30 11 2 11 12
M  V30 12 1 12 13
M  V30 13 1 13 14
M  V30 14 2 14 15
M  V30 15 1 15 16
M  V30 16 2 16 17
M  V30 17 1 17 18
M  V30 18 2 18 19
M  V30 19 1 19 20
M  V30 20 1 20 21
M  V30 21 1 21 22
M  V30 22 1 22 23
M  V30 23 1 23 24
M  V30 24 1 24 25
M  V30 25 1 25 26
M  V30 26 1 26 27
M  V30 27 1 27 28
M  V30 28 1 28 29
M  V30 29 2 20 30
M  V30 30 1 15 31
M  V30 31 2 31 32
M  V30 32 1 8 2
M  V30 33 1 32 9
M  V30 34 1 31 12
M  V30 35 1 30 16
M  V30 36 1 27 22
M  V30 37 1 29 27
M  V30 38 1 3 33
M  V30 39 1 4 34
M  V30 40 1 5 35
M  V30 41 1 10 36
M  V30 42 1 11 37
M  V30 43 1 13 38
M  V30 44 1 17 39
M  V30 45 1 19 40
M  V30 46 1 22 41 CFG=3
M  V30 47 1 23 42
M  V30 48 1 23 43
M  V30 49 1 24 44
M  V30 50 1 25 45
M  V30 51 1 25 46
M  V30 52 1 26 47
M  V30 53 1 26 48
M  V30 54 1 28 49
M  V30 55 1 28 50
M  V30 56 1 29 51
M  V30 57 1 29 52
M  V30 58 1 32 53
M  V30 END BOND
M  V30 END CTAB
M  END
>  <Dataset>  (459) 
ChEMBL_Kinases

>  <Ligand_Instance>  (459) 
nan

>  <PDB_ID>  (459) 
nan

>  <Standardized_SMILES>  (459) 
Fc1cccc(F)c1-c1ccc2[nH]nc(-c3cncc(O[C@@H]4CNCCC45CC5)n3)c2c1

>  <Name>  (459) 
nan

>  <Pocket>  (459) 
nan

>  <ATP_Site>  (459) 
nan

>  <Peripheral>  (459) 
nan

>  <Num_H_Atoms_ProtBoundConf>  (459) 
nan

>  <Num_Resolved_Atoms>  (459) 
nan

>  <Num_Not_Resolved_Atoms>  (459) 
nan

$$$$
CHEMBL3393706
     RDKit          3D

  0  0  0  0  0  0  0  0  0  0999 V3000
M  V30 BEGIN CTAB
M  V30 COUNTS 53 58 0 0 0
M  V30 BEGIN ATOM
M  V30 1 F 4.247781 0.100566 0.843379 0
M  V30 2 C 3.899525 -0.014789 -0.478041 0
M  V30 3 C 4.439656 -1.085925 -1.140002 0
M  V30 4 C 4.149623 -1.296489 -2.488569 0
M  V30 5 C 3.309337 -0.399607 -3.127591 0
M  V30 6 C 2.764610 0.674049 -2.473900 0
M  V30 7 F 1.935356 1.589955 -3.037319 0
M  V30 8 C 3.060321 0.870103 -1.139353 0
M  V30 9 C 2.565707 1.962267 -0.290962 0
M  V30 10 C 3.232660 3.175390 -0.154095 0
M  V30 11 C 2.720567 4.176045 0.661894 0
M  V30 12 C 1.535221 3.973294 1.349796 0
M  V30 13 N 0.809652 4.749122 2.199987 0
M  V30 14 N -0.265769 4.077321 2.591489 0
M  V30 15 C -0.271868 2.853812 2.012209 0
M  V30 16 C -1.251368 1.780751 2.149041 0
M  V30 17 C -2.354360 1.995355 2.982319 0
M  V30 18 N -3.290081 1.029391 3.141395 0
M  V30 19 C -3.151268 -0.137580 2.492592 0
M  V30 20 C -2.065492 -0.387886 1.653689 0
M  V30 21 O -1.774566 -1.500060 0.930031 0
M  V30 22 C -2.471277 -2.696632 0.820540 0 CFG=1
M  V30 23 C -2.981362 -2.899167 -0.559606 0
M  V30 24 N -3.446735 -4.193735 -0.902810 0
M  V30 25 C -3.616590 -5.018351 0.264272 0
M  V30 26 C -2.197569 -5.195035 0.817961 0
M  V30 27 C -1.739509 -3.889705 1.379177 0
M  V30 28 C -0.354692 -3.761816 1.816761 0
M  V30 29 C -1.394946 -3.881803 2.868206 0
M  V30 30 N -1.150898 0.596564 1.517443 0
M  V30 31 C 0.861263 2.779402 1.226726 0
M  V30 32 C 1.383796 1.790419 0.409374 0
M  V30 33 H 5.098679 -1.790413 -0.641085 0
M  V30 34 H 4.570264 -2.140720 -3.025759 0
M  V30 35 H 3.040904 -0.503170 -4.177533 0
M  V30 36 H 4.164879 3.277553 -0.722109 0
M  V30 37 H 3.264159 5.111439 0.747956 0
M  V30 38 H 1.106553 5.731346 2.471741 0
M  V30 39 H -2.533874 2.908534 3.536905 0
M  V30 40 H -3.842554 -0.954072 2.560901 0
M  V30 41 H -3.386960 -2.612612 1.467599 0
M  V30 42 H -3.806692 -2.177162 -0.783280 0
M  V30 43 H -2.180766 -2.622827 -1.294073 0
M  V30 44 H -3.023342 -4.658688 -1.710357 0
M  V30 45 H -4.259171 -4.489625 0.982114 0
M  V30 46 H -4.026839 -6.010989 0.044251 0
M  V30 47 H -2.272063 -5.945461 1.621139 0
M  V30 48 H -1.581337 -5.583275 0.002531 0
M  V30 49 H 0.196215 -2.804655 1.766314 0
M  V30 50 H 0.329449 -4.658757 1.770151 0
M  V30 51 H -1.568043 -4.801061 3.434032 0
M  V30 52 H -1.718574 -2.945702 3.389029 0
M  V30 53 H 0.878455 0.841107 0.291102 0
M  V30 END ATOM
M  V30 BEGIN BOND
M  V30 1 1 1 2
M  V30 2 2 2 3
M  V30 3 1 3 4
M  V30 4 2 4 5
M  V30 5 1 5 6
M  V30 6 1 6 7
M  V30 7 2 6 8
M  V30 8 1 8 9
M  V30 9 2 9 10
M  V30 10 1 10 11
M  V30 11 2 11 12
M  V30 12 1 12 13
M  V30 13 1 13 14
M  V30 14 2 14 15
M  V30 15 1 15 16
M  V30 16 2 16 17
M  V30 17 1 17 18
M  V30 18 2 18 19
M  V30 19 1 19 20
M  V30 20 1 20 21
M  V30 21 1 21 22
M  V30 22 1 22 23
M  V30 23 1 23 24
M  V30 24 1 24 25
M  V30 25 1 25 26
M  V30 26 1 26 27
M  V30 27 1 27 28
M  V30 28 1 28 29
M  V30 29 2 20 30
M  V30 30 1 15 31
M  V30 31 2 31 32
M  V30 32 1 8 2
M  V30 33 1 32 9
M  V30 34 1 31 12
M  V30 35 1 30 16
M  V30 36 1 27 22
M  V30 37 1 29 27
M  V30 38 1 3 33
M  V30 39 1 4 34
M  V30 40 1 5 35
M  V30 41 1 10 36
M  V30 42 1 11 37
M  V30 43 1 13 38
M  V30 44 1 17 39
M  V30 45 1 19 40
M  V30 46 1 22 41 CFG=1
M  V30 47 1 23 42
M  V30 48 1 23 43
M  V30 49 1 24 44
M  V30 50 1 25 45
M  V30 51 1 25 46
M  V30 52 1 26 47
M  V30 53 1 26 48
M  V30 54 1 28 49
M  V30 55 1 28 50
M  V30 56 1 29 51
M  V30 57 1 29 52
M  V30 58 1 32 53
M  V30 END BOND
M  V30 END CTAB
M  END
>  <Dataset>  (460) 
ChEMBL_Kinases

>  <Ligand_Instance>  (460) 
nan

>  <PDB_ID>  (460) 
nan

>  <Standardized_SMILES>  (460) 
Fc1cccc(F)c1-c1ccc2[nH]nc(-c3cncc(O[C@H]4CNCCC45CC5)n3)c2c1

>  <Name>  (460) 
nan

>  <Pocket>  (460) 
nan

>  <ATP_Site>  (460) 
nan

>  <Peripheral>  (460) 
nan

>  <Num_H_Atoms_ProtBoundConf>  (460) 
nan

>  <Num_Resolved_Atoms>  (460) 
nan

>  <Num_Not_Resolved_Atoms>  (460) 
nan

$$$$
CHEMBL3393705
     RDKit          3D

  0  0  0  0  0  0  0  0  0  0999 V3000
M  V30 BEGIN CTAB
M  V30 COUNTS 55 59 0 0 0
M  V30 BEGIN ATOM
M  V30 1 C 1.764960 1.395341 3.151851 0
M  V30 2 C 2.164229 0.131804 2.409127 0
M  V30 3 C 1.266832 -0.979959 2.895265 0
M  V30 4 C 3.615485 -0.138075 2.774537 0
M  V30 5 C 4.099660 -1.423577 2.118382 0
M  V30 6 N 3.218715 -1.755457 0.994474 0
M  V30 7 C 3.077372 -0.513577 0.239358 0
M  V30 8 C 1.979583 0.303919 0.911467 0
M  V30 9 O 1.996477 1.645615 0.525193 0
M  V30 10 C 0.958074 2.270890 -0.150573 0
M  V30 11 C 1.124331 3.614781 -0.466671 0
M  V30 12 N 0.124312 4.217050 -1.117499 0
M  V30 13 C -0.996011 3.540377 -1.449541 0
M  V30 14 C -1.174161 2.207622 -1.142351 0
M  V30 15 C -2.407839 1.543544 -1.531797 0
M  V30 16 N -3.446417 2.091950 -2.185084 0
M  V30 17 N -4.403893 1.191688 -2.374240 0
M  V30 18 C -4.010190 0.009527 -1.840297 0
M  V30 19 C -4.716422 -1.184416 -1.824098 0
M  V30 20 C -4.052748 -2.236802 -1.200360 0
M  V30 21 C -2.785144 -2.051753 -0.654078 0
M  V30 22 C -2.176303 -3.222192 -0.021621 0
M  V30 23 C -2.380703 -3.470020 1.315772 0
M  V30 24 F -3.145225 -2.637191 2.061993 0
M  V30 25 C -1.790077 -4.594193 1.902024 0
M  V30 26 C -1.013928 -5.411208 1.075555 0
M  V30 27 C -0.804954 -5.163277 -0.278602 0
M  V30 28 C -1.406677 -4.039671 -0.823409 0
M  V30 29 F -1.196948 -3.808177 -2.140474 0
M  V30 30 C -2.127717 -0.839081 -0.698908 0
M  V30 31 C -2.755427 0.227240 -1.309699 0
M  V30 32 N -0.174238 1.615294 -0.494488 0
M  V30 33 H 1.694552 1.168278 4.222825 0
M  V30 34 H 0.801288 1.770579 2.725057 0
M  V30 35 H 2.550613 2.188576 3.045176 0
M  V30 36 H 1.133756 -1.784549 2.144020 0
M  V30 37 H 1.624045 -1.385429 3.870649 0
M  V30 38 H 0.254316 -0.533220 3.040902 0
M  V30 39 H 3.641319 -0.300399 3.860922 0
M  V30 40 H 4.222542 0.738201 2.529573 0
M  V30 41 H 4.132422 -2.257704 2.844534 0
M  V30 42 H 5.131514 -1.238491 1.774767 0
M  V30 43 H 3.680100 -2.503635 0.433361 0
M  V30 44 H 2.752930 -0.731682 -0.780388 0
M  V30 45 H 4.015542 0.063923 0.221211 0
M  V30 46 H 1.012641 -0.158872 0.589194 0
M  V30 47 H 2.038940 4.115328 -0.180376 0
M  V30 48 H -1.792224 4.050526 -1.976717 0
M  V30 49 H -5.301643 1.427381 -2.868896 0
M  V30 50 H -5.686928 -1.257397 -2.262541 0
M  V30 51 H -4.551624 -3.198637 -1.154112 0
M  V30 52 H -1.919492 -4.833176 2.947329 0
M  V30 53 H -0.563244 -6.283436 1.557753 0
M  V30 54 H -0.193922 -5.831253 -0.869360 0
M  V30 55 H -1.157369 -0.703863 -0.278843 0
M  V30 END ATOM
M  V30 BEGIN BOND
M  V30 1 1 1 2
M  V30 2 1 2 3
M  V30 3 1 2 4
M  V30 4 1 4 5
M  V30 5 1 5 6
M  V30 6 1 6 7
M  V30 7 1 7 8
M  V30 8 1 8 9
M  V30 9 1 9 10
M  V30 10 2 10 11
M  V30 11 1 11 12
M  V30 12 2 12 13
M  V30 13 1 13 14
M  V30 14 1 14 15
M  V30 15 2 15 16
M  V30 16 1 16 17
M  V30 17 1 17 18
M  V30 18 2 18 19
M  V30 19 1 19 20
M  V30 20 2 20 21
M  V30 21 1 21 22
M  V30 22 2 22 23
M  V30 23 1 23 24
M  V30 24 1 23 25
M  V30 25 2 25 26
M  V30 26 1 26 27
M  V30 27 2 27 28
M  V30 28 1 28 29
M  V30 29 1 21 30
M  V30 30 2 30 31
M  V30 31 2 14 32
M  V30 32 1 8 2
M  V30 33 1 32 10
M  V30 34 1 31 15
M  V30 35 1 31 18
M  V30 36 1 28 22
M  V30 37 1 1 33
M  V30 38 1 1 34
M  V30 39 1 1 35
M  V30 40 1 3 36
M  V30 41 1 3 37
M  V30 42 1 3 38
M  V30 43 1 4 39
M  V30 44 1 4 40
M  V30 45 1 5 41
M  V30 46 1 5 42
M  V30 47 1 6 43
M  V30 48 1 7 44
M  V30 49 1 7 45
M  V30 50 1 8 46
M  V30 51 1 11 47
M  V30 52 1 13 48
M  V30 53 1 17 49
M  V30 54 1 19 50
M  V30 55 1 20 51
M  V30 56 1 25 52
M  V30 57 1 26 53
M  V30 58 1 27 54
M  V30 59 1 30 55
M  V30 END BOND
M  V30 END CTAB
M  END
>  <Dataset>  (461) 
ChEMBL_Kinases

>  <Ligand_Instance>  (461) 
nan

>  <PDB_ID>  (461) 
nan

>  <Standardized_SMILES>  (461) 
CC1(C)CCNCC1Oc1cncc(-c2n[nH]c3ccc(-c4c(F)cccc4F)cc23)n1

>  <Name>  (461) 
nan

>  <Pocket>  (461) 
nan

>  <ATP_Site>  (461) 
nan

>  <Peripheral>  (461) 
nan

>  <Num_H_Atoms_ProtBoundConf>  (461) 
nan

>  <Num_Resolved_Atoms>  (461) 
nan

>  <Num_Not_Resolved_Atoms>  (461) 
nan

$$$$
CHEMBL3393704
     RDKit          3D

  0  0  0  0  0  0  0  0  0  0999 V3000
M  V30 BEGIN CTAB
M  V30 COUNTS 53 58 0 0 0
M  V30 BEGIN ATOM
M  V30 1 F 4.226007 0.325989 0.333041 0
M  V30 2 C 3.754222 0.300515 -0.928354 0
M  V30 3 C 4.288484 -0.650529 -1.767255 0
M  V30 4 C 3.848002 -0.726201 -3.065079 0
M  V30 5 C 2.874630 0.168428 -3.475913 0
M  V30 6 C 2.320901 1.136050 -2.648234 0
M  V30 7 F 1.381274 2.012539 -3.014769 0
M  V30 8 C 2.784377 1.190063 -1.341925 0
M  V30 9 C 2.287897 2.156961 -0.369487 0
M  V30 10 C 2.865556 3.400937 -0.200693 0
M  V30 11 C 2.422965 4.338214 0.707844 0
M  V30 12 C 1.348006 3.998274 1.478026 0
M  V30 13 N 0.671220 4.672557 2.450675 0
M  V30 14 N -0.319314 3.907248 2.912205 0
M  V30 15 C -0.323913 2.726862 2.268191 0
M  V30 16 C -1.227771 1.596570 2.452062 0
M  V30 17 C -2.238400 1.704448 3.410628 0
M  V30 18 N -3.083506 0.668696 3.594168 0
M  V30 19 C -2.952311 -0.452710 2.861890 0
M  V30 20 C -1.977338 -0.596091 1.915570 0
M  V30 21 O -1.676671 -1.629620 1.080757 0
M  V30 22 C -2.331802 -2.871185 0.982816 0
M  V30 23 C -2.974553 -3.008459 -0.362895 0
M  V30 24 N -3.407438 -4.316359 -0.710203 0
M  V30 25 C -2.902154 -5.399606 0.054586 0
M  V30 26 C -1.442744 -5.132577 0.356511 0
M  V30 27 C -1.439767 -4.001879 1.353461 0
M  V30 28 C -0.223313 -3.806314 2.133354 0
M  V30 29 C -1.371079 -4.436900 2.835346 0
M  V30 30 N -1.126398 0.458116 1.736970 0
M  V30 31 C 0.721156 2.783103 1.368824 0
M  V30 32 C 1.203300 1.865270 0.435737 0
M  V30 33 H 5.041339 -1.351797 -1.471210 0
M  V30 34 H 4.256776 -1.469711 -3.743873 0
M  V30 35 H 2.485262 0.160476 -4.486607 0
M  V30 36 H 3.714007 3.660443 -0.813450 0
M  V30 37 H 2.927638 5.288146 0.780138 0
M  V30 38 H 0.942430 5.655107 2.748752 0
M  V30 39 H -2.317590 2.622810 3.985174 0
M  V30 40 H -3.589276 -1.310033 2.958066 0
M  V30 41 H -3.159519 -2.865318 1.722447 0
M  V30 42 H -2.233219 -2.688926 -1.125621 0
M  V30 43 H -3.841975 -2.323673 -0.462425 0
M  V30 44 H -4.412107 -4.390535 -0.968502 0
M  V30 45 H -3.063261 -6.342348 -0.496189 0
M  V30 46 H -3.413996 -5.417776 1.036171 0
M  V30 47 H -1.023009 -6.024986 0.844915 0
M  V30 48 H -0.853410 -4.921103 -0.541913 0
M  V30 49 H 0.084412 -2.788690 2.400717 0
M  V30 50 H 0.643262 -4.498005 1.977051 0
M  V30 51 H -1.421310 -5.520517 3.030748 0
M  V30 52 H -1.899789 -3.757490 3.543983 0
M  V30 53 H 0.739873 0.887534 0.311380 0
M  V30 END ATOM
M  V30 BEGIN BOND
M  V30 1 1 1 2
M  V30 2 2 2 3
M  V30 3 1 3 4
M  V30 4 2 4 5
M  V30 5 1 5 6
M  V30 6 1 6 7
M  V30 7 2 6 8
M  V30 8 1 8 9
M  V30 9 2 9 10
M  V30 10 1 10 11
M  V30 11 2 11 12
M  V30 12 1 12 13
M  V30 13 1 13 14
M  V30 14 2 14 15
M  V30 15 1 15 16
M  V30 16 2 16 17
M  V30 17 1 17 18
M  V30 18 2 18 19
M  V30 19 1 19 20
M  V30 20 1 20 21
M  V30 21 1 21 22
M  V30 22 1 22 23
M  V30 23 1 23 24
M  V30 24 1 24 25
M  V30 25 1 25 26
M  V30 26 1 26 27
M  V30 27 1 27 28
M  V30 28 1 28 29
M  V30 29 2 20 30
M  V30 30 1 15 31
M  V30 31 2 31 32
M  V30 32 1 8 2
M  V30 33 1 32 9
M  V30 34 1 31 12
M  V30 35 1 30 16
M  V30 36 1 27 22
M  V30 37 1 29 27
M  V30 38 1 3 33
M  V30 39 1 4 34
M  V30 40 1 5 35
M  V30 41 1 10 36
M  V30 42 1 11 37
M  V30 43 1 13 38
M  V30 44 1 17 39
M  V30 45 1 19 40
M  V30 46 1 22 41
M  V30 47 1 23 42
M  V30 48 1 23 43
M  V30 49 1 24 44
M  V30 50 1 25 45
M  V30 51 1 25 46
M  V30 52 1 26 47
M  V30 53 1 26 48
M  V30 54 1 28 49
M  V30 55 1 28 50
M  V30 56 1 29 51
M  V30 57 1 29 52
M  V30 58 1 32 53
M  V30 END BOND
M  V30 END CTAB
M  END
>  <Dataset>  (462) 
ChEMBL_Kinases

>  <Ligand_Instance>  (462) 
nan

>  <PDB_ID>  (462) 
nan

>  <Standardized_SMILES>  (462) 
Fc1cccc(F)c1-c1ccc2[nH]nc(-c3cncc(OC4CNCCC45CC5)n3)c2c1

>  <Name>  (462) 
nan

>  <Pocket>  (462) 
nan

>  <ATP_Site>  (462) 
nan

>  <Peripheral>  (462) 
nan

>  <Num_H_Atoms_ProtBoundConf>  (462) 
nan

>  <Num_Resolved_Atoms>  (462) 
nan

>  <Num_Not_Resolved_Atoms>  (462) 
nan

$$$$
CHEMBL3393703
     RDKit          3D

  0  0  0  0  0  0  0  0  0  0999 V3000
M  V30 BEGIN CTAB
M  V30 COUNTS 50 54 0 0 0
M  V30 BEGIN ATOM
M  V30 1 C 2.370922 -4.173709 0.785776 0
M  V30 2 C 2.884823 -3.334766 1.684217 0
M  V30 3 C 2.941661 -4.112866 2.972094 0
M  V30 4 C 3.574868 -3.214779 3.989730 0
M  V30 5 N 4.407489 -2.188033 3.394897 0
M  V30 6 C 3.660258 -1.253931 2.604200 0
M  V30 7 C 3.270017 -1.926708 1.291192 0
M  V30 8 O 2.258616 -1.235647 0.637273 0
M  V30 9 C 2.292091 -0.711726 -0.628769 0
M  V30 10 C 3.315572 -0.747542 -1.529585 0
M  V30 11 N 3.199102 -0.178718 -2.756428 0
M  V30 12 C 2.056038 0.445527 -3.125629 0
M  V30 13 C 1.019358 0.486925 -2.225510 0
M  V30 14 C -0.216809 1.165843 -2.634088 0
M  V30 15 N -0.473221 1.775609 -3.819726 0
M  V30 16 N -1.688139 2.271119 -3.818957 0
M  V30 17 C -2.309587 2.026951 -2.650563 0
M  V30 18 C -3.576799 2.353930 -2.205348 0
M  V30 19 C -3.909961 1.945305 -0.928461 0
M  V30 20 C -3.006739 1.238692 -0.135187 0
M  V30 21 C -3.343991 0.797482 1.218419 0
M  V30 22 C -3.174701 1.445996 2.406403 0
M  V30 23 F -2.613776 2.670141 2.295556 0
M  V30 24 C -3.564442 0.847284 3.589199 0
M  V30 25 C -4.133714 -0.412445 3.628333 0
M  V30 26 C -4.296352 -1.052166 2.413666 0
M  V30 27 C -3.916464 -0.478073 1.219787 0
M  V30 28 F -4.139039 -1.226574 0.114992 0
M  V30 29 C -1.734077 0.929350 -0.626807 0
M  V30 30 C -1.377654 1.326117 -1.898238 0
M  V30 31 N 1.160525 -0.088474 -1.006932 0
M  V30 32 H 2.127968 -5.163363 1.170305 0
M  V30 33 H 2.057215 -4.338708 -0.237769 0
M  V30 34 H 1.972357 -4.474738 3.309670 0
M  V30 35 H 3.671712 -4.948618 2.801520 0
M  V30 36 H 4.121636 -3.787854 4.764931 0
M  V30 37 H 2.754111 -2.680144 4.523666 0
M  V30 38 H 4.844151 -1.661289 4.184643 0
M  V30 39 H 2.720524 -1.038838 3.153421 0
M  V30 40 H 4.163747 -0.299116 2.458726 0
M  V30 41 H 4.170686 -2.031005 0.657068 0
M  V30 42 H 4.212321 -1.245919 -1.219230 0
M  V30 43 H 2.000623 0.892403 -4.124169 0
M  V30 44 H -2.102837 2.790186 -4.641159 0
M  V30 45 H -4.266716 2.904815 -2.836991 0
M  V30 46 H -4.905305 2.182618 -0.533391 0
M  V30 47 H -3.405508 1.412033 4.510925 0
M  V30 48 H -4.436501 -0.876468 4.553565 0
M  V30 49 H -4.749371 -2.048151 2.472713 0
M  V30 50 H -0.985165 0.380603 -0.054684 0
M  V30 END ATOM
M  V30 BEGIN BOND
M  V30 1 2 1 2
M  V30 2 1 2 3
M  V30 3 1 3 4
M  V30 4 1 4 5
M  V30 5 1 5 6
M  V30 6 1 6 7
M  V30 7 1 7 8
M  V30 8 1 8 9
M  V30 9 2 9 10
M  V30 10 1 10 11
M  V30 11 2 11 12
M  V30 12 1 12 13
M  V30 13 1 13 14
M  V30 14 2 14 15
M  V30 15 1 15 16
M  V30 16 1 16 17
M  V30 17 2 17 18
M  V30 18 1 18 19
M  V30 19 2 19 20
M  V30 20 1 20 21
M  V30 21 2 21 22
M  V30 22 1 22 23
M  V30 23 1 22 24
M  V30 24 2 24 25
M  V30 25 1 25 26
M  V30 26 2 26 27
M  V30 27 1 27 28
M  V30 28 1 20 29
M  V30 29 2 29 30
M  V30 30 2 13 31
M  V30 31 1 7 2
M  V30 32 1 31 9
M  V30 33 1 30 14
M  V30 34 1 30 17
M  V30 35 1 27 21
M  V30 36 1 1 32
M  V30 37 1 1 33
M  V30 38 1 3 34
M  V30 39 1 3 35
M  V30 40 1 4 36
M  V30 41 1 4 37
M  V30 42 1 5 38
M  V30 43 1 6 39
M  V30 44 1 6 40
M  V30 45 1 7 41
M  V30 46 1 10 42
M  V30 47 1 12 43
M  V30 48 1 16 44
M  V30 49 1 18 45
M  V30 50 1 19 46
M  V30 51 1 24 47
M  V30 52 1 25 48
M  V30 53 1 26 49
M  V30 54 1 29 50
M  V30 END BOND
M  V30 END CTAB
M  END
>  <Dataset>  (463) 
ChEMBL_Kinases

>  <Ligand_Instance>  (463) 
nan

>  <PDB_ID>  (463) 
nan

>  <Standardized_SMILES>  (463) 
C=C1CCNCC1Oc1cncc(-c2n[nH]c3ccc(-c4c(F)cccc4F)cc23)n1

>  <Name>  (463) 
nan

>  <Pocket>  (463) 
nan

>  <ATP_Site>  (463) 
nan

>  <Peripheral>  (463) 
nan

>  <Num_H_Atoms_ProtBoundConf>  (463) 
nan

>  <Num_Resolved_Atoms>  (463) 
nan

>  <Num_Not_Resolved_Atoms>  (463) 
nan

$$$$
CHEMBL3577636
     RDKit          3D

  0  0  0  0  0  0  0  0  0  0999 V3000
M  V30 BEGIN CTAB
M  V30 COUNTS 63 67 0 0 0
M  V30 BEGIN ATOM
M  V30 1 C 8.955976 0.292531 4.698228 0
M  V30 2 O 8.431776 0.484199 3.408977 0
M  V30 3 C 7.068011 0.631944 3.150244 0
M  V30 4 C 6.713394 0.816800 1.807536 0
M  V30 5 C 5.354042 0.968334 1.522125 0
M  V30 6 C 4.362028 0.941238 2.511878 0
M  V30 7 N 3.018756 1.114779 2.090017 0
M  V30 8 C 2.380504 2.383142 1.984599 0
M  V30 9 O 2.753197 3.554836 2.198672 0
M  V30 10 C 1.032699 2.059836 1.523290 0
M  V30 11 C -0.043934 2.823910 1.261591 0
M  V30 12 C -1.283108 2.159336 0.795852 0
M  V30 13 C -2.575486 2.370835 1.213918 0
M  V30 14 C -3.595845 1.641473 0.630680 0
M  V30 15 C -3.354024 0.715609 -0.350947 0
M  V30 16 O -4.394616 -0.031034 -0.945324 0
M  V30 17 C -4.070157 -0.972584 -1.965726 0
M  V30 18 C -5.323322 -1.659942 -2.439529 0
M  V30 19 O -4.950919 -2.478094 -3.340587 0
M  V30 20 N -6.710726 -1.572961 -2.099673 0
M  V30 21 C -7.295961 -2.540433 -2.979185 0
M  V30 22 C -7.474734 -3.877949 -2.624460 0
M  V30 23 C -8.041461 -4.718341 -3.558073 0
M  V30 24 C -8.387885 -4.171527 -4.771481 0
M  V30 25 C -8.223351 -2.860805 -5.145646 0
M  V30 26 C -7.652736 -2.025302 -4.198308 0
M  V30 27 C -2.039251 0.504290 -0.773422 0
M  V30 28 C -1.012348 1.226217 -0.198911 0
M  V30 29 N 1.001264 0.654451 1.401074 0
M  V30 30 C 2.113005 0.089948 1.715665 0
M  V30 31 C 2.208314 -1.349781 1.644450 0
M  V30 32 C 1.085047 -2.113311 1.988789 0
M  V30 33 C 0.945937 -3.485908 1.990982 0
M  V30 34 C 2.088712 -4.173440 1.594177 0
M  V30 35 C 3.240694 -3.483562 1.238199 0
M  V30 36 C 3.284410 -2.115674 1.266932 0
M  V30 37 C 4.755118 0.756201 3.822619 0
M  V30 38 C 6.098916 0.602895 4.138419 0
M  V30 39 H 9.092065 1.297784 5.147659 0
M  V30 40 H 8.334906 -0.366963 5.320747 0
M  V30 41 H 9.996302 -0.112013 4.584786 0
M  V30 42 H 7.455654 0.841831 1.024181 0
M  V30 43 H 5.096254 1.111904 0.470206 0
M  V30 44 H 0.159877 3.892217 1.439642 0
M  V30 45 H -2.671719 3.110122 1.981794 0
M  V30 46 H -4.600310 1.831491 0.981786 0
M  V30 47 H -3.325972 -1.710077 -1.620021 0
M  V30 48 H -3.642445 -0.370182 -2.792087 0
M  V30 49 H -6.805767 -0.854847 -1.350094 0
M  V30 50 H -7.131699 -4.095770 -1.618658 0
M  V30 51 H -8.158103 -5.727211 -3.245117 0
M  V30 52 H -8.832551 -4.869291 -5.483564 0
M  V30 53 H -8.541816 -2.555241 -6.143196 0
M  V30 54 H -7.519331 -0.991200 -4.486033 0
M  V30 55 H -1.910298 -0.244500 -1.557877 0
M  V30 56 H -0.063598 0.937297 -0.655024 0
M  V30 57 H 0.186252 -1.559478 2.301733 0
M  V30 58 H 0.030505 -3.946131 2.275985 0
M  V30 59 H 2.047860 -5.258006 1.572153 0
M  V30 60 H 4.108487 -4.064882 0.935879 0
M  V30 61 H 4.179713 -1.586720 0.987749 0
M  V30 62 H 3.975654 0.737903 4.579918 0
M  V30 63 H 6.422680 0.457238 5.160107 0
M  V30 END ATOM
M  V30 BEGIN BOND
M  V30 1 1 1 2
M  V30 2 1 2 3
M  V30 3 2 3 4
M  V30 4 1 4 5
M  V30 5 2 5 6
M  V30 6 1 6 7
M  V30 7 1 7 8
M  V30 8 2 8 9
M  V30 9 1 8 10
M  V30 10 2 10 11
M  V30 11 1 11 12
M  V30 12 2 12 13
M  V30 13 1 13 14
M  V30 14 2 14 15
M  V30 15 1 15 16
M  V30 16 1 16 17
M  V30 17 1 17 18
M  V30 18 2 18 19
M  V30 19 1 18 20
M  V30 20 1 20 21
M  V30 21 2 21 22
M  V30 22 1 22 23
M  V30 23 2 23 24
M  V30 24 1 24 25
M  V30 25 2 25 26
M  V30 26 1 15 27
M  V30 27 2 27 28
M  V30 28 1 10 29
M  V30 29 2 29 30
M  V30 30 1 30 31
M  V30 31 2 31 32
M  V30 32 1 32 33
M  V30 33 2 33 34
M  V30 34 1 34 35
M  V30 35 2 35 36
M  V30 36 1 6 37
M  V30 37 2 37 38
M  V30 38 1 38 3
M  V30 39 1 30 7
M  V30 40 1 36 31
M  V30 41 1 28 12
M  V30 42 1 26 21
M  V30 43 1 1 39
M  V30 44 1 1 40
M  V30 45 1 1 41
M  V30 46 1 4 42
M  V30 47 1 5 43
M  V30 48 1 11 44
M  V30 49 1 13 45
M  V30 50 1 14 46
M  V30 51 1 17 47
M  V30 52 1 17 48
M  V30 53 1 20 49
M  V30 54 1 22 50
M  V30 55 1 23 51
M  V30 56 1 24 52
M  V30 57 1 25 53
M  V30 58 1 26 54
M  V30 59 1 27 55
M  V30 60 1 28 56
M  V30 61 1 32 57
M  V30 62 1 33 58
M  V30 63 1 34 59
M  V30 64 1 35 60
M  V30 65 1 36 61
M  V30 66 1 37 62
M  V30 67 1 38 63
M  V30 END BOND
M  V30 END CTAB
M  END
>  <Dataset>  (464) 
ChEMBL_Kinases

>  <Ligand_Instance>  (464) 
nan

>  <PDB_ID>  (464) 
nan

>  <Standardized_SMILES>  (464) 
COc1ccc(N2C(=O)/C(=C/c3ccc(OCC(=O)Nc4ccccc4)cc3)N=C2c2ccccc2)cc1

>  <Name>  (464) 
nan

>  <Pocket>  (464) 
nan

>  <ATP_Site>  (464) 
nan

>  <Peripheral>  (464) 
nan

>  <Num_H_Atoms_ProtBoundConf>  (464) 
nan

>  <Num_Resolved_Atoms>  (464) 
nan

>  <Num_Not_Resolved_Atoms>  (464) 
nan

$$$$
CHEMBL3393701
     RDKit          3D

  0  0  0  0  0  0  0  0  0  0999 V3000
M  V30 BEGIN CTAB
M  V30 COUNTS 49 53 0 0 0
M  V30 BEGIN ATOM
M  V30 1 F 4.119851 -1.080533 0.588287 0
M  V30 2 C 3.572679 -1.204434 -0.660021 0
M  V30 3 C 3.878012 -2.418000 -1.272791 0
M  V30 4 C 3.362053 -2.635265 -2.552326 0
M  V30 5 C 2.571807 -1.674136 -3.191335 0
M  V30 6 C 2.291992 -0.485613 -2.551820 0
M  V30 7 F 1.544800 0.512345 -3.065024 0
M  V30 8 C 2.794382 -0.250620 -1.282018 0
M  V30 9 C 2.605529 0.936786 -0.457230 0
M  V30 10 C 3.512437 1.979063 -0.561931 0
M  V30 11 C 3.340718 3.106941 0.215556 0
M  V30 12 C 2.279273 3.210008 1.094455 0
M  V30 13 N 1.943800 4.204783 1.922350 0
M  V30 14 N 0.848199 3.819136 2.548236 0
M  V30 15 C 0.456387 2.614020 2.161920 0
M  V30 16 C -0.696489 1.809092 2.592368 0
M  V30 17 C -1.510673 2.370432 3.542486 0
M  V30 18 N -2.567305 1.641432 3.942048 0
M  V30 19 C -2.839222 0.418905 3.453044 0
M  V30 20 C -2.021979 -0.141220 2.501257 0
M  V30 21 O -2.067821 -1.353422 1.843479 0
M  V30 22 C -3.030802 -2.350449 2.017573 0
M  V30 23 C -2.444602 -3.661252 2.487192 0
M  V30 24 C -2.251389 -4.637978 1.375055 0
M  V30 25 N -1.970224 -4.033526 0.102301 0
M  V30 26 C -3.009941 -3.149638 -0.356057 0
M  V30 27 C -3.821177 -2.540712 0.743640 0
M  V30 28 N -0.950445 0.569627 2.079799 0
M  V30 29 C 1.363834 2.182868 1.214404 0
M  V30 30 C 1.555293 1.065613 0.427739 0
M  V30 31 H 4.485640 -3.198165 -0.823453 0
M  V30 32 H 3.545763 -3.544869 -3.104197 0
M  V30 33 H 2.168462 -1.822270 -4.169434 0
M  V30 34 H 4.326149 1.867939 -1.254053 0
M  V30 35 H 4.062575 3.909711 0.116856 0
M  V30 36 H 2.470519 5.109653 2.032789 0
M  V30 37 H -1.368567 3.342891 3.988800 0
M  V30 38 H -3.659490 -0.221605 3.720548 0
M  V30 39 H -3.760690 -2.009501 2.776884 0
M  V30 40 H -3.120821 -4.149378 3.241486 0
M  V30 41 H -1.472700 -3.516962 3.012258 0
M  V30 42 H -1.396047 -5.298638 1.611037 0
M  V30 43 H -3.191447 -5.221038 1.258149 0
M  V30 44 H -1.010946 -3.647356 0.008869 0
M  V30 45 H -2.610180 -2.372173 -1.044941 0
M  V30 46 H -3.706629 -3.764306 -0.969057 0
M  V30 47 H -4.719119 -3.130483 0.999600 0
M  V30 48 H -4.141110 -1.527779 0.413840 0
M  V30 49 H 0.832565 0.262625 0.526982 0
M  V30 END ATOM
M  V30 BEGIN BOND
M  V30 1 1 1 2
M  V30 2 2 2 3
M  V30 3 1 3 4
M  V30 4 2 4 5
M  V30 5 1 5 6
M  V30 6 1 6 7
M  V30 7 2 6 8
M  V30 8 1 8 9
M  V30 9 2 9 10
M  V30 10 1 10 11
M  V30 11 2 11 12
M  V30 12 1 12 13
M  V30 13 1 13 14
M  V30 14 2 14 15
M  V30 15 1 15 16
M  V30 16 2 16 17
M  V30 17 1 17 18
M  V30 18 2 18 19
M  V30 19 1 19 20
M  V30 20 1 20 21
M  V30 21 1 21 22
M  V30 22 1 22 23
M  V30 23 1 23 24
M  V30 24 1 24 25
M  V30 25 1 25 26
M  V30 26 1 26 27
M  V30 27 2 20 28
M  V30 28 1 15 29
M  V30 29 2 29 30
M  V30 30 1 8 2
M  V30 31 1 30 9
M  V30 32 1 29 12
M  V30 33 1 28 16
M  V30 34 1 27 22
M  V30 35 1 3 31
M  V30 36 1 4 32
M  V30 37 1 5 33
M  V30 38 1 10 34
M  V30 39 1 11 35
M  V30 40 1 13 36
M  V30 41 1 17 37
M  V30 42 1 19 38
M  V30 43 1 22 39
M  V30 44 1 23 40
M  V30 45 1 23 41
M  V30 46 1 24 42
M  V30 47 1 24 43
M  V30 48 1 25 44
M  V30 49 1 26 45
M  V30 50 1 26 46
M  V30 51 1 27 47
M  V30 52 1 27 48
M  V30 53 1 30 49
M  V30 END BOND
M  V30 END CTAB
M  END
>  <Dataset>  (465) 
ChEMBL_Kinases

>  <Ligand_Instance>  (465) 
nan

>  <PDB_ID>  (465) 
nan

>  <Standardized_SMILES>  (465) 
Fc1cccc(F)c1-c1ccc2[nH]nc(-c3cncc(OC4CCNCC4)n3)c2c1

>  <Name>  (465) 
nan

>  <Pocket>  (465) 
nan

>  <ATP_Site>  (465) 
nan

>  <Peripheral>  (465) 
nan

>  <Num_H_Atoms_ProtBoundConf>  (465) 
nan

>  <Num_Resolved_Atoms>  (465) 
nan

>  <Num_Not_Resolved_Atoms>  (465) 
nan

$$$$
CHEMBL3393700
     RDKit          3D

  0  0  0  0  0  0  0  0  0  0999 V3000
M  V30 BEGIN CTAB
M  V30 COUNTS 44 48 0 0 0
M  V30 BEGIN ATOM
M  V30 1 F 4.180484 -0.797914 1.806468 0
M  V30 2 C 4.438658 -1.348170 0.585754 0
M  V30 3 C 5.256172 -2.458440 0.669211 0
M  V30 4 C 5.612650 -3.132366 -0.478525 0
M  V30 5 C 5.167935 -2.719008 -1.715258 0
M  V30 6 C 4.354516 -1.613071 -1.790638 0
M  V30 7 F 3.864150 -1.124583 -2.938851 0
M  V30 8 C 3.967568 -0.899266 -0.652521 0
M  V30 9 C 3.125551 0.272415 -0.583693 0
M  V30 10 C 3.634272 1.543025 -0.645301 0
M  V30 11 C 2.811384 2.640643 -0.578540 0
M  V30 12 C 1.471964 2.355468 -0.450194 0
M  V30 13 N 0.527087 3.281287 -0.314247 0
M  V30 14 N -0.454769 2.581932 -0.201889 0
M  V30 15 C -0.748764 1.376587 -0.185864 0
M  V30 16 C -1.099217 -0.060427 -0.166786 0
M  V30 17 C -0.785349 -1.188614 -0.871958 0
M  V30 18 N -1.424743 -2.337346 -0.624084 0
M  V30 19 C -2.375693 -2.376621 0.315203 0
M  V30 20 C -2.725834 -1.263734 1.046320 0
M  V30 21 N -3.763588 -1.413531 2.034588 0
M  V30 22 C -4.259051 -0.348955 2.884178 0
M  V30 23 C -3.213974 0.314934 3.760209 0
M  V30 24 N -3.516647 -0.664824 4.794626 0
M  V30 25 C -4.843114 -0.869938 4.199649 0
M  V30 26 N -2.068601 -0.127428 0.779297 0
M  V30 27 C 0.703810 1.193748 -0.368487 0
M  V30 28 C 1.756735 0.203137 -0.454200 0
M  V30 29 H 5.663396 -2.873679 1.579503 0
M  V30 30 H 6.262684 -4.019107 -0.442909 0
M  V30 31 H 5.444855 -3.242852 -2.612737 0
M  V30 32 H 4.676810 1.738782 -0.745681 0
M  V30 33 H 3.216715 3.635234 -0.625341 0
M  V30 34 H 0.406963 4.329838 -0.280458 0
M  V30 35 H -0.054672 -0.978360 -1.633170 0
M  V30 36 H -2.886171 -3.308575 0.507658 0
M  V30 37 H -4.215024 -2.341222 2.177223 0
M  V30 38 H -4.962739 0.361127 2.433032 0
M  V30 39 H -3.469449 1.320122 4.100369 0
M  V30 40 H -2.216734 0.206885 3.302582 0
M  V30 41 H -2.904645 -1.518235 4.755457 0
M  V30 42 H -5.551975 -0.188162 4.699461 0
M  V30 43 H -5.128022 -1.940421 4.147211 0
M  V30 44 H 1.522304 -0.871131 -0.339077 0
M  V30 END ATOM
M  V30 BEGIN BOND
M  V30 1 1 1 2
M  V30 2 2 2 3
M  V30 3 1 3 4
M  V30 4 2 4 5
M  V30 5 1 5 6
M  V30 6 1 6 7
M  V30 7 2 6 8
M  V30 8 1 8 9
M  V30 9 2 9 10
M  V30 10 1 10 11
M  V30 11 2 11 12
M  V30 12 1 12 13
M  V30 13 1 13 14
M  V30 14 2 14 15
M  V30 15 1 15 16
M  V30 16 2 16 17
M  V30 17 1 17 18
M  V30 18 2 18 19
M  V30 19 1 19 20
M  V30 20 1 20 21
M  V30 21 1 21 22
M  V30 22 1 22 23
M  V30 23 1 23 24
M  V30 24 1 24 25
M  V30 25 2 20 26
M  V30 26 1 15 27
M  V30 27 2 27 28
M  V30 28 1 8 2
M  V30 29 1 28 9
M  V30 30 1 27 12
M  V30 31 1 26 16
M  V30 32 1 25 22
M  V30 33 1 3 29
M  V30 34 1 4 30
M  V30 35 1 5 31
M  V30 36 1 10 32
M  V30 37 1 11 33
M  V30 38 1 13 34
M  V30 39 1 17 35
M  V30 40 1 19 36
M  V30 41 1 21 37
M  V30 42 1 22 38
M  V30 43 1 23 39
M  V30 44 1 23 40
M  V30 45 1 24 41
M  V30 46 1 25 42
M  V30 47 1 25 43
M  V30 48 1 28 44
M  V30 END BOND
M  V30 END CTAB
M  END
>  <Dataset>  (466) 
ChEMBL_Kinases

>  <Ligand_Instance>  (466) 
nan

>  <PDB_ID>  (466) 
nan

>  <Standardized_SMILES>  (466) 
Fc1cccc(F)c1-c1ccc2[nH]nc(-c3cncc(NC4CNC4)n3)c2c1

>  <Name>  (466) 
nan

>  <Pocket>  (466) 
nan

>  <ATP_Site>  (466) 
nan

>  <Peripheral>  (466) 
nan

>  <Num_H_Atoms_ProtBoundConf>  (466) 
nan

>  <Num_Resolved_Atoms>  (466) 
nan

>  <Num_Not_Resolved_Atoms>  (466) 
nan

$$$$
CHEMBL3393699
     RDKit          3D

  0  0  0  0  0  0  0  0  0  0999 V3000
M  V30 BEGIN CTAB
M  V30 COUNTS 47 51 0 0 0
M  V30 BEGIN ATOM
M  V30 1 F 1.806768 -0.640389 -2.855416 0
M  V30 2 C 2.551583 -1.367491 -2.019979 0
M  V30 3 C 2.832623 -2.693417 -2.267666 0
M  V30 4 C 3.618303 -3.404412 -1.356423 0
M  V30 5 C 4.095852 -2.760862 -0.226715 0
M  V30 6 C 3.818643 -1.426551 0.031763 0
M  V30 7 F 4.317574 -0.855789 1.157681 0
M  V30 8 C 3.030117 -0.748645 -0.901875 0
M  V30 9 C 2.794647 0.652835 -0.538872 0
M  V30 10 C 3.608267 1.709376 -0.915940 0
M  V30 11 C 3.322595 3.005898 -0.535598 0
M  V30 12 C 2.191200 3.234405 0.241182 0
M  V30 13 N 1.661119 4.379766 0.759500 0
M  V30 14 N 0.551396 4.090080 1.444991 0
M  V30 15 C 0.322771 2.765482 1.398133 0
M  V30 16 C -0.779244 2.025852 2.011639 0
M  V30 17 C -1.737881 2.700023 2.741174 0
M  V30 18 N -2.757633 1.986448 3.304622 0
M  V30 19 C -2.802783 0.647505 3.135306 0
M  V30 20 C -1.863211 -0.056848 2.413624 0
M  V30 21 N -1.903684 -1.464953 2.225992 0
M  V30 22 C -2.955694 -2.296533 2.769298 0
M  V30 23 C -2.650761 -3.766112 2.432403 0
M  V30 24 C -2.778375 -3.713881 0.923643 0
M  V30 25 N -3.747102 -2.682605 0.636249 0
M  V30 26 C -4.222647 -2.161357 1.908518 0
M  V30 27 N -0.882187 0.690473 1.880707 0
M  V30 28 C 1.339171 2.207598 0.647887 0
M  V30 29 C 1.673741 0.922052 0.237076 0
M  V30 30 H 2.457756 -3.190092 -3.149916 0
M  V30 31 H 3.862880 -4.448720 -1.513295 0
M  V30 32 H 4.706031 -3.303892 0.485875 0
M  V30 33 H 4.476416 1.481483 -1.519792 0
M  V30 34 H 3.961770 3.823846 -0.833614 0
M  V30 35 H 2.119607 5.318286 0.598041 0
M  V30 36 H -1.683577 3.772745 2.864919 0
M  V30 37 H -3.626826 0.128169 3.603266 0
M  V30 38 H -1.135804 -1.901026 1.671322 0
M  V30 39 H -3.154239 -2.134008 3.827521 0
M  V30 40 H -1.640200 -4.055786 2.762390 0
M  V30 41 H -3.464663 -4.347786 2.887562 0
M  V30 42 H -1.777186 -3.507425 0.457520 0
M  V30 43 H -3.164716 -4.675292 0.562867 0
M  V30 44 H -3.309184 -1.950548 0.036634 0
M  V30 45 H -4.924478 -2.900249 2.315010 0
M  V30 46 H -4.589404 -1.142862 1.837184 0
M  V30 47 H 1.020736 0.110940 0.545197 0
M  V30 END ATOM
M  V30 BEGIN BOND
M  V30 1 1 1 2
M  V30 2 2 2 3
M  V30 3 1 3 4
M  V30 4 2 4 5
M  V30 5 1 5 6
M  V30 6 1 6 7
M  V30 7 2 6 8
M  V30 8 1 8 9
M  V30 9 2 9 10
M  V30 10 1 10 11
M  V30 11 2 11 12
M  V30 12 1 12 13
M  V30 13 1 13 14
M  V30 14 2 14 15
M  V30 15 1 15 16
M  V30 16 2 16 17
M  V30 17 1 17 18
M  V30 18 2 18 19
M  V30 19 1 19 20
M  V30 20 1 20 21
M  V30 21 1 21 22
M  V30 22 1 22 23
M  V30 23 1 23 24
M  V30 24 1 24 25
M  V30 25 1 25 26
M  V30 26 2 20 27
M  V30 27 1 15 28
M  V30 28 2 28 29
M  V30 29 1 8 2
M  V30 30 1 29 9
M  V30 31 1 28 12
M  V30 32 1 27 16
M  V30 33 1 26 22
M  V30 34 1 3 30
M  V30 35 1 4 31
M  V30 36 1 5 32
M  V30 37 1 10 33
M  V30 38 1 11 34
M  V30 39 1 13 35
M  V30 40 1 17 36
M  V30 41 1 19 37
M  V30 42 1 21 38
M  V30 43 1 22 39
M  V30 44 1 23 40
M  V30 45 1 23 41
M  V30 46 1 24 42
M  V30 47 1 24 43
M  V30 48 1 25 44
M  V30 49 1 26 45
M  V30 50 1 26 46
M  V30 51 1 29 47
M  V30 END BOND
M  V30 END CTAB
M  END
>  <Dataset>  (467) 
ChEMBL_Kinases

>  <Ligand_Instance>  (467) 
nan

>  <PDB_ID>  (467) 
nan

>  <Standardized_SMILES>  (467) 
Fc1cccc(F)c1-c1ccc2[nH]nc(-c3cncc(NC4CCNC4)n3)c2c1

>  <Name>  (467) 
nan

>  <Pocket>  (467) 
nan

>  <ATP_Site>  (467) 
nan

>  <Peripheral>  (467) 
nan

>  <Num_H_Atoms_ProtBoundConf>  (467) 
nan

>  <Num_Resolved_Atoms>  (467) 
nan

>  <Num_Not_Resolved_Atoms>  (467) 
nan

$$$$
CHEMBL3393698
     RDKit          3D

  0  0  0  0  0  0  0  0  0  0999 V3000
M  V30 BEGIN CTAB
M  V30 COUNTS 50 54 0 0 0
M  V30 BEGIN ATOM
M  V30 1 F 4.305021 -0.861245 1.357255 0
M  V30 2 C 3.865621 -1.409639 0.214314 0
M  V30 3 C 4.262937 -2.745040 0.074679 0
M  V30 4 C 3.889458 -3.458740 -1.055366 0
M  V30 5 C 3.127325 -2.836724 -2.029972 0
M  V30 6 C 2.731965 -1.521275 -1.899596 0
M  V30 7 F 1.988471 -0.843750 -2.805078 0
M  V30 8 C 3.105596 -0.803167 -0.766451 0
M  V30 9 C 2.769908 0.592883 -0.477008 0
M  V30 10 C 3.605218 1.626557 -0.890700 0
M  V30 11 C 3.279443 2.940856 -0.612519 0
M  V30 12 C 2.113524 3.214930 0.081676 0
M  V30 13 N 1.514002 4.351863 0.507398 0
M  V30 14 N 0.384737 4.090939 1.144436 0
M  V30 15 C 0.169347 2.762719 1.178160 0
M  V30 16 C -0.960740 2.072198 1.788203 0
M  V30 17 C -1.931434 2.823430 2.417299 0
M  V30 18 N -3.024126 2.328823 3.024788 0
M  V30 19 C -3.193986 0.996363 3.024867 0
M  V30 20 C -2.234147 0.194129 2.398211 0
M  V30 21 N -2.387580 -1.233449 2.385379 0
M  V30 22 C -1.485262 -2.187850 1.770807 0
M  V30 23 C -1.937603 -3.621473 1.976577 0
M  V30 24 C -2.859169 -4.111264 0.899260 0
M  V30 25 C -3.692534 -2.994865 0.309896 0
M  V30 26 N -2.888193 -1.933951 -0.223259 0
M  V30 27 C -1.520071 -1.937223 0.258568 0
M  V30 28 N -1.137659 0.739102 1.792284 0
M  V30 29 C 1.252928 2.224386 0.512882 0
M  V30 30 C 1.616096 0.926821 0.214256 0
M  V30 31 H 4.857749 -3.287112 0.799051 0
M  V30 32 H 4.160328 -4.491424 -1.228888 0
M  V30 33 H 2.816047 -3.372878 -2.934221 0
M  V30 34 H 4.508828 1.375635 -1.431356 0
M  V30 35 H 3.916384 3.760713 -0.925789 0
M  V30 36 H 1.901919 5.311992 0.348305 0
M  V30 37 H -1.816361 3.906731 2.430774 0
M  V30 38 H -4.040475 0.501755 3.487170 0
M  V30 39 H -3.224111 -1.636298 2.860109 0
M  V30 40 H -0.450267 -2.055828 2.090331 0
M  V30 41 H -2.366322 -3.691742 2.993428 0
M  V30 42 H -1.041065 -4.285834 1.962088 0
M  V30 43 H -3.598337 -4.827579 1.347008 0
M  V30 44 H -2.357033 -4.645139 0.080021 0
M  V30 45 H -4.437496 -2.653443 1.045509 0
M  V30 46 H -4.264669 -3.458149 -0.525284 0
M  V30 47 H -3.322350 -0.984871 -0.128949 0
M  V30 48 H -1.122381 -0.926000 0.093084 0
M  V30 49 H -0.935150 -2.679549 -0.288975 0
M  V30 50 H 0.987188 0.111237 0.524603 0
M  V30 END ATOM
M  V30 BEGIN BOND
M  V30 1 1 1 2
M  V30 2 2 2 3
M  V30 3 1 3 4
M  V30 4 2 4 5
M  V30 5 1 5 6
M  V30 6 1 6 7
M  V30 7 2 6 8
M  V30 8 1 8 9
M  V30 9 2 9 10
M  V30 10 1 10 11
M  V30 11 2 11 12
M  V30 12 1 12 13
M  V30 13 1 13 14
M  V30 14 2 14 15
M  V30 15 1 15 16
M  V30 16 2 16 17
M  V30 17 1 17 18
M  V30 18 2 18 19
M  V30 19 1 19 20
M  V30 20 1 20 21
M  V30 21 1 21 22
M  V30 22 1 22 23
M  V30 23 1 23 24
M  V30 24 1 24 25
M  V30 25 1 25 26
M  V30 26 1 26 27
M  V30 27 2 20 28
M  V30 28 1 15 29
M  V30 29 2 29 30
M  V30 30 1 8 2
M  V30 31 1 30 9
M  V30 32 1 29 12
M  V30 33 1 28 16
M  V30 34 1 27 22
M  V30 35 1 3 31
M  V30 36 1 4 32
M  V30 37 1 5 33
M  V30 38 1 10 34
M  V30 39 1 11 35
M  V30 40 1 13 36
M  V30 41 1 17 37
M  V30 42 1 19 38
M  V30 43 1 21 39
M  V30 44 1 22 40
M  V30 45 1 23 41
M  V30 46 1 23 42
M  V30 47 1 24 43
M  V30 48 1 24 44
M  V30 49 1 25 45
M  V30 50 1 25 46
M  V30 51 1 26 47
M  V30 52 1 27 48
M  V30 53 1 27 49
M  V30 54 1 30 50
M  V30 END BOND
M  V30 END CTAB
M  END
>  <Dataset>  (468) 
ChEMBL_Kinases

>  <Ligand_Instance>  (468) 
nan

>  <PDB_ID>  (468) 
nan

>  <Standardized_SMILES>  (468) 
Fc1cccc(F)c1-c1ccc2[nH]nc(-c3cncc(NC4CCCNC4)n3)c2c1

>  <Name>  (468) 
nan

>  <Pocket>  (468) 
nan

>  <ATP_Site>  (468) 
nan

>  <Peripheral>  (468) 
nan

>  <Num_H_Atoms_ProtBoundConf>  (468) 
nan

>  <Num_Resolved_Atoms>  (468) 
nan

>  <Num_Not_Resolved_Atoms>  (468) 
nan

$$$$
CHEMBL3393697
     RDKit          3D

  0  0  0  0  0  0  0  0  0  0999 V3000
M  V30 BEGIN CTAB
M  V30 COUNTS 50 54 0 0 0
M  V30 BEGIN ATOM
M  V30 1 F 4.289327 -0.751251 1.294483 0
M  V30 2 C 3.904580 -1.332338 0.131942 0
M  V30 3 C 4.366204 -2.622850 -0.077344 0
M  V30 4 C 4.017415 -3.286198 -1.241440 0
M  V30 5 C 3.231140 -2.698240 -2.184369 0
M  V30 6 C 2.759787 -1.404903 -1.990315 0
M  V30 7 F 1.973484 -0.661843 -2.808157 0
M  V30 8 C 3.100387 -0.731048 -0.832517 0
M  V30 9 C 2.701235 0.626293 -0.456705 0
M  V30 10 C 3.515534 1.688350 -0.838691 0
M  V30 11 C 3.177510 2.987936 -0.505239 0
M  V30 12 C 2.013191 3.198783 0.214684 0
M  V30 13 N 1.420673 4.313800 0.683535 0
M  V30 14 N 0.304628 4.019657 1.324336 0
M  V30 15 C 0.093792 2.691337 1.316516 0
M  V30 16 C -1.016919 1.955861 1.911876 0
M  V30 17 C -1.986773 2.706413 2.588407 0
M  V30 18 N -3.042484 2.110641 3.171073 0
M  V30 19 C -3.201220 0.777278 3.123272 0
M  V30 20 C -2.237116 0.017772 2.449141 0
M  V30 21 N -2.341801 -1.417118 2.361706 0
M  V30 22 C -1.404248 -2.294716 1.678469 0
M  V30 23 C -1.847223 -3.733915 1.847724 0
M  V30 24 C -3.115366 -4.044641 1.138696 0
M  V30 25 N -3.745352 -2.973913 0.477968 0
M  V30 26 C -2.952273 -2.005340 -0.173341 0
M  V30 27 C -1.476762 -2.057294 0.162696 0
M  V30 28 N -1.163879 0.619581 1.856400 0
M  V30 29 C 1.170126 2.181190 0.618324 0
M  V30 30 C 1.552159 0.904146 0.260813 0
M  V30 31 H 5.000640 -3.144357 0.645448 0
M  V30 32 H 4.336879 -4.305988 -1.488445 0
M  V30 33 H 2.894562 -3.117384 -3.129306 0
M  V30 34 H 4.428858 1.514088 -1.404345 0
M  V30 35 H 3.794829 3.828266 -0.791298 0
M  V30 36 H 1.800003 5.292852 0.554692 0
M  V30 37 H -1.977837 3.782604 2.700074 0
M  V30 38 H -4.029718 0.269545 3.576214 0
M  V30 39 H -3.183569 -1.843993 2.845350 0
M  V30 40 H -0.378946 -2.138433 2.011283 0
M  V30 41 H -1.795304 -4.053273 2.904182 0
M  V30 42 H -1.044638 -4.331575 1.322467 0
M  V30 43 H -3.834300 -4.415531 1.927239 0
M  V30 44 H -3.048433 -4.905011 0.426525 0
M  V30 45 H -4.656716 -2.675514 0.827969 0
M  V30 46 H -3.269558 -0.951303 -0.053692 0
M  V30 47 H -3.038753 -2.196909 -1.282219 0
M  V30 48 H -1.000443 -1.134079 -0.154155 0
M  V30 49 H -1.090101 -2.976529 -0.322965 0
M  V30 50 H 0.934309 0.077654 0.550304 0
M  V30 END ATOM
M  V30 BEGIN BOND
M  V30 1 1 1 2
M  V30 2 2 2 3
M  V30 3 1 3 4
M  V30 4 2 4 5
M  V30 5 1 5 6
M  V30 6 1 6 7
M  V30 7 2 6 8
M  V30 8 1 8 9
M  V30 9 2 9 10
M  V30 10 1 10 11
M  V30 11 2 11 12
M  V30 12 1 12 13
M  V30 13 1 13 14
M  V30 14 2 14 15
M  V30 15 1 15 16
M  V30 16 2 16 17
M  V30 17 1 17 18
M  V30 18 2 18 19
M  V30 19 1 19 20
M  V30 20 1 20 21
M  V30 21 1 21 22
M  V30 22 1 22 23
M  V30 23 1 23 24
M  V30 24 1 24 25
M  V30 25 1 25 26
M  V30 26 1 26 27
M  V30 27 2 20 28
M  V30 28 1 15 29
M  V30 29 2 29 30
M  V30 30 1 8 2
M  V30 31 1 30 9
M  V30 32 1 29 12
M  V30 33 1 28 16
M  V30 34 1 27 22
M  V30 35 1 3 31
M  V30 36 1 4 32
M  V30 37 1 5 33
M  V30 38 1 10 34
M  V30 39 1 11 35
M  V30 40 1 13 36
M  V30 41 1 17 37
M  V30 42 1 19 38
M  V30 43 1 21 39
M  V30 44 1 22 40
M  V30 45 1 23 41
M  V30 46 1 23 42
M  V30 47 1 24 43
M  V30 48 1 24 44
M  V30 49 1 25 45
M  V30 50 1 26 46
M  V30 51 1 26 47
M  V30 52 1 27 48
M  V30 53 1 27 49
M  V30 54 1 30 50
M  V30 END BOND
M  V30 END CTAB
M  END
>  <Dataset>  (469) 
ChEMBL_Kinases

>  <Ligand_Instance>  (469) 
nan

>  <PDB_ID>  (469) 
nan

>  <Standardized_SMILES>  (469) 
Fc1cccc(F)c1-c1ccc2[nH]nc(-c3cncc(NC4CCNCC4)n3)c2c1

>  <Name>  (469) 
nan

>  <Pocket>  (469) 
nan

>  <ATP_Site>  (469) 
nan

>  <Peripheral>  (469) 
nan

>  <Num_H_Atoms_ProtBoundConf>  (469) 
nan

>  <Num_Resolved_Atoms>  (469) 
nan

>  <Num_Not_Resolved_Atoms>  (469) 
nan

$$$$
CHEMBL3393696
     RDKit          3D

  0  0  0  0  0  0  0  0  0  0999 V3000
M  V30 BEGIN CTAB
M  V30 COUNTS 49 53 0 0 0
M  V30 BEGIN ATOM
M  V30 1 O -0.673276 -4.664592 3.503836 0
M  V30 2 C -0.480710 -4.773236 2.134787 0
M  V30 3 C -0.798762 -3.487782 1.403287 0
M  V30 4 C 0.472393 -2.928644 0.771055 0
M  V30 5 N 1.514031 -2.865953 1.785885 0
M  V30 6 C 2.074571 -1.671405 2.317564 0
M  V30 7 C 3.057840 -1.673323 3.275483 0
M  V30 8 N 3.562930 -0.515881 3.753626 0
M  V30 9 C 3.101726 0.656458 3.290234 0
M  V30 10 C 2.106214 0.690412 2.320002 0
M  V30 11 C 1.648644 1.997723 1.858558 0
M  V30 12 N 2.079427 3.214788 2.263541 0
M  V30 13 N 1.425410 4.163526 1.615071 0
M  V30 14 C 0.533903 3.635683 0.753020 0
M  V30 15 C -0.374791 4.178281 -0.138634 0
M  V30 16 C -1.168858 3.347556 -0.902124 0
M  V30 17 C -1.054953 1.979148 -0.774720 0
M  V30 18 C -1.913043 1.142633 -1.600516 0
M  V30 19 C -1.450475 0.747705 -2.859437 0
M  V30 20 F -0.222276 1.160438 -3.258030 0
M  V30 21 C -2.288250 -0.048517 -3.624445 0
M  V30 22 C -3.537948 -0.427238 -3.135780 0
M  V30 23 C -3.990037 -0.033884 -1.890523 0
M  V30 24 C -3.142150 0.760908 -1.138523 0
M  V30 25 F -3.583273 1.149052 0.085273 0
M  V30 26 C -0.129293 1.468905 0.133074 0
M  V30 27 C 0.678881 2.255519 0.910833 0
M  V30 28 N 1.641743 -0.471678 1.881486 0
M  V30 29 C 1.953996 -4.158339 2.230971 0
M  V30 30 C 0.939058 -5.223589 1.877488 0
M  V30 31 H -0.882082 -3.701107 3.713719 0
M  V30 32 H -1.137049 -5.588985 1.769184 0
M  V30 33 H -1.546968 -3.664373 0.617156 0
M  V30 34 H -1.189832 -2.743183 2.101563 0
M  V30 35 H 0.260686 -1.972536 0.288271 0
M  V30 36 H 0.783132 -3.695114 0.009136 0
M  V30 37 H 3.445798 -2.600997 3.664581 0
M  V30 38 H 3.506577 1.586843 3.673454 0
M  V30 39 H 1.595216 5.196213 1.768052 0
M  V30 40 H -0.468513 5.252633 -0.242840 0
M  V30 41 H -1.876424 3.823903 -1.597068 0
M  V30 42 H -1.943228 -0.365720 -4.609072 0
M  V30 43 H -4.168723 -1.051078 -3.760823 0
M  V30 44 H -4.966971 -0.371168 -1.591571 0
M  V30 45 H -0.060555 0.404596 0.212820 0
M  V30 46 H 2.887076 -4.438635 1.664384 0
M  V30 47 H 2.152876 -4.137115 3.304206 0
M  V30 48 H 1.111240 -6.080223 2.571638 0
M  V30 49 H 1.107969 -5.566079 0.846465 0
M  V30 END ATOM
M  V30 BEGIN BOND
M  V30 1 1 1 2
M  V30 2 1 2 3
M  V30 3 1 3 4
M  V30 4 1 4 5
M  V30 5 1 5 6
M  V30 6 2 6 7
M  V30 7 1 7 8
M  V30 8 2 8 9
M  V30 9 1 9 10
M  V30 10 1 10 11
M  V30 11 2 11 12
M  V30 12 1 12 13
M  V30 13 1 13 14
M  V30 14 2 14 15
M  V30 15 1 15 16
M  V30 16 2 16 17
M  V30 17 1 17 18
M  V30 18 2 18 19
M  V30 19 1 19 20
M  V30 20 1 19 21
M  V30 21 2 21 22
M  V30 22 1 22 23
M  V30 23 2 23 24
M  V30 24 1 24 25
M  V30 25 1 17 26
M  V30 26 2 26 27
M  V30 27 2 10 28
M  V30 28 1 5 29
M  V30 29 1 29 30
M  V30 30 1 30 2
M  V30 31 1 28 6
M  V30 32 1 27 11
M  V30 33 1 27 14
M  V30 34 1 24 18
M  V30 35 1 1 31
M  V30 36 1 2 32
M  V30 37 1 3 33
M  V30 38 1 3 34
M  V30 39 1 4 35
M  V30 40 1 4 36
M  V30 41 1 7 37
M  V30 42 1 9 38
M  V30 43 1 13 39
M  V30 44 1 15 40
M  V30 45 1 16 41
M  V30 46 1 21 42
M  V30 47 1 22 43
M  V30 48 1 23 44
M  V30 49 1 26 45
M  V30 50 1 29 46
M  V30 51 1 29 47
M  V30 52 1 30 48
M  V30 53 1 30 49
M  V30 END BOND
M  V30 END CTAB
M  END
>  <Dataset>  (470) 
ChEMBL_Kinases

>  <Ligand_Instance>  (470) 
nan

>  <PDB_ID>  (470) 
nan

>  <Standardized_SMILES>  (470) 
OC1CCN(c2cncc(-c3n[nH]c4ccc(-c5c(F)cccc5F)cc34)n2)CC1

>  <Name>  (470) 
nan

>  <Pocket>  (470) 
nan

>  <ATP_Site>  (470) 
nan

>  <Peripheral>  (470) 
nan

>  <Num_H_Atoms_ProtBoundConf>  (470) 
nan

>  <Num_Resolved_Atoms>  (470) 
nan

>  <Num_Not_Resolved_Atoms>  (470) 
nan

$$$$
CHEMBL4796297
     RDKit          3D

  0  0  0  0  0  0  0  0  0  0999 V3000
M  V30 BEGIN CTAB
M  V30 COUNTS 39 42 0 0 0
M  V30 BEGIN ATOM
M  V30 1 C -0.592938 -3.334432 3.453918 0
M  V30 2 C 0.874180 -3.430686 3.267372 0
M  V30 3 N 1.689463 -4.387646 3.782083 0
M  V30 4 N 2.927409 -4.125741 3.389828 0
M  V30 5 C 2.920886 -3.027253 2.639095 0
M  V30 6 C 3.957791 -2.349305 1.996673 0
M  V30 7 C 3.672312 -1.219805 1.272714 0
M  V30 8 C 2.394535 -0.718946 1.149755 0
M  V30 9 C 2.081558 0.479744 0.383199 0
M  V30 10 C 3.025607 1.225847 -0.289863 0
M  V30 11 N 2.776798 2.330258 -1.002914 0
M  V30 12 C 1.480202 2.754083 -1.069900 0
M  V30 13 C 0.490557 2.023518 -0.399629 0
M  V30 14 O -0.750309 2.568260 -0.558745 0
M  V30 15 C -1.966417 2.130101 -0.050336 0
M  V30 16 C -2.361096 0.757363 -0.488111 0
M  V30 17 F -1.498477 -0.239102 -0.144842 0
M  V30 18 C -2.820132 0.754557 -1.930187 0
M  V30 19 N -3.860489 -0.198903 -1.572168 0
M  V30 20 C -3.782743 0.364171 -0.222327 0
M  V30 21 N 0.813328 0.920747 0.299580 0
M  V30 22 C 1.379076 -1.396528 1.788237 0
M  V30 23 C 1.637431 -2.534397 2.522591 0
M  V30 24 H -0.818678 -2.322652 3.889686 0
M  V30 25 H -0.920303 -4.110885 4.149968 0
M  V30 26 H -1.097890 -3.475887 2.487941 0
M  V30 27 H 3.791787 -4.680597 3.620885 0
M  V30 28 H 4.970707 -2.726595 2.080625 0
M  V30 29 H 4.497077 -0.742348 0.804008 0
M  V30 30 H 4.063850 0.927587 -0.264382 0
M  V30 31 H 1.302000 3.651770 -1.653615 0
M  V30 32 H -2.752349 2.863165 -0.305169 0
M  V30 33 H -1.855594 2.117036 1.073930 0
M  V30 34 H -2.121349 0.282361 -2.642043 0
M  V30 35 H -3.273960 1.710145 -2.211585 0
M  V30 36 H -3.578717 -1.196549 -1.638503 0
M  V30 37 H -4.491682 1.229062 -0.159828 0
M  V30 38 H -3.961955 -0.415595 0.537303 0
M  V30 39 H 0.345490 -1.096728 1.760870 0
M  V30 END ATOM
M  V30 BEGIN BOND
M  V30 1 1 1 2
M  V30 2 2 2 3
M  V30 3 1 3 4
M  V30 4 1 4 5
M  V30 5 2 5 6
M  V30 6 1 6 7
M  V30 7 2 7 8
M  V30 8 1 8 9
M  V30 9 2 9 10
M  V30 10 1 10 11
M  V30 11 2 11 12
M  V30 12 1 12 13
M  V30 13 1 13 14
M  V30 14 1 14 15
M  V30 15 1 15 16
M  V30 16 1 16 17
M  V30 17 1 16 18
M  V30 18 1 18 19
M  V30 19 1 19 20
M  V30 20 2 13 21
M  V30 21 1 8 22
M  V30 22 2 22 23
M  V30 23 1 23 2
M  V30 24 1 23 5
M  V30 25 1 21 9
M  V30 26 1 20 16
M  V30 27 1 1 24
M  V30 28 1 1 25
M  V30 29 1 1 26
M  V30 30 1 4 27
M  V30 31 1 6 28
M  V30 32 1 7 29
M  V30 33 1 10 30
M  V30 34 1 12 31
M  V30 35 1 15 32
M  V30 36 1 15 33
M  V30 37 1 18 34
M  V30 38 1 18 35
M  V30 39 1 19 36
M  V30 40 1 20 37
M  V30 41 1 20 38
M  V30 42 1 22 39
M  V30 END BOND
M  V30 END CTAB
M  END
>  <Dataset>  (471) 
ChEMBL_Kinases

>  <Ligand_Instance>  (471) 
nan

>  <PDB_ID>  (471) 
nan

>  <Standardized_SMILES>  (471) 
Cc1n[nH]c2ccc(-c3cncc(OCC4(F)CNC4)n3)cc12

>  <Name>  (471) 
nan

>  <Pocket>  (471) 
nan

>  <ATP_Site>  (471) 
nan

>  <Peripheral>  (471) 
nan

>  <Num_H_Atoms_ProtBoundConf>  (471) 
nan

>  <Num_Resolved_Atoms>  (471) 
nan

>  <Num_Not_Resolved_Atoms>  (471) 
nan

$$$$
CHEMBL3393695
     RDKit          3D

  0  0  0  0  0  0  0  0  0  0999 V3000
M  V30 BEGIN CTAB
M  V30 COUNTS 47 51 0 0 0
M  V30 BEGIN ATOM
M  V30 1 F 4.312243 -0.326280 2.226942 0
M  V30 2 C 4.628473 -1.087990 1.159727 0
M  V30 3 C 5.345105 -2.222231 1.458885 0
M  V30 4 C 5.749395 -3.095965 0.471110 0
M  V30 5 C 5.398703 -2.773184 -0.816017 0
M  V30 6 C 4.676938 -1.658669 -1.211830 0
M  V30 7 F 4.346442 -1.363525 -2.487020 0
M  V30 8 C 4.296419 -0.815639 -0.179573 0
M  V30 9 C 3.554093 0.384135 -0.378894 0
M  V30 10 C 4.112446 1.610755 -0.661945 0
M  V30 11 C 3.336684 2.726440 -0.842538 0
M  V30 12 C 1.982920 2.526833 -0.719196 0
M  V30 13 N 1.080850 3.505981 -0.814408 0
M  V30 14 N 0.065182 2.856642 -0.608980 0
M  V30 15 C -0.281282 1.701733 -0.370716 0
M  V30 16 C -0.697511 0.312343 -0.084390 0
M  V30 17 C -0.457563 -0.953847 -0.526271 0
M  V30 18 N -1.163565 -1.986379 -0.046918 0
M  V30 19 C -2.114857 -1.775674 0.871996 0
M  V30 20 C -2.380180 -0.509944 1.337462 0
M  V30 21 N -3.418070 -0.484933 2.311549 0
M  V30 22 C -3.590883 -0.728912 3.748918 0
M  V30 23 C -4.708068 -1.742131 3.947850 0
M  V30 24 N -5.167766 -2.349695 2.742125 0
M  V30 25 C -5.472820 -1.453447 1.666286 0
M  V30 26 C -4.743499 -0.128231 1.773508 0
M  V30 27 N -1.672919 0.518103 0.857140 0
M  V30 28 C 1.157190 1.415016 -0.445318 0
M  V30 29 C 2.179525 0.394301 -0.297555 0
M  V30 30 H 5.642662 -2.500231 2.465907 0
M  V30 31 H 6.308774 -3.999429 0.647987 0
M  V30 32 H 5.687964 -3.431356 -1.650315 0
M  V30 33 H 5.168776 1.721505 -0.753776 0
M  V30 34 H 3.783639 3.664521 -1.068571 0
M  V30 35 H 1.008687 4.551779 -0.989116 0
M  V30 36 H 0.290640 -0.928412 -1.297946 0
M  V30 37 H -2.620397 -2.694644 1.184401 0
M  V30 38 H -2.659371 -0.970062 4.256139 0
M  V30 39 H -3.962768 0.225292 4.160651 0
M  V30 40 H -4.297046 -2.534413 4.600619 0
M  V30 41 H -5.576509 -1.302477 4.516647 0
M  V30 42 H -4.756154 -3.247516 2.492056 0
M  V30 43 H -5.109674 -1.918941 0.696386 0
M  V30 44 H -6.565643 -1.354609 1.583224 0
M  V30 45 H -4.703948 0.296210 0.761128 0
M  V30 46 H -5.266325 0.602421 2.421138 0
M  V30 47 H 1.863156 -0.619513 0.013112 0
M  V30 END ATOM
M  V30 BEGIN BOND
M  V30 1 1 1 2
M  V30 2 2 2 3
M  V30 3 1 3 4
M  V30 4 2 4 5
M  V30 5 1 5 6
M  V30 6 1 6 7
M  V30 7 2 6 8
M  V30 8 1 8 9
M  V30 9 2 9 10
M  V30 10 1 10 11
M  V30 11 2 11 12
M  V30 12 1 12 13
M  V30 13 1 13 14
M  V30 14 2 14 15
M  V30 15 1 15 16
M  V30 16 2 16 17
M  V30 17 1 17 18
M  V30 18 2 18 19
M  V30 19 1 19 20
M  V30 20 1 20 21
M  V30 21 1 21 22
M  V30 22 1 22 23
M  V30 23 1 23 24
M  V30 24 1 24 25
M  V30 25 1 25 26
M  V30 26 2 20 27
M  V30 27 1 15 28
M  V30 28 2 28 29
M  V30 29 1 8 2
M  V30 30 1 29 9
M  V30 31 1 28 12
M  V30 32 1 27 16
M  V30 33 1 26 21
M  V30 34 1 3 30
M  V30 35 1 4 31
M  V30 36 1 5 32
M  V30 37 1 10 33
M  V30 38 1 11 34
M  V30 39 1 13 35
M  V30 40 1 17 36
M  V30 41 1 19 37
M  V30 42 1 22 38
M  V30 43 1 22 39
M  V30 44 1 23 40
M  V30 45 1 23 41
M  V30 46 1 24 42
M  V30 47 1 25 43
M  V30 48 1 25 44
M  V30 49 1 26 45
M  V30 50 1 26 46
M  V30 51 1 29 47
M  V30 END BOND
M  V30 END CTAB
M  END
>  <Dataset>  (472) 
ChEMBL_Kinases

>  <Ligand_Instance>  (472) 
nan

>  <PDB_ID>  (472) 
nan

>  <Standardized_SMILES>  (472) 
Fc1cccc(F)c1-c1ccc2[nH]nc(-c3cncc(N4CCNCC4)n3)c2c1

>  <Name>  (472) 
nan

>  <Pocket>  (472) 
nan

>  <ATP_Site>  (472) 
nan

>  <Peripheral>  (472) 
nan

>  <Num_H_Atoms_ProtBoundConf>  (472) 
nan

>  <Num_Resolved_Atoms>  (472) 
nan

>  <Num_Not_Resolved_Atoms>  (472) 
nan

$$$$
CHEMBL3393694
     RDKit          3D

  0  0  0  0  0  0  0  0  0  0999 V3000
M  V30 BEGIN CTAB
M  V30 COUNTS 50 54 0 0 0
M  V30 BEGIN ATOM
M  V30 1 F 3.475559 -1.676816 2.432522 0
M  V30 2 C 3.634284 -1.992031 1.131122 0
M  V30 3 C 3.965112 -3.267352 0.669855 0
M  V30 4 C 4.102043 -3.471575 -0.699189 0
M  V30 5 C 3.923956 -2.460415 -1.632606 0
M  V30 6 C 3.599379 -1.210899 -1.173944 0
M  V30 7 F 3.429511 -0.237744 -2.096939 0
M  V30 8 C 3.453660 -0.969531 0.195438 0
M  V30 9 C 3.103939 0.413701 0.554838 0
M  V30 10 C 4.096308 1.341694 0.799937 0
M  V30 11 C 3.804490 2.658021 1.142174 0
M  V30 12 C 2.459970 2.958286 1.216138 0
M  V30 13 N 1.856924 4.122232 1.517529 0
M  V30 14 N 0.557717 3.969490 1.473493 0
M  V30 15 C 0.212906 2.716697 1.145873 0
M  V30 16 C -1.127470 2.149046 0.993281 0
M  V30 17 C -2.198137 2.990477 1.207223 0
M  V30 18 N -3.426918 2.461930 1.064612 0
M  V30 19 C -3.583772 1.169930 0.728310 0
M  V30 20 C -2.525980 0.314359 0.510586 0
M  V30 21 N -2.612735 -1.056012 0.151456 0
M  V30 22 C -1.362904 -1.772187 0.038656 0
M  V30 23 C -1.488426 -3.257402 0.128063 0
M  V30 24 C -2.217623 -3.697142 1.351298 0
M  V30 25 N -3.088565 -2.704554 1.920783 0
M  V30 26 C -4.306846 -2.515557 1.125661 0
M  V30 27 C -3.861337 -1.715618 -0.091118 0
M  V30 28 N -1.306518 0.858869 0.657327 0
M  V30 29 C 1.426234 2.079753 0.983794 0
M  V30 30 C 1.776182 0.790159 0.648709 0
M  V30 31 H 4.095218 -4.022935 1.413092 0
M  V30 32 H 4.362891 -4.513844 -0.929683 0
M  V30 33 H 4.053195 -2.721517 -2.675138 0
M  V30 34 H 5.133952 1.019493 0.719244 0
M  V30 35 H 4.575601 3.391658 1.335863 0
M  V30 36 H 2.299239 5.052092 1.761353 0
M  V30 37 H -2.024892 4.023147 1.476187 0
M  V30 38 H -4.582438 0.780442 0.624234 0
M  V30 39 H -0.766883 -1.459311 0.946104 0
M  V30 40 H -0.790733 -1.440198 -0.826976 0
M  V30 41 H -0.435696 -3.648838 0.231612 0
M  V30 42 H -1.879977 -3.708129 -0.819723 0
M  V30 43 H -1.523194 -4.012025 2.175490 0
M  V30 44 H -2.798682 -4.611571 1.068820 0
M  V30 45 H -3.376332 -2.981084 2.870476 0
M  V30 46 H -5.038120 -1.963811 1.753617 0
M  V30 47 H -4.735531 -3.476425 0.789726 0
M  V30 48 H -4.649641 -0.992990 -0.324829 0
M  V30 49 H -3.805583 -2.410481 -0.972141 0
M  V30 50 H 1.018184 0.065081 0.457055 0
M  V30 END ATOM
M  V30 BEGIN BOND
M  V30 1 1 1 2
M  V30 2 2 2 3
M  V30 3 1 3 4
M  V30 4 2 4 5
M  V30 5 1 5 6
M  V30 6 1 6 7
M  V30 7 2 6 8
M  V30 8 1 8 9
M  V30 9 2 9 10
M  V30 10 1 10 11
M  V30 11 2 11 12
M  V30 12 1 12 13
M  V30 13 1 13 14
M  V30 14 2 14 15
M  V30 15 1 15 16
M  V30 16 2 16 17
M  V30 17 1 17 18
M  V30 18 2 18 19
M  V30 19 1 19 20
M  V30 20 1 20 21
M  V30 21 1 21 22
M  V30 22 1 22 23
M  V30 23 1 23 24
M  V30 24 1 24 25
M  V30 25 1 25 26
M  V30 26 1 26 27
M  V30 27 2 20 28
M  V30 28 1 15 29
M  V30 29 2 29 30
M  V30 30 1 8 2
M  V30 31 1 30 9
M  V30 32 1 29 12
M  V30 33 1 28 16
M  V30 34 1 27 21
M  V30 35 1 3 31
M  V30 36 1 4 32
M  V30 37 1 5 33
M  V30 38 1 10 34
M  V30 39 1 11 35
M  V30 40 1 13 36
M  V30 41 1 17 37
M  V30 42 1 19 38
M  V30 43 1 22 39
M  V30 44 1 22 40
M  V30 45 1 23 41
M  V30 46 1 23 42
M  V30 47 1 24 43
M  V30 48 1 24 44
M  V30 49 1 25 45
M  V30 50 1 26 46
M  V30 51 1 26 47
M  V30 52 1 27 48
M  V30 53 1 27 49
M  V30 54 1 30 50
M  V30 END BOND
M  V30 END CTAB
M  END
>  <Dataset>  (473) 
ChEMBL_Kinases

>  <Ligand_Instance>  (473) 
nan

>  <PDB_ID>  (473) 
nan

>  <Standardized_SMILES>  (473) 
Fc1cccc(F)c1-c1ccc2[nH]nc(-c3cncc(N4CCCNCC4)n3)c2c1

>  <Name>  (473) 
nan

>  <Pocket>  (473) 
nan

>  <ATP_Site>  (473) 
nan

>  <Peripheral>  (473) 
nan

>  <Num_H_Atoms_ProtBoundConf>  (473) 
nan

>  <Num_Resolved_Atoms>  (473) 
nan

>  <Num_Not_Resolved_Atoms>  (473) 
nan

$$$$
CHEMBL3393693
     RDKit          3D

  0  0  0  0  0  0  0  0  0  0999 V3000
M  V30 BEGIN CTAB
M  V30 COUNTS 47 51 0 0 0
M  V30 BEGIN ATOM
M  V30 1 N -0.878073 -4.551092 -0.062673 0
M  V30 2 C -0.087596 -4.288716 1.109435 0
M  V30 3 C 1.274790 -4.953536 1.012893 0
M  V30 4 C 2.028198 -4.216810 2.128904 0
M  V30 5 N 1.651467 -2.849859 1.826094 0
M  V30 6 C 2.459148 -1.691933 1.987112 0
M  V30 7 C 3.739304 -1.833864 2.479364 0
M  V30 8 N 4.536864 -0.741240 2.644522 0
M  V30 9 C 4.003730 0.456685 2.303042 0
M  V30 10 C 2.723748 0.632041 1.806834 0
M  V30 11 C 2.251245 1.970213 1.470760 0
M  V30 12 N 2.910512 3.134302 1.576485 0
M  V30 13 N 2.149349 4.133063 1.173533 0
M  V30 14 C 0.939454 3.649505 0.781330 0
M  V30 15 C -0.191957 4.277572 0.284948 0
M  V30 16 C -1.296593 3.519653 -0.035292 0
M  V30 17 C -1.272154 2.155000 0.137412 0
M  V30 18 C -2.380160 1.254034 -0.167070 0
M  V30 19 C -3.326866 0.959611 0.812906 0
M  V30 20 F -3.183321 1.527017 2.028028 0
M  V30 21 C -4.367993 0.091849 0.471559 0
M  V30 22 C -4.457795 -0.460193 -0.802755 0
M  V30 23 C -3.507943 -0.153345 -1.756134 0
M  V30 24 C -2.488066 0.693959 -1.428913 0
M  V30 25 F -1.550515 0.994711 -2.375461 0
M  V30 26 C -0.132691 1.553314 0.633621 0
M  V30 27 C 1.001191 2.268985 0.969823 0
M  V30 28 N 1.984145 -0.480521 1.665591 0
M  V30 29 C 0.276245 -2.855082 1.317009 0
M  V30 30 H -1.619317 -3.843099 -0.203112 0
M  V30 31 H -0.348940 -4.821782 -0.899334 0
M  V30 32 H -0.552067 -4.710963 2.033302 0
M  V30 33 H 1.809907 -4.657437 0.075477 0
M  V30 34 H 1.251591 -6.032157 1.165496 0
M  V30 35 H 3.113311 -4.407403 2.060286 0
M  V30 36 H 1.603150 -4.592697 3.065995 0
M  V30 37 H 4.156703 -2.794161 2.749407 0
M  V30 38 H 4.699740 1.289922 2.461572 0
M  V30 39 H 2.358536 5.173352 1.126633 0
M  V30 40 H -0.223321 5.360929 0.143403 0
M  V30 41 H -2.221483 3.958914 -0.432137 0
M  V30 42 H -5.060153 -0.090098 1.275025 0
M  V30 43 H -5.308236 -1.130302 -0.980714 0
M  V30 44 H -3.613095 -0.595635 -2.715811 0
M  V30 45 H -0.066813 0.488986 0.785730 0
M  V30 46 H 0.215565 -2.315880 0.349715 0
M  V30 47 H -0.412659 -2.420086 2.067757 0
M  V30 END ATOM
M  V30 BEGIN BOND
M  V30 1 1 1 2
M  V30 2 1 2 3
M  V30 3 1 3 4
M  V30 4 1 4 5
M  V30 5 1 5 6
M  V30 6 2 6 7
M  V30 7 1 7 8
M  V30 8 2 8 9
M  V30 9 1 9 10
M  V30 10 1 10 11
M  V30 11 2 11 12
M  V30 12 1 12 13
M  V30 13 1 13 14
M  V30 14 2 14 15
M  V30 15 1 15 16
M  V30 16 2 16 17
M  V30 17 1 17 18
M  V30 18 2 18 19
M  V30 19 1 19 20
M  V30 20 1 19 21
M  V30 21 2 21 22
M  V30 22 1 22 23
M  V30 23 2 23 24
M  V30 24 1 24 25
M  V30 25 1 17 26
M  V30 26 2 26 27
M  V30 27 2 10 28
M  V30 28 1 5 29
M  V30 29 1 29 2
M  V30 30 1 28 6
M  V30 31 1 27 11
M  V30 32 1 27 14
M  V30 33 1 24 18
M  V30 34 1 1 30
M  V30 35 1 1 31
M  V30 36 1 2 32
M  V30 37 1 3 33
M  V30 38 1 3 34
M  V30 39 1 4 35
M  V30 40 1 4 36
M  V30 41 1 7 37
M  V30 42 1 9 38
M  V30 43 1 13 39
M  V30 44 1 15 40
M  V30 45 1 16 41
M  V30 46 1 21 42
M  V30 47 1 22 43
M  V30 48 1 23 44
M  V30 49 1 26 45
M  V30 50 1 29 46
M  V30 51 1 29 47
M  V30 END BOND
M  V30 END CTAB
M  END
>  <Dataset>  (474) 
ChEMBL_Kinases

>  <Ligand_Instance>  (474) 
nan

>  <PDB_ID>  (474) 
nan

>  <Standardized_SMILES>  (474) 
NC1CCN(c2cncc(-c3n[nH]c4ccc(-c5c(F)cccc5F)cc34)n2)C1

>  <Name>  (474) 
nan

>  <Pocket>  (474) 
nan

>  <ATP_Site>  (474) 
nan

>  <Peripheral>  (474) 
nan

>  <Num_H_Atoms_ProtBoundConf>  (474) 
nan

>  <Num_Resolved_Atoms>  (474) 
nan

>  <Num_Not_Resolved_Atoms>  (474) 
nan

$$$$
CHEMBL3393692
     RDKit          3D

  0  0  0  0  0  0  0  0  0  0999 V3000
M  V30 BEGIN CTAB
M  V30 COUNTS 50 54 0 0 0
M  V30 BEGIN ATOM
M  V30 1 N 0.066140 -1.741106 4.679343 0
M  V30 2 C -0.355554 -2.882566 3.896830 0
M  V30 3 C 0.704398 -3.934839 3.926198 0
M  V30 4 C 1.870518 -3.675241 3.001352 0
M  V30 5 N 1.596507 -2.599846 2.074739 0
M  V30 6 C 2.460780 -1.539085 1.747373 0
M  V30 7 C 3.729840 -1.458315 2.259002 0
M  V30 8 N 4.565684 -0.425578 1.941840 0
M  V30 9 C 4.120062 0.531934 1.103844 0
M  V30 10 C 2.829943 0.466875 0.572398 0
M  V30 11 C 2.415499 1.531853 -0.320524 0
M  V30 12 N 3.147163 2.597115 -0.709140 0
M  V30 13 N 2.465261 3.365653 -1.520735 0
M  V30 14 C 1.249051 2.864570 -1.720810 0
M  V30 15 C 0.166338 3.287552 -2.477738 0
M  V30 16 C -0.982282 2.526926 -2.474733 0
M  V30 17 C -1.061592 1.354017 -1.727792 0
M  V30 18 C -2.284647 0.527745 -1.713733 0
M  V30 19 C -3.225396 0.813774 -0.750522 0
M  V30 20 F -3.028604 1.819717 0.149497 0
M  V30 21 C -4.391374 0.098025 -0.662853 0
M  V30 22 C -4.619789 -0.920552 -1.553482 0
M  V30 23 C -3.682689 -1.227527 -2.535748 0
M  V30 24 C -2.493623 -0.496390 -2.623883 0
M  V30 25 F -1.541485 -0.760368 -3.572323 0
M  V30 26 C 0.049511 0.984654 -0.994147 0
M  V30 27 C 1.209027 1.699140 -0.961695 0
M  V30 28 N 2.034749 -0.578841 0.916272 0
M  V30 29 C 0.289351 -2.718206 1.481494 0
M  V30 30 C -0.774501 -2.492177 2.501942 0
M  V30 31 H -0.725673 -1.055647 4.799332 0
M  V30 32 H 0.914979 -1.285864 4.279228 0
M  V30 33 H -1.247424 -3.308746 4.401737 0
M  V30 34 H 0.278912 -4.947924 3.826466 0
M  V30 35 H 1.126087 -3.908954 4.973498 0
M  V30 36 H 1.968405 -4.609033 2.377011 0
M  V30 37 H 2.817657 -3.548992 3.527871 0
M  V30 38 H 4.161214 -2.178288 2.931219 0
M  V30 39 H 4.780270 1.359368 0.845439 0
M  V30 40 H 2.873003 4.236363 -1.921973 0
M  V30 41 H 0.226242 4.210192 -3.066409 0
M  V30 42 H -1.853781 2.828787 -3.058303 0
M  V30 43 H -5.133897 0.317612 0.090987 0
M  V30 44 H -5.538787 -1.510082 -1.510683 0
M  V30 45 H -3.860948 -2.032229 -3.240877 0
M  V30 46 H -0.015208 0.089952 -0.425411 0
M  V30 47 H 0.166221 -2.044667 0.611566 0
M  V30 48 H 0.187101 -3.781164 1.116047 0
M  V30 49 H -1.056370 -1.426132 2.491920 0
M  V30 50 H -1.694771 -3.064902 2.188333 0
M  V30 END ATOM
M  V30 BEGIN BOND
M  V30 1 1 1 2
M  V30 2 1 2 3
M  V30 3 1 3 4
M  V30 4 1 4 5
M  V30 5 1 5 6
M  V30 6 2 6 7
M  V30 7 1 7 8
M  V30 8 2 8 9
M  V30 9 1 9 10
M  V30 10 1 10 11
M  V30 11 2 11 12
M  V30 12 1 12 13
M  V30 13 1 13 14
M  V30 14 2 14 15
M  V30 15 1 15 16
M  V30 16 2 16 17
M  V30 17 1 17 18
M  V30 18 2 18 19
M  V30 19 1 19 20
M  V30 20 1 19 21
M  V30 21 2 21 22
M  V30 22 1 22 23
M  V30 23 2 23 24
M  V30 24 1 24 25
M  V30 25 1 17 26
M  V30 26 2 26 27
M  V30 27 2 10 28
M  V30 28 1 5 29
M  V30 29 1 29 30
M  V30 30 1 30 2
M  V30 31 1 28 6
M  V30 32 1 27 11
M  V30 33 1 27 14
M  V30 34 1 24 18
M  V30 35 1 1 31
M  V30 36 1 1 32
M  V30 37 1 2 33
M  V30 38 1 3 34
M  V30 39 1 3 35
M  V30 40 1 4 36
M  V30 41 1 4 37
M  V30 42 1 7 38
M  V30 43 1 9 39
M  V30 44 1 13 40
M  V30 45 1 15 41
M  V30 46 1 16 42
M  V30 47 1 21 43
M  V30 48 1 22 44
M  V30 49 1 23 45
M  V30 50 1 26 46
M  V30 51 1 29 47
M  V30 52 1 29 48
M  V30 53 1 30 49
M  V30 54 1 30 50
M  V30 END BOND
M  V30 END CTAB
M  END
>  <Dataset>  (475) 
ChEMBL_Kinases

>  <Ligand_Instance>  (475) 
nan

>  <PDB_ID>  (475) 
nan

>  <Standardized_SMILES>  (475) 
NC1CCN(c2cncc(-c3n[nH]c4ccc(-c5c(F)cccc5F)cc34)n2)CC1

>  <Name>  (475) 
nan

>  <Pocket>  (475) 
nan

>  <ATP_Site>  (475) 
nan

>  <Peripheral>  (475) 
nan

>  <Num_H_Atoms_ProtBoundConf>  (475) 
nan

>  <Num_Resolved_Atoms>  (475) 
nan

>  <Num_Not_Resolved_Atoms>  (475) 
nan

$$$$
CHEMBL4796190
     RDKit          3D

  0  0  0  0  0  0  0  0  0  0999 V3000
M  V30 BEGIN CTAB
M  V30 COUNTS 73 79 0 0 0
M  V30 BEGIN ATOM
M  V30 1 C 4.924442 5.493130 -4.306744 0
M  V30 2 N 3.648476 5.261398 -3.710892 0
M  V30 3 C 2.589089 4.920849 -4.604551 0
M  V30 4 C 1.408360 4.438153 -3.761734 0
M  V30 5 N 1.861458 4.156497 -2.392271 0
M  V30 6 C 2.021982 2.973001 -1.628484 0
M  V30 7 C 3.256753 2.640351 -1.137370 0
M  V30 8 C 3.372745 1.484828 -0.400910 0
M  V30 9 C 2.279748 0.677232 -0.158873 0
M  V30 10 C 1.043956 1.026502 -0.660385 0
M  V30 11 N -0.176157 0.476980 -0.605629 0
M  V30 12 C -1.125391 1.151965 -1.239998 0
M  V30 13 C -2.545632 1.009408 -1.477934 0
M  V30 14 N -3.325889 1.867558 -2.187668 0
M  V30 15 N -4.572868 1.471677 -2.225624 0
M  V30 16 C -4.724992 0.318140 -1.544554 0
M  V30 17 C -5.792868 -0.512653 -1.270211 0
M  V30 18 C -5.616792 -1.660035 -0.516569 0
M  V30 19 C -4.347239 -1.954857 -0.045061 0
M  V30 20 C -4.097934 -3.165929 0.770267 0
M  V30 21 C -5.016600 -3.719376 1.636313 0
M  V30 22 N -4.695075 -4.823373 2.335776 0
M  V30 23 C -3.499809 -5.419152 2.225470 0
M  V30 24 C -2.525017 -4.936853 1.387395 0
M  V30 25 C -1.178274 -5.525790 1.200399 0
M  V30 26 N -0.174646 -5.002083 2.079538 0
M  V30 27 C 1.129425 -5.636845 1.835921 0
M  V30 28 C 2.199178 -4.663936 2.317867 0
M  V30 29 C 1.630208 -3.846681 3.449006 0
M  V30 30 C 0.641015 -4.632435 4.301044 0
M  V30 31 C -0.492343 -5.203797 3.464529 0
M  V30 32 C -2.849872 -3.788849 0.655557 0
M  V30 33 C -3.322398 -1.086999 -0.352423 0
M  V30 34 C -3.449201 0.050136 -1.088321 0
M  V30 35 C -0.410969 2.243139 -1.744710 0
M  V30 36 C 0.918277 2.181719 -1.398965 0
M  V30 37 C 2.180739 5.472338 -1.818975 0
M  V30 38 C 3.290856 6.139969 -2.640874 0
M  V30 39 H 4.967340 5.312064 -5.394216 0
M  V30 40 H 5.346644 6.504703 -4.047198 0
M  V30 41 H 5.646765 4.744782 -3.865976 0
M  V30 42 H 2.278132 5.730950 -5.285846 0
M  V30 43 H 2.954504 4.086161 -5.249885 0
M  V30 44 H 1.003092 3.521815 -4.237306 0
M  V30 45 H 0.588772 5.176509 -3.791857 0
M  V30 46 H 4.121539 3.291801 -1.336312 0
M  V30 47 H 4.345644 1.217731 -0.010968 0
M  V30 48 H 2.359788 -0.218333 0.409561 0
M  V30 49 H -0.325016 -0.400222 -0.101813 0
M  V30 50 H -5.312064 2.006098 -2.725413 0
M  V30 51 H -6.766866 -0.218653 -1.674307 0
M  V30 52 H -6.456824 -2.309925 -0.302871 0
M  V30 53 H -5.972674 -3.196764 1.689202 0
M  V30 54 H -3.271785 -6.302960 2.799359 0
M  V30 55 H -1.311145 -6.634135 1.371514 0
M  V30 56 H -0.810109 -5.324436 0.155155 0
M  V30 57 H 1.245476 -5.936232 0.793399 0
M  V30 58 H 1.212156 -6.544616 2.498021 0
M  V30 59 H 3.121422 -5.234423 2.602891 0
M  V30 60 H 2.534981 -3.967426 1.531208 0
M  V30 61 H 1.123751 -2.954449 2.980683 0
M  V30 62 H 2.439059 -3.529803 4.141676 0
M  V30 63 H 1.205429 -5.402753 4.844168 0
M  V30 64 H 0.245276 -3.911848 5.051733 0
M  V30 65 H -1.480993 -4.838055 3.750875 0
M  V30 66 H -0.519672 -6.310339 3.645153 0
M  V30 67 H -2.101250 -3.387599 -0.011674 0
M  V30 68 H -2.362767 -1.366268 0.038847 0
M  V30 69 H -0.767001 3.075574 -2.338389 0
M  V30 70 H 2.477136 5.355919 -0.762562 0
M  V30 71 H 1.284982 6.149161 -1.824941 0
M  V30 72 H 2.998612 7.156557 -2.951113 0
M  V30 73 H 4.188038 6.222529 -1.978294 0
M  V30 END ATOM
M  V30 BEGIN BOND
M  V30 1 1 1 2
M  V30 2 1 2 3
M  V30 3 1 3 4
M  V30 4 1 4 5
M  V30 5 1 5 6
M  V30 6 2 6 7
M  V30 7 1 7 8
M  V30 8 2 8 9
M  V30 9 1 9 10
M  V30 10 1 10 11
M  V30 11 1 11 12
M  V30 12 1 12 13
M  V30 13 2 13 14
M  V30 14 1 14 15
M  V30 15 1 15 16
M  V30 16 2 16 17
M  V30 17 1 17 18
M  V30 18 2 18 19
M  V30 19 1 19 20
M  V30 20 2 20 21
M  V30 21 1 21 22
M  V30 22 2 22 23
M  V30 23 1 23 24
M  V30 24 1 24 25
M  V30 25 1 25 26
M  V30 26 1 26 27
M  V30 27 1 27 28
M  V30 28 1 28 29
M  V30 29 1 29 30
M  V30 30 1 30 31
M  V30 31 2 24 32
M  V30 32 1 19 33
M  V30 33 2 33 34
M  V30 34 2 12 35
M  V30 35 1 35 36
M  V30 36 1 5 37
M  V30 37 1 37 38
M  V30 38 1 38 2
M  V30 39 1 36 6
M  V30 40 2 36 10
M  V30 41 1 34 13
M  V30 42 1 34 16
M  V30 43 1 32 20
M  V30 44 1 31 26
M  V30 45 1 1 39
M  V30 46 1 1 40
M  V30 47 1 1 41
M  V30 48 1 3 42
M  V30 49 1 3 43
M  V30 50 1 4 44
M  V30 51 1 4 45
M  V30 52 1 7 46
M  V30 53 1 8 47
M  V30 54 1 9 48
M  V30 55 1 11 49
M  V30 56 1 15 50
M  V30 57 1 17 51
M  V30 58 1 18 52
M  V30 59 1 21 53
M  V30 60 1 23 54
M  V30 61 1 25 55
M  V30 62 1 25 56
M  V30 63 1 27 57
M  V30 64 1 27 58
M  V30 65 1 28 59
M  V30 66 1 28 60
M  V30 67 1 29 61
M  V30 68 1 29 62
M  V30 69 1 30 63
M  V30 70 1 30 64
M  V30 71 1 31 65
M  V30 72 1 31 66
M  V30 73 1 32 67
M  V30 74 1 33 68
M  V30 75 1 35 69
M  V30 76 1 37 70
M  V30 77 1 37 71
M  V30 78 1 38 72
M  V30 79 1 38 73
M  V30 END BOND
M  V30 END CTAB
M  END
>  <Dataset>  (476) 
ChEMBL_Kinases

>  <Ligand_Instance>  (476) 
nan

>  <PDB_ID>  (476) 
nan

>  <Standardized_SMILES>  (476) 
CN1CCN(c2cccc3[nH]c(-c4n[nH]c5ccc(-c6cncc(CN7CCCCC7)c6)cc45)cc23)CC1

>  <Name>  (476) 
nan

>  <Pocket>  (476) 
nan

>  <ATP_Site>  (476) 
nan

>  <Peripheral>  (476) 
nan

>  <Num_H_Atoms_ProtBoundConf>  (476) 
nan

>  <Num_Resolved_Atoms>  (476) 
nan

>  <Num_Not_Resolved_Atoms>  (476) 
nan

$$$$
CHEMBL3393702
     RDKit          3D

  0  0  0  0  0  0  0  0  0  0999 V3000
M  V30 BEGIN CTAB
M  V30 COUNTS 49 53 0 0 0
M  V30 BEGIN ATOM
M  V30 1 F 4.035522 -1.386705 0.900795 0
M  V30 2 C 3.558116 -1.393396 -0.375282 0
M  V30 3 C 3.771979 -2.592031 -1.055970 0
M  V30 4 C 3.323858 -2.695399 -2.355011 0
M  V30 5 C 2.680223 -1.650933 -2.977495 0
M  V30 6 C 2.468778 -0.463829 -2.302392 0
M  V30 7 F 1.838315 0.596991 -2.872905 0
M  V30 8 C 2.912953 -0.342873 -0.995531 0
M  V30 9 C 2.739449 0.873781 -0.188776 0
M  V30 10 C 3.693526 1.883639 -0.180614 0
M  V30 11 C 3.507061 3.018643 0.586810 0
M  V30 12 C 2.373143 3.171102 1.357847 0
M  V30 13 N 1.983672 4.164298 2.165702 0
M  V30 14 N 0.803522 3.826585 2.681666 0
M  V30 15 C 0.420245 2.638737 2.226938 0
M  V30 16 C -0.795651 1.844715 2.501242 0
M  V30 17 C -1.684724 2.429965 3.375198 0
M  V30 18 N -2.793884 1.718738 3.633239 0
M  V30 19 C -3.026251 0.528015 3.085784 0
M  V30 20 C -2.160381 -0.063518 2.222175 0
M  V30 21 O -2.120561 -1.242752 1.517256 0
M  V30 22 C -3.161122 -2.173707 1.607393 0
M  V30 23 C -2.693033 -3.477027 2.211471 0
M  V30 24 C -2.234711 -4.486521 1.207415 0
M  V30 25 C -1.897356 -3.737247 -0.065722 0
M  V30 26 N -3.156192 -3.274906 -0.594827 0
M  V30 27 C -3.835744 -2.358408 0.276988 0
M  V30 28 N -1.034665 0.629609 1.943705 0
M  V30 29 C 1.401919 2.180665 1.371219 0
M  V30 30 C 1.624754 1.075583 0.599157 0
M  V30 31 H 4.273279 -3.468918 -0.637216 0
M  V30 32 H 3.474757 -3.607641 -2.904627 0
M  V30 33 H 2.335102 -1.749402 -3.997652 0
M  V30 34 H 4.585189 1.769281 -0.783717 0
M  V30 35 H 4.271809 3.770847 0.560320 0
M  V30 36 H 2.491341 5.052738 2.372659 0
M  V30 37 H -1.566434 3.387420 3.856737 0
M  V30 38 H -3.905602 -0.065968 3.272943 0
M  V30 39 H -3.930260 -1.785513 2.296155 0
M  V30 40 H -1.850260 -3.274087 2.905938 0
M  V30 41 H -3.492312 -3.944039 2.829608 0
M  V30 42 H -1.331554 -5.021621 1.563168 0
M  V30 43 H -3.066667 -5.200685 0.975571 0
M  V30 44 H -1.469620 -4.435838 -0.816397 0
M  V30 45 H -1.205754 -2.907203 0.151406 0
M  V30 46 H -3.758485 -4.145901 -0.679544 0
M  V30 47 H -4.892780 -2.641376 0.414441 0
M  V30 48 H -3.803356 -1.370004 -0.228116 0
M  V30 49 H 0.891747 0.288643 0.586445 0
M  V30 END ATOM
M  V30 BEGIN BOND
M  V30 1 1 1 2
M  V30 2 2 2 3
M  V30 3 1 3 4
M  V30 4 2 4 5
M  V30 5 1 5 6
M  V30 6 1 6 7
M  V30 7 2 6 8
M  V30 8 1 8 9
M  V30 9 2 9 10
M  V30 10 1 10 11
M  V30 11 2 11 12
M  V30 12 1 12 13
M  V30 13 1 13 14
M  V30 14 2 14 15
M  V30 15 1 15 16
M  V30 16 2 16 17
M  V30 17 1 17 18
M  V30 18 2 18 19
M  V30 19 1 19 20
M  V30 20 1 20 21
M  V30 21 1 21 22
M  V30 22 1 22 23
M  V30 23 1 23 24
M  V30 24 1 24 25
M  V30 25 1 25 26
M  V30 26 1 26 27
M  V30 27 2 20 28
M  V30 28 1 15 29
M  V30 29 2 29 30
M  V30 30 1 8 2
M  V30 31 1 30 9
M  V30 32 1 29 12
M  V30 33 1 28 16
M  V30 34 1 27 22
M  V30 35 1 3 31
M  V30 36 1 4 32
M  V30 37 1 5 33
M  V30 38 1 10 34
M  V30 39 1 11 35
M  V30 40 1 13 36
M  V30 41 1 17 37
M  V30 42 1 19 38
M  V30 43 1 22 39
M  V30 44 1 23 40
M  V30 45 1 23 41
M  V30 46 1 24 42
M  V30 47 1 24 43
M  V30 48 1 25 44
M  V30 49 1 25 45
M  V30 50 1 26 46
M  V30 51 1 27 47
M  V30 52 1 27 48
M  V30 53 1 30 49
M  V30 END BOND
M  V30 END CTAB
M  END
>  <Dataset>  (477) 
ChEMBL_Kinases

>  <Ligand_Instance>  (477) 
nan

>  <PDB_ID>  (477) 
nan

>  <Standardized_SMILES>  (477) 
Fc1cccc(F)c1-c1ccc2[nH]nc(-c3cncc(OC4CCCNC4)n3)c2c1

>  <Name>  (477) 
nan

>  <Pocket>  (477) 
nan

>  <ATP_Site>  (477) 
nan

>  <Peripheral>  (477) 
nan

>  <Num_H_Atoms_ProtBoundConf>  (477) 
nan

>  <Num_Resolved_Atoms>  (477) 
nan

>  <Num_Not_Resolved_Atoms>  (477) 
nan

$$$$
CHEMBL3394070
     RDKit          3D

  0  0  0  0  0  0  0  0  0  0999 V3000
M  V30 BEGIN CTAB
M  V30 COUNTS 50 54 0 0 0
M  V30 BEGIN ATOM
M  V30 1 N -0.072117 -6.847373 -0.401024 0
M  V30 2 C 0.404130 -5.640670 -1.032287 0
M  V30 3 N 0.881746 -5.328068 -2.065564 0
M  V30 4 N 1.261534 -4.190960 -2.490076 0
M  V30 5 C 1.127412 -3.148425 -1.695032 0
M  V30 6 C 1.513626 -1.717098 -2.003674 0
M  V30 7 C 2.089477 -1.549315 -3.224511 0
M  V30 8 C 2.482420 -0.274560 -3.550598 0
M  V30 9 C 2.268095 0.728475 -2.630695 0
M  V30 10 N 2.617397 2.006360 -2.808412 0
M  V30 11 C 2.269191 2.672447 -1.704682 0
M  V30 12 C 1.678820 1.770590 -0.805809 0
M  V30 13 C 1.197695 2.108973 0.522108 0
M  V30 14 C 1.687793 3.318703 1.035310 0
M  V30 15 C 1.429961 3.855547 2.269807 0
M  V30 16 C 0.601244 3.105592 3.060659 0
M  V30 17 C 0.082419 1.886952 2.592893 0
M  V30 18 N -0.780737 1.160556 3.456635 0
M  V30 19 C -1.526593 -0.039551 3.303065 0
M  V30 20 C -2.614022 0.063842 2.256202 0
M  V30 21 C -3.465368 -1.143929 2.148861 0
M  V30 22 C -2.810532 -2.317993 2.835887 0
M  V30 23 C -1.367964 -2.315769 2.303984 0
M  V30 24 C -0.642729 -1.239016 3.079061 0
M  V30 25 N 0.395294 1.437897 1.358248 0
M  V30 26 C 1.680514 0.527311 -1.401235 0
M  V30 27 C 1.280381 -0.743962 -1.057963 0
M  V30 28 S 0.394182 -3.916762 -0.237780 0
M  V30 29 H 0.609024 -7.353046 0.211470 0
M  V30 30 H -1.004032 -7.318668 -0.449023 0
M  V30 31 H 2.245271 -2.358123 -3.928715 0
M  V30 32 H 2.940983 -0.139467 -4.522237 0
M  V30 33 H 3.080949 2.472611 -3.631964 0
M  V30 34 H 2.436341 3.753458 -1.566395 0
M  V30 35 H 2.361716 3.966672 0.443156 0
M  V30 36 H 1.835608 4.792623 2.615128 0
M  V30 37 H 0.369785 3.504464 4.063088 0
M  V30 38 H -0.903635 1.583086 4.410864 0
M  V30 39 H -2.065594 -0.258082 4.241398 0
M  V30 40 H -3.234473 0.961761 2.434025 0
M  V30 41 H -2.089200 0.210503 1.289105 0
M  V30 42 H -4.428094 -0.941691 2.682562 0
M  V30 43 H -3.733511 -1.414255 1.101508 0
M  V30 44 H -3.242929 -3.299053 2.548354 0
M  V30 45 H -2.809699 -2.127483 3.909880 0
M  V30 46 H -0.933786 -3.286112 2.571095 0
M  V30 47 H -1.381086 -2.121708 1.234852 0
M  V30 48 H -0.268998 -1.684868 4.014995 0
M  V30 49 H 0.229868 -0.925862 2.479452 0
M  V30 50 H 0.823745 -0.887990 -0.096713 0
M  V30 END ATOM
M  V30 BEGIN BOND
M  V30 1 1 1 2
M  V30 2 2 2 3
M  V30 3 1 3 4
M  V30 4 2 4 5
M  V30 5 1 5 6
M  V30 6 2 6 7
M  V30 7 1 7 8
M  V30 8 2 8 9
M  V30 9 1 9 10
M  V30 10 1 10 11
M  V30 11 2 11 12
M  V30 12 1 12 13
M  V30 13 2 13 14
M  V30 14 1 14 15
M  V30 15 2 15 16
M  V30 16 1 16 17
M  V30 17 1 17 18
M  V30 18 1 18 19
M  V30 19 1 19 20
M  V30 20 1 20 21
M  V30 21 1 21 22
M  V30 22 1 22 23
M  V30 23 1 23 24
M  V30 24 2 17 25
M  V30 25 1 12 26
M  V30 26 2 26 27
M  V30 27 1 5 28
M  V30 28 1 28 2
M  V30 29 1 27 6
M  V30 30 1 26 9
M  V30 31 1 25 13
M  V30 32 1 24 19
M  V30 33 1 1 29
M  V30 34 1 1 30
M  V30 35 1 7 31
M  V30 36 1 8 32
M  V30 37 1 10 33
M  V30 38 1 11 34
M  V30 39 1 14 35
M  V30 40 1 15 36
M  V30 41 1 16 37
M  V30 42 1 18 38
M  V30 43 1 19 39
M  V30 44 1 20 40
M  V30 45 1 20 41
M  V30 46 1 21 42
M  V30 47 1 21 43
M  V30 48 1 22 44
M  V30 49 1 22 45
M  V30 50 1 23 46
M  V30 51 1 23 47
M  V30 52 1 24 48
M  V30 53 1 24 49
M  V30 54 1 27 50
M  V30 END BOND
M  V30 END CTAB
M  END
>  <Dataset>  (478) 
ChEMBL_Kinases

>  <Ligand_Instance>  (478) 
nan

>  <PDB_ID>  (478) 
nan

>  <Standardized_SMILES>  (478) 
Nc1nnc(-c2ccc3[nH]cc(-c4cccc(NC5CCCCC5)n4)c3c2)s1

>  <Name>  (478) 
nan

>  <Pocket>  (478) 
nan

>  <ATP_Site>  (478) 
nan

>  <Peripheral>  (478) 
nan

>  <Num_H_Atoms_ProtBoundConf>  (478) 
nan

>  <Num_Resolved_Atoms>  (478) 
nan

>  <Num_Not_Resolved_Atoms>  (478) 
nan

$$$$
CHEMBL3394069
     RDKit          3D

  0  0  0  0  0  0  0  0  0  0999 V3000
M  V30 BEGIN CTAB
M  V30 COUNTS 47 51 0 0 0
M  V30 BEGIN ATOM
M  V30 1 N 0.496289 -6.812806 2.484333 0
M  V30 2 C 0.562845 -6.006310 1.258019 0
M  V30 3 N 0.720036 -6.378602 0.162001 0
M  V30 4 N 0.779797 -5.675462 -0.921974 0
M  V30 5 C 0.678513 -4.493980 -0.959726 0
M  V30 6 C 0.680231 -3.338897 -1.887011 0
M  V30 7 C 0.851538 -3.562019 -3.228055 0
M  V30 8 C 0.857097 -2.503449 -4.112290 0
M  V30 9 C 0.693088 -1.203859 -3.684788 0
M  V30 10 N 0.656006 -0.010670 -4.297343 0
M  V30 11 C 0.466343 0.950621 -3.375704 0
M  V30 12 C 0.373180 0.411089 -2.125252 0
M  V30 13 C 0.167780 1.111787 -0.858582 0
M  V30 14 C 0.048801 2.473198 -0.873315 0
M  V30 15 C -0.143807 3.118467 0.325015 0
M  V30 16 C -0.202795 2.340357 1.457405 0
M  V30 17 C -0.084866 0.969468 1.488337 0
M  V30 18 N -0.145985 0.165849 2.643868 0
M  V30 19 C -0.344543 0.577074 4.006980 0
M  V30 20 C 0.687860 1.537004 4.524635 0
M  V30 21 C -0.026258 2.652304 5.235082 0
M  V30 22 C -1.484188 2.477205 4.995407 0
M  V30 23 C -1.678092 1.240284 4.162931 0
M  V30 24 N 0.101071 0.414357 0.278433 0
M  V30 25 C 0.517095 -0.960630 -2.318145 0
M  V30 26 C 0.515891 -2.036632 -1.458712 0
M  V30 27 S 0.437490 -4.137491 0.890022 0
M  V30 28 H 1.441642 -7.094931 2.789164 0
M  V30 29 H -0.431500 -7.038739 2.944453 0
M  V30 30 H 0.975717 -4.575484 -3.528638 0
M  V30 31 H 0.995386 -2.725597 -5.161714 0
M  V30 32 H 0.768559 0.043130 -5.336417 0
M  V30 33 H 0.399618 1.998338 -3.610775 0
M  V30 34 H 0.100710 3.048032 -1.783367 0
M  V30 35 H -0.240875 4.189870 0.343736 0
M  V30 36 H -0.351955 2.877167 2.370578 0
M  V30 37 H -0.031611 -0.881606 2.500089 0
M  V30 38 H -0.351783 -0.295006 4.707102 0
M  V30 39 H 1.371273 1.919116 3.712421 0
M  V30 40 H 1.366775 1.032005 5.273978 0
M  V30 41 H 0.216517 2.646141 6.334210 0
M  V30 42 H 0.270968 3.658535 4.830729 0
M  V30 43 H -1.978259 2.306352 5.987019 0
M  V30 44 H -1.935241 3.383119 4.494589 0
M  V30 45 H -2.429513 0.562695 4.641720 0
M  V30 46 H -2.126495 1.530553 3.204101 0
M  V30 47 H 0.379738 -1.846220 -0.402952 0
M  V30 END ATOM
M  V30 BEGIN BOND
M  V30 1 1 1 2
M  V30 2 2 2 3
M  V30 3 1 3 4
M  V30 4 2 4 5
M  V30 5 1 5 6
M  V30 6 2 6 7
M  V30 7 1 7 8
M  V30 8 2 8 9
M  V30 9 1 9 10
M  V30 10 1 10 11
M  V30 11 2 11 12
M  V30 12 1 12 13
M  V30 13 2 13 14
M  V30 14 1 14 15
M  V30 15 2 15 16
M  V30 16 1 16 17
M  V30 17 1 17 18
M  V30 18 1 18 19
M  V30 19 1 19 20
M  V30 20 1 20 21
M  V30 21 1 21 22
M  V30 22 1 22 23
M  V30 23 2 17 24
M  V30 24 1 12 25
M  V30 25 2 25 26
M  V30 26 1 5 27
M  V30 27 1 27 2
M  V30 28 1 26 6
M  V30 29 1 25 9
M  V30 30 1 24 13
M  V30 31 1 23 19
M  V30 32 1 1 28
M  V30 33 1 1 29
M  V30 34 1 7 30
M  V30 35 1 8 31
M  V30 36 1 10 32
M  V30 37 1 11 33
M  V30 38 1 14 34
M  V30 39 1 15 35
M  V30 40 1 16 36
M  V30 41 1 18 37
M  V30 42 1 19 38
M  V30 43 1 20 39
M  V30 44 1 20 40
M  V30 45 1 21 41
M  V30 46 1 21 42
M  V30 47 1 22 43
M  V30 48 1 22 44
M  V30 49 1 23 45
M  V30 50 1 23 46
M  V30 51 1 26 47
M  V30 END BOND
M  V30 END CTAB
M  END
>  <Dataset>  (479) 
ChEMBL_Kinases

>  <Ligand_Instance>  (479) 
nan

>  <PDB_ID>  (479) 
nan

>  <Standardized_SMILES>  (479) 
Nc1nnc(-c2ccc3[nH]cc(-c4cccc(NC5CCCC5)n4)c3c2)s1

>  <Name>  (479) 
nan

>  <Pocket>  (479) 
nan

>  <ATP_Site>  (479) 
nan

>  <Peripheral>  (479) 
nan

>  <Num_H_Atoms_ProtBoundConf>  (479) 
nan

>  <Num_Resolved_Atoms>  (479) 
nan

>  <Num_Not_Resolved_Atoms>  (479) 
nan

$$$$
CHEMBL4797672
     RDKit          3D

  0  0  0  0  0  0  0  0  0  0999 V3000
M  V30 BEGIN CTAB
M  V30 COUNTS 46 51 0 0 0
M  V30 BEGIN ATOM
M  V30 1 C 1.706207 -1.800983 2.601707 0
M  V30 2 C 3.025774 -1.187631 2.362886 0
M  V30 3 C 4.191256 -1.921415 2.286318 0
M  V30 4 C 5.386293 -1.270601 2.061565 0
M  V30 5 N 5.435717 0.054769 1.916942 0
M  V30 6 C 4.293130 0.795098 1.989802 0
M  V30 7 C 3.055547 0.183566 2.216021 0
M  V30 8 C 1.917023 1.088618 2.269481 0
M  V30 9 C 2.021354 2.251703 3.008842 0
M  V30 10 C 0.970155 3.148055 3.093468 0
M  V30 11 C -0.229413 2.929276 2.448504 0
M  V30 12 N -1.415565 3.586213 2.332413 0
M  V30 13 N -2.227295 2.857775 1.549369 0
M  V30 14 C -1.580636 1.744104 1.161394 0
M  V30 15 C -2.117711 0.692375 0.302637 0
M  V30 16 N -1.471152 -0.421663 -0.085907 0
M  V30 17 C -2.268338 -1.173120 -0.877127 0
M  V30 18 C -2.168218 -2.374125 -1.552155 0
M  V30 19 C -0.927388 -3.121675 -1.467049 0
M  V30 20 C 0.350847 -2.663394 -1.581985 0
M  V30 21 C 1.432464 -3.538895 -1.471230 0
M  V30 22 S 0.631493 -5.230612 -1.167832 0
M  V30 23 C -1.056837 -4.600520 -1.219455 0
M  V30 24 N -3.173346 -2.855682 -2.271256 0
M  V30 25 C -4.361955 -2.243124 -2.414983 0
M  V30 26 C -4.477796 -1.043212 -1.747386 0
M  V30 27 C -3.473306 -0.484834 -0.982649 0
M  V30 28 N -3.344288 0.649325 -0.249319 0
M  V30 29 C -0.316409 1.763440 1.714887 0
M  V30 30 C 0.730200 0.867822 1.628679 0
M  V30 31 H 1.004592 -1.122688 3.130164 0
M  V30 32 H 1.305461 -2.224549 1.668027 0
M  V30 33 H 1.820165 -2.681410 3.294308 0
M  V30 34 H 4.140052 -2.993547 2.404777 0
M  V30 35 H 6.309332 -1.855243 2.001299 0
M  V30 36 H 4.411474 1.880328 1.861200 0
M  V30 37 H 2.927401 2.491471 3.540411 0
M  V30 38 H 1.078107 4.055304 3.681530 0
M  V30 39 H -1.588514 4.505330 2.807272 0
M  V30 40 H 0.501554 -1.615340 -1.759262 0
M  V30 41 H 2.482853 -3.226098 -1.555248 0
M  V30 42 H -1.944814 -5.135305 -1.103946 0
M  V30 43 H -5.173031 -2.658668 -3.011361 0
M  V30 44 H -5.407563 -0.462552 -1.799169 0
M  V30 45 H -4.115067 1.337239 -0.168752 0
M  V30 46 H 0.598488 -0.021393 1.040071 0
M  V30 END ATOM
M  V30 BEGIN BOND
M  V30 1 1 1 2
M  V30 2 2 2 3
M  V30 3 1 3 4
M  V30 4 2 4 5
M  V30 5 1 5 6
M  V30 6 2 6 7
M  V30 7 1 7 8
M  V30 8 2 8 9
M  V30 9 1 9 10
M  V30 10 2 10 11
M  V30 11 1 11 12
M  V30 12 1 12 13
M  V30 13 2 13 14
M  V30 14 1 14 15
M  V30 15 2 15 16
M  V30 16 1 16 17
M  V30 17 2 17 18
M  V30 18 1 18 19
M  V30 19 1 19 20
M  V30 20 2 20 21
M  V30 21 1 21 22
M  V30 22 1 22 23
M  V30 23 1 18 24
M  V30 24 2 24 25
M  V30 25 1 25 26
M  V30 26 2 26 27
M  V30 27 1 27 28
M  V30 28 1 14 29
M  V30 29 2 29 30
M  V30 30 1 7 2
M  V30 31 1 30 8
M  V30 32 1 29 11
M  V30 33 1 28 15
M  V30 34 1 27 17
M  V30 35 2 23 19
M  V30 36 1 1 31
M  V30 37 1 1 32
M  V30 38 1 1 33
M  V30 39 1 3 34
M  V30 40 1 4 35
M  V30 41 1 6 36
M  V30 42 1 9 37
M  V30 43 1 10 38
M  V30 44 1 12 39
M  V30 45 1 20 40
M  V30 46 1 21 41
M  V30 47 1 23 42
M  V30 48 1 25 43
M  V30 49 1 26 44
M  V30 50 1 28 45
M  V30 51 1 30 46
M  V30 END BOND
M  V30 END CTAB
M  END
>  <Dataset>  (480) 
ChEMBL_Kinases

>  <Ligand_Instance>  (480) 
nan

>  <PDB_ID>  (480) 
nan

>  <Standardized_SMILES>  (480) 
Cc1ccncc1-c1ccc2[nH]nc(-c3nc4c(-c5ccsc5)nccc4[nH]3)c2c1

>  <Name>  (480) 
nan

>  <Pocket>  (480) 
nan

>  <ATP_Site>  (480) 
nan

>  <Peripheral>  (480) 
nan

>  <Num_H_Atoms_ProtBoundConf>  (480) 
nan

>  <Num_Resolved_Atoms>  (480) 
nan

>  <Num_Not_Resolved_Atoms>  (480) 
nan

$$$$
CHEMBL3394068
     RDKit          3D

  0  0  0  0  0  0  0  0  0  0999 V3000
M  V30 BEGIN CTAB
M  V30 COUNTS 43 46 0 0 0
M  V30 BEGIN ATOM
M  V30 1 C 0.699951 -4.787553 0.984030 0
M  V30 2 C -0.224160 -3.587604 0.863463 0
M  V30 3 C -1.617105 -4.165784 0.654956 0
M  V30 4 N 0.197167 -2.830379 -0.289052 0
M  V30 5 C 1.246579 -2.125796 -0.929505 0
M  V30 6 C 2.121724 -2.626909 -1.873023 0
M  V30 7 C 3.072067 -1.747157 -2.353615 0
M  V30 8 C 3.103552 -0.435607 -1.879711 0
M  V30 9 C 2.221661 0.040270 -0.939414 0
M  V30 10 C 2.292678 1.416340 -0.462964 0
M  V30 11 C 3.125452 2.450572 -0.831177 0
M  V30 12 N 2.828660 3.560423 -0.107452 0
M  V30 13 C 1.830707 3.277990 0.717848 0
M  V30 14 C 1.156088 4.027404 1.657219 0
M  V30 15 C 0.127599 3.532642 2.431658 0
M  V30 16 C -0.176156 2.230506 2.195579 0
M  V30 17 C -1.283735 1.588210 2.990312 0
M  V30 18 N -2.043791 1.926729 3.839781 0
M  V30 19 N -2.934907 1.172079 4.389435 0
M  V30 20 C -3.137687 0.056205 4.147995 0
M  V30 21 N -3.864163 -1.221762 4.338735 0
M  V30 22 S -1.819630 -0.216599 2.795871 0
M  V30 23 C 0.454264 1.420780 1.273108 0
M  V30 24 C 1.478229 1.953888 0.518578 0
M  V30 25 N 1.307570 -0.836135 -0.488843 0
M  V30 26 H 0.267190 -5.678325 0.499877 0
M  V30 27 H 1.666471 -4.605698 0.445087 0
M  V30 28 H 0.906192 -4.952406 2.063705 0
M  V30 29 H -0.264014 -2.973523 1.782223 0
M  V30 30 H -2.421873 -3.499218 0.990558 0
M  V30 31 H -1.783706 -4.395217 -0.419547 0
M  V30 32 H -1.705263 -5.124282 1.185845 0
M  V30 33 H -0.527929 -2.682608 -1.052408 0
M  V30 34 H 1.984294 -3.657737 -2.144888 0
M  V30 35 H 3.755685 -2.129804 -3.088209 0
M  V30 36 H 3.868570 0.221196 -2.286943 0
M  V30 37 H 3.884964 2.337839 -1.590650 0
M  V30 38 H 3.318819 4.467495 -0.205678 0
M  V30 39 H 1.389729 5.084824 1.860808 0
M  V30 40 H -0.458196 4.031872 3.184809 0
M  V30 41 H -3.954794 -1.521647 5.327855 0
M  V30 42 H -4.258240 -1.782548 3.532233 0
M  V30 43 H 0.144451 0.407654 1.160305 0
M  V30 END ATOM
M  V30 BEGIN BOND
M  V30 1 1 1 2
M  V30 2 1 2 3
M  V30 3 1 2 4
M  V30 4 1 4 5
M  V30 5 2 5 6
M  V30 6 1 6 7
M  V30 7 2 7 8
M  V30 8 1 8 9
M  V30 9 1 9 10
M  V30 10 2 10 11
M  V30 11 1 11 12
M  V30 12 1 12 13
M  V30 13 2 13 14
M  V30 14 1 14 15
M  V30 15 2 15 16
M  V30 16 1 16 17
M  V30 17 2 17 18
M  V30 18 1 18 19
M  V30 19 2 19 20
M  V30 20 1 20 21
M  V30 21 1 20 22
M  V30 22 1 16 23
M  V30 23 2 23 24
M  V30 24 2 9 25
M  V30 25 1 25 5
M  V30 26 1 24 10
M  V30 27 1 24 13
M  V30 28 1 22 17
M  V30 29 1 1 26
M  V30 30 1 1 27
M  V30 31 1 1 28
M  V30 32 1 2 29
M  V30 33 1 3 30
M  V30 34 1 3 31
M  V30 35 1 3 32
M  V30 36 1 4 33
M  V30 37 1 6 34
M  V30 38 1 7 35
M  V30 39 1 8 36
M  V30 40 1 11 37
M  V30 41 1 12 38
M  V30 42 1 14 39
M  V30 43 1 15 40
M  V30 44 1 21 41
M  V30 45 1 21 42
M  V30 46 1 23 43
M  V30 END BOND
M  V30 END CTAB
M  END
>  <Dataset>  (481) 
ChEMBL_Kinases

>  <Ligand_Instance>  (481) 
nan

>  <PDB_ID>  (481) 
nan

>  <Standardized_SMILES>  (481) 
CC(C)Nc1cccc(-c2c[nH]c3ccc(-c4nnc(N)s4)cc23)n1

>  <Name>  (481) 
nan

>  <Pocket>  (481) 
nan

>  <ATP_Site>  (481) 
nan

>  <Peripheral>  (481) 
nan

>  <Num_H_Atoms_ProtBoundConf>  (481) 
nan

>  <Num_Resolved_Atoms>  (481) 
nan

>  <Num_Not_Resolved_Atoms>  (481) 
nan

$$$$
CHEMBL3394067
     RDKit          3D

  0  0  0  0  0  0  0  0  0  0999 V3000
M  V30 BEGIN CTAB
M  V30 COUNTS 45 49 0 0 0
M  V30 BEGIN ATOM
M  V30 1 N -0.486302 -5.875776 3.529135 0
M  V30 2 C -0.701833 -5.214580 2.224306 0
M  V30 3 N -1.159491 -5.640360 1.273881 0
M  V30 4 N -1.354527 -5.072546 0.123486 0
M  V30 5 C -1.041279 -3.926676 -0.075981 0
M  V30 6 C -1.041486 -2.855104 -1.142570 0
M  V30 7 C -1.553828 -3.178680 -2.359001 0
M  V30 8 C -1.581501 -2.242799 -3.373062 0
M  V30 9 C -1.092557 -0.968172 -3.172921 0
M  V30 10 N -0.998889 0.108479 -3.962617 0
M  V30 11 C -0.435185 1.119180 -3.275433 0
M  V30 12 C -0.159562 0.656299 -1.987444 0
M  V30 13 C 0.455231 1.439994 -0.920961 0
M  V30 14 C 0.813282 2.735235 -1.133824 0
M  V30 15 C 1.399290 3.590114 -0.224402 0
M  V30 16 C 1.644964 3.072594 1.027824 0
M  V30 17 C 1.284787 1.742793 1.268674 0
M  V30 18 N 1.531949 1.192345 2.558057 0
M  V30 19 C 1.234484 -0.156077 3.004416 0
M  V30 20 C 0.256943 -0.078585 4.152403 0
M  V30 21 O 0.606369 0.900044 5.075751 0
M  V30 22 C 1.926215 1.315192 4.924516 0
M  V30 23 C 2.139229 1.980054 3.599479 0
M  V30 24 N 0.716084 0.980197 0.319433 0
M  V30 25 C -0.576367 -0.659710 -1.929891 0
M  V30 26 C -0.553492 -1.599941 -0.925917 0
M  V30 27 S -0.320389 -3.451799 1.615885 0
M  V30 28 H 0.382838 -6.435579 3.638948 0
M  V30 29 H -1.176135 -5.783175 4.302193 0
M  V30 30 H -1.926901 -4.167033 -2.495996 0
M  V30 31 H -1.995232 -2.540957 -4.318669 0
M  V30 32 H -1.332985 0.106461 -4.963718 0
M  V30 33 H -0.233711 2.122345 -3.668355 0
M  V30 34 H 0.629116 3.173010 -2.122069 0
M  V30 35 H 1.661435 4.615024 -0.456411 0
M  V30 36 H 2.095741 3.685061 1.772239 0
M  V30 37 H 2.134682 -0.717668 3.263789 0
M  V30 38 H 0.703543 -0.690792 2.188841 0
M  V30 39 H 0.240061 -1.056763 4.654928 0
M  V30 40 H -0.740778 0.178945 3.755951 0
M  V30 41 H 2.120236 2.052489 5.728309 0
M  V30 42 H 2.585008 0.449349 5.098250 0
M  V30 43 H 1.636362 2.967841 3.641302 0
M  V30 44 H 3.240773 2.105328 3.443903 0
M  V30 45 H -0.147357 -1.348603 0.043487 0
M  V30 END ATOM
M  V30 BEGIN BOND
M  V30 1 1 1 2
M  V30 2 2 2 3
M  V30 3 1 3 4
M  V30 4 2 4 5
M  V30 5 1 5 6
M  V30 6 2 6 7
M  V30 7 1 7 8
M  V30 8 2 8 9
M  V30 9 1 9 10
M  V30 10 1 10 11
M  V30 11 2 11 12
M  V30 12 1 12 13
M  V30 13 2 13 14
M  V30 14 1 14 15
M  V30 15 2 15 16
M  V30 16 1 16 17
M  V30 17 1 17 18
M  V30 18 1 18 19
M  V30 19 1 19 20
M  V30 20 1 20 21
M  V30 21 1 21 22
M  V30 22 1 22 23
M  V30 23 2 17 24
M  V30 24 1 12 25
M  V30 25 2 25 26
M  V30 26 1 5 27
M  V30 27 1 27 2
M  V30 28 1 26 6
M  V30 29 1 25 9
M  V30 30 1 24 13
M  V30 31 1 23 18
M  V30 32 1 1 28
M  V30 33 1 1 29
M  V30 34 1 7 30
M  V30 35 1 8 31
M  V30 36 1 10 32
M  V30 37 1 11 33
M  V30 38 1 14 34
M  V30 39 1 15 35
M  V30 40 1 16 36
M  V30 41 1 19 37
M  V30 42 1 19 38
M  V30 43 1 20 39
M  V30 44 1 20 40
M  V30 45 1 22 41
M  V30 46 1 22 42
M  V30 47 1 23 43
M  V30 48 1 23 44
M  V30 49 1 26 45
M  V30 END BOND
M  V30 END CTAB
M  END
>  <Dataset>  (482) 
ChEMBL_Kinases

>  <Ligand_Instance>  (482) 
nan

>  <PDB_ID>  (482) 
nan

>  <Standardized_SMILES>  (482) 
Nc1nnc(-c2ccc3[nH]cc(-c4cccc(N5CCOCC5)n4)c3c2)s1

>  <Name>  (482) 
nan

>  <Pocket>  (482) 
nan

>  <ATP_Site>  (482) 
nan

>  <Peripheral>  (482) 
nan

>  <Num_H_Atoms_ProtBoundConf>  (482) 
nan

>  <Num_Resolved_Atoms>  (482) 
nan

>  <Num_Not_Resolved_Atoms>  (482) 
nan

$$$$
CHEMBL3394066
     RDKit          3D

  0  0  0  0  0  0  0  0  0  0999 V3000
M  V30 BEGIN CTAB
M  V30 COUNTS 44 48 0 0 0
M  V30 BEGIN ATOM
M  V30 1 N 1.064210 -6.224680 2.439912 0
M  V30 2 C 1.141843 -5.355845 1.306507 0
M  V30 3 N 1.421549 -5.594899 0.165321 0
M  V30 4 N 1.470379 -4.752321 -0.806239 0
M  V30 5 C 1.203525 -3.519419 -0.595072 0
M  V30 6 C 1.203223 -2.408589 -1.563826 0
M  V30 7 C 1.513842 -2.633238 -2.866702 0
M  V30 8 C 1.501025 -1.564405 -3.738341 0
M  V30 9 C 1.166364 -0.309457 -3.219268 0
M  V30 10 N 1.084591 0.874425 -3.858556 0
M  V30 11 C 0.725542 1.856539 -2.983474 0
M  V30 12 C 0.578903 1.246698 -1.743191 0
M  V30 13 C 0.198443 1.916658 -0.492218 0
M  V30 14 C -0.044863 3.262626 -0.493231 0
M  V30 15 C -0.404036 3.905189 0.678914 0
M  V30 16 C -0.518480 3.180810 1.863522 0
M  V30 17 C -0.268864 1.831694 1.836858 0
M  V30 18 N -0.352850 0.992436 2.974595 0
M  V30 19 C -0.103720 -0.454165 3.036226 0
M  V30 20 C -0.863323 -0.841764 4.272076 0
M  V30 21 C -0.462504 0.290694 5.225410 0
M  V30 22 C -0.718511 1.486735 4.306261 0
M  V30 23 N 0.076125 1.277349 0.656129 0
M  V30 24 C 0.853223 -0.098489 -1.892279 0
M  V30 25 C 0.873590 -1.185455 -1.041242 0
M  V30 26 S 0.833734 -3.468902 1.145570 0
M  V30 27 H 1.919300 -6.064431 3.045680 0
M  V30 28 H 0.210402 -6.826196 2.449233 0
M  V30 29 H 1.764219 -3.641523 -3.194468 0
M  V30 30 H 1.744450 -1.722540 -4.775004 0
M  V30 31 H 1.261103 1.056080 -4.869088 0
M  V30 32 H 0.579623 2.901412 -3.191768 0
M  V30 33 H 0.028912 3.870319 -1.379740 0
M  V30 34 H -0.609295 4.973915 0.736312 0
M  V30 35 H -0.792325 3.599176 2.819543 0
M  V30 36 H -0.480111 -0.955236 2.122615 0
M  V30 37 H 0.973099 -0.567821 3.217960 0
M  V30 38 H -0.602455 -1.833616 4.671043 0
M  V30 39 H -1.952020 -0.695939 4.095235 0
M  V30 40 H 0.618327 0.130000 5.414096 0
M  V30 41 H -1.071757 0.320043 6.132339 0
M  V30 42 H -0.164215 2.373924 4.610662 0
M  V30 43 H -1.823377 1.671122 4.370101 0
M  V30 44 H 0.621044 -0.969733 -0.010827 0
M  V30 END ATOM
M  V30 BEGIN BOND
M  V30 1 1 1 2
M  V30 2 2 2 3
M  V30 3 1 3 4
M  V30 4 2 4 5
M  V30 5 1 5 6
M  V30 6 2 6 7
M  V30 7 1 7 8
M  V30 8 2 8 9
M  V30 9 1 9 10
M  V30 10 1 10 11
M  V30 11 2 11 12
M  V30 12 1 12 13
M  V30 13 2 13 14
M  V30 14 1 14 15
M  V30 15 2 15 16
M  V30 16 1 16 17
M  V30 17 1 17 18
M  V30 18 1 18 19
M  V30 19 1 19 20
M  V30 20 1 20 21
M  V30 21 1 21 22
M  V30 22 2 17 23
M  V30 23 1 12 24
M  V30 24 2 24 25
M  V30 25 1 5 26
M  V30 26 1 26 2
M  V30 27 1 25 6
M  V30 28 1 24 9
M  V30 29 1 23 13
M  V30 30 1 22 18
M  V30 31 1 1 27
M  V30 32 1 1 28
M  V30 33 1 7 29
M  V30 34 1 8 30
M  V30 35 1 10 31
M  V30 36 1 11 32
M  V30 37 1 14 33
M  V30 38 1 15 34
M  V30 39 1 16 35
M  V30 40 1 19 36
M  V30 41 1 19 37
M  V30 42 1 20 38
M  V30 43 1 20 39
M  V30 44 1 21 40
M  V30 45 1 21 41
M  V30 46 1 22 42
M  V30 47 1 22 43
M  V30 48 1 25 44
M  V30 END BOND
M  V30 END CTAB
M  END
>  <Dataset>  (483) 
ChEMBL_Kinases

>  <Ligand_Instance>  (483) 
nan

>  <PDB_ID>  (483) 
nan

>  <Standardized_SMILES>  (483) 
Nc1nnc(-c2ccc3[nH]cc(-c4cccc(N5CCCC5)n4)c3c2)s1

>  <Name>  (483) 
nan

>  <Pocket>  (483) 
nan

>  <ATP_Site>  (483) 
nan

>  <Peripheral>  (483) 
nan

>  <Num_H_Atoms_ProtBoundConf>  (483) 
nan

>  <Num_Resolved_Atoms>  (483) 
nan

>  <Num_Not_Resolved_Atoms>  (483) 
nan

$$$$
CHEMBL4797627
     RDKit          3D

  0  0  0  0  0  0  0  0  0  0999 V3000
M  V30 BEGIN CTAB
M  V30 COUNTS 43 48 0 0 0
M  V30 BEGIN ATOM
M  V30 1 C 3.412103 -6.496429 3.042585 0
M  V30 2 N 2.804210 -6.979641 1.933385 0
M  V30 3 C 2.287825 -6.227518 0.963112 0
M  V30 4 C 2.358068 -4.855093 1.059452 0
M  V30 5 C 1.821493 -3.951455 0.048115 0
M  V30 6 C 1.816297 -4.332005 -1.278707 0
M  V30 7 C 1.325299 -3.528724 -2.287022 0
M  V30 8 C 0.830061 -2.302435 -1.896031 0
M  V30 9 N 0.286987 -1.291141 -2.595069 0
M  V30 10 N -0.044289 -0.310530 -1.790981 0
M  V30 11 C 0.250427 -0.590776 -0.503039 0
M  V30 12 C 0.015652 0.272925 0.635585 0
M  V30 13 C -0.563572 1.524655 0.478821 0
M  V30 14 C -0.699432 2.183760 1.676840 0
M  V30 15 C -1.193400 3.410559 2.071007 0
M  V30 16 C -1.730308 4.318090 1.065798 0
M  V30 17 C -2.598157 3.977893 0.048007 0
M  V30 18 C -2.867721 5.107101 -0.687322 0
M  V30 19 O -2.193427 6.120376 -0.150561 0
M  V30 20 C -1.511270 5.686876 0.887410 0
M  V30 21 N -1.174426 3.759799 3.381108 0
M  V30 22 C -0.675310 2.914199 4.301591 0
M  V30 23 C -0.164693 1.664136 3.955877 0
M  V30 24 C -0.189740 1.321750 2.621950 0
M  V30 25 N 0.208033 0.231930 1.952767 0
M  V30 26 C 0.799386 -1.848944 -0.594462 0
M  V30 27 C 1.304849 -2.706984 0.338307 0
M  V30 28 C 2.983421 -4.406196 2.201605 0
M  V30 29 N 3.504225 -5.143732 3.179779 0
M  V30 30 H 3.750160 -7.294847 3.685492 0
M  V30 31 H 1.806228 -6.675486 0.085943 0
M  V30 32 H 2.210364 -5.303163 -1.575993 0
M  V30 33 H 1.308593 -3.800776 -3.334647 0
M  V30 34 H 0.121663 -1.224319 -3.621680 0
M  V30 35 H -0.900640 2.014429 -0.432343 0
M  V30 36 H -3.041221 3.041966 -0.209579 0
M  V30 37 H -3.467180 5.351464 -1.553208 0
M  V30 38 H -0.851914 6.203694 1.573171 0
M  V30 39 H -0.637195 3.144664 5.359563 0
M  V30 40 H 0.242204 0.964860 4.675179 0
M  V30 41 H 0.631556 -0.571122 2.445815 0
M  V30 42 H 1.317914 -2.430322 1.374513 0
M  V30 43 H 3.081841 -3.322871 2.356662 0
M  V30 END ATOM
M  V30 BEGIN BOND
M  V30 1 2 1 2
M  V30 2 1 2 3
M  V30 3 2 3 4
M  V30 4 1 4 5
M  V30 5 2 5 6
M  V30 6 1 6 7
M  V30 7 2 7 8
M  V30 8 1 8 9
M  V30 9 1 9 10
M  V30 10 2 10 11
M  V30 11 1 11 12
M  V30 12 2 12 13
M  V30 13 1 13 14
M  V30 14 2 14 15
M  V30 15 1 15 16
M  V30 16 1 16 17
M  V30 17 2 17 18
M  V30 18 1 18 19
M  V30 19 1 19 20
M  V30 20 1 15 21
M  V30 21 2 21 22
M  V30 22 1 22 23
M  V30 23 2 23 24
M  V30 24 1 24 25
M  V30 25 1 11 26
M  V30 26 2 26 27
M  V30 27 1 4 28
M  V30 28 2 28 29
M  V30 29 1 29 1
M  V30 30 1 27 5
M  V30 31 1 26 8
M  V30 32 1 25 12
M  V30 33 1 24 14
M  V30 34 2 20 16
M  V30 35 1 1 30
M  V30 36 1 3 31
M  V30 37 1 6 32
M  V30 38 1 7 33
M  V30 39 1 9 34
M  V30 40 1 13 35
M  V30 41 1 17 36
M  V30 42 1 18 37
M  V30 43 1 20 38
M  V30 44 1 22 39
M  V30 45 1 23 40
M  V30 46 1 25 41
M  V30 47 1 27 42
M  V30 48 1 28 43
M  V30 END BOND
M  V30 END CTAB
M  END
>  <Dataset>  (484) 
ChEMBL_Kinases

>  <Ligand_Instance>  (484) 
nan

>  <PDB_ID>  (484) 
nan

>  <Standardized_SMILES>  (484) 
c1ncc(-c2ccc3[nH]nc(-c4cc5c(-c6ccoc6)nccc5[nH]4)c3c2)cn1

>  <Name>  (484) 
nan

>  <Pocket>  (484) 
nan

>  <ATP_Site>  (484) 
nan

>  <Peripheral>  (484) 
nan

>  <Num_H_Atoms_ProtBoundConf>  (484) 
nan

>  <Num_Resolved_Atoms>  (484) 
nan

>  <Num_Not_Resolved_Atoms>  (484) 
nan

$$$$
CHEMBL4797560
     RDKit          3D

  0  0  0  0  0  0  0  0  0  0999 V3000
M  V30 BEGIN CTAB
M  V30 COUNTS 56 60 0 0 0
M  V30 BEGIN ATOM
M  V30 1 C -0.692030 -6.935457 1.888601 0
M  V30 2 C -0.093980 -5.590186 2.029227 0
M  V30 3 C 0.913202 -5.439208 2.980530 0
M  V30 4 C 1.460068 -4.178281 3.096599 0
M  V30 5 N 2.429047 -3.721096 3.905726 0
M  V30 6 N 2.650804 -2.422307 3.685285 0
M  V30 7 C 1.809504 -2.001092 2.704882 0
M  V30 8 C 1.606630 -0.702251 2.061614 0
M  V30 9 O 0.772496 -0.460075 1.151758 0
M  V30 10 N 2.368939 0.463540 2.421026 0
M  V30 11 C 1.944876 1.570798 1.623950 0
M  V30 12 C 0.912412 2.351794 2.124755 0
M  V30 13 C 0.504571 3.419157 1.354267 0
M  V30 14 C 1.023996 3.786453 0.132228 0
M  V30 15 C 0.576839 4.923107 -0.670633 0
M  V30 16 N -0.460933 4.673591 -1.608953 0
M  V30 17 C -1.699257 4.196470 -1.069902 0
M  V30 18 C -1.788939 2.723733 -1.391463 0
M  V30 19 C -0.751423 2.482559 -2.463319 0
M  V30 20 C -0.099044 3.822508 -2.707305 0
M  V30 21 C 2.053275 2.964551 -0.311606 0
M  V30 22 C 2.519833 1.872735 0.404900 0
M  V30 23 C 1.063105 -3.099010 2.334901 0
M  V30 24 C 0.060960 -3.352197 1.423386 0
M  V30 25 C -0.550083 -4.570683 1.229017 0
M  V30 26 C -1.590329 -4.701028 0.240191 0
M  V30 27 C -2.809471 -5.309881 0.312309 0
M  V30 28 C -3.665111 -5.320956 -0.765902 0
M  V30 29 C -3.305304 -4.710703 -1.954625 0
M  V30 30 N -2.114472 -4.114010 -2.030222 0
M  V30 31 C -1.255732 -4.092771 -0.975635 0
M  V30 32 H 0.071677 -7.708914 2.179390 0
M  V30 33 H -1.526443 -7.091588 2.602966 0
M  V30 34 H -1.095754 -7.143922 0.875406 0
M  V30 35 H 1.256554 -6.251174 3.598025 0
M  V30 36 H 2.989658 -4.210145 4.629824 0
M  V30 37 H 3.097850 0.392789 3.167969 0
M  V30 38 H 0.451195 2.128524 3.078673 0
M  V30 39 H -0.295815 4.003885 1.772103 0
M  V30 40 H 1.466680 5.276309 -1.266734 0
M  V30 41 H 0.290133 5.799068 -0.037592 0
M  V30 42 H -2.511933 4.688937 -1.665752 0
M  V30 43 H -1.849679 4.419476 0.002964 0
M  V30 44 H -1.511452 2.140832 -0.497465 0
M  V30 45 H -2.806629 2.399185 -1.681097 0
M  V30 46 H 0.003177 1.765839 -2.124726 0
M  V30 47 H -1.294637 2.109526 -3.356303 0
M  V30 48 H -0.572603 4.229800 -3.628313 0
M  V30 49 H 0.964274 3.726351 -2.910758 0
M  V30 50 H 2.563532 3.110934 -1.237052 0
M  V30 51 H 3.318136 1.236896 0.058649 0
M  V30 52 H -0.280420 -2.516146 0.799618 0
M  V30 53 H -3.011792 -5.760119 1.274184 0
M  V30 54 H -4.609870 -5.814305 -0.651731 0
M  V30 55 H -3.951670 -4.702304 -2.814703 0
M  V30 56 H -0.325110 -3.565404 -1.200289 0
M  V30 END ATOM
M  V30 BEGIN BOND
M  V30 1 1 1 2
M  V30 2 2 2 3
M  V30 3 1 3 4
M  V30 4 1 4 5
M  V30 5 1 5 6
M  V30 6 2 6 7
M  V30 7 1 7 8
M  V30 8 2 8 9
M  V30 9 1 8 10
M  V30 10 1 10 11
M  V30 11 2 11 12
M  V30 12 1 12 13
M  V30 13 2 13 14
M  V30 14 1 14 15
M  V30 15 1 15 16
M  V30 16 1 16 17
M  V30 17 1 17 18
M  V30 18 1 18 19
M  V30 19 1 19 20
M  V30 20 1 14 21
M  V30 21 2 21 22
M  V30 22 1 7 23
M  V30 23 1 23 24
M  V30 24 2 24 25
M  V30 25 1 25 26
M  V30 26 2 26 27
M  V30 27 1 27 28
M  V30 28 2 28 29
M  V30 29 1 29 30
M  V30 30 2 30 31
M  V30 31 1 25 2
M  V30 32 1 31 26
M  V30 33 2 23 4
M  V30 34 1 22 11
M  V30 35 1 20 16
M  V30 36 1 1 32
M  V30 37 1 1 33
M  V30 38 1 1 34
M  V30 39 1 3 35
M  V30 40 1 5 36
M  V30 41 1 10 37
M  V30 42 1 12 38
M  V30 43 1 13 39
M  V30 44 1 15 40
M  V30 45 1 15 41
M  V30 46 1 17 42
M  V30 47 1 17 43
M  V30 48 1 18 44
M  V30 49 1 18 45
M  V30 50 1 19 46
M  V30 51 1 19 47
M  V30 52 1 20 48
M  V30 53 1 20 49
M  V30 54 1 21 50
M  V30 55 1 22 51
M  V30 56 1 24 52
M  V30 57 1 27 53
M  V30 58 1 28 54
M  V30 59 1 29 55
M  V30 60 1 31 56
M  V30 END BOND
M  V30 END CTAB
M  END
>  <Dataset>  (485) 
ChEMBL_Kinases

>  <Ligand_Instance>  (485) 
nan

>  <PDB_ID>  (485) 
nan

>  <Standardized_SMILES>  (485) 
Cc1cc2[nH]nc(C(=O)Nc3ccc(CN4CCCC4)cc3)c2cc1-c1cccnc1

>  <Name>  (485) 
nan

>  <Pocket>  (485) 
nan

>  <ATP_Site>  (485) 
nan

>  <Peripheral>  (485) 
nan

>  <Num_H_Atoms_ProtBoundConf>  (485) 
nan

>  <Num_Resolved_Atoms>  (485) 
nan

>  <Num_Not_Resolved_Atoms>  (485) 
nan

$$$$
CHEMBL3394065
     RDKit          3D

  0  0  0  0  0  0  0  0  0  0999 V3000
M  V30 BEGIN CTAB
M  V30 COUNTS 34 37 0 0 0
M  V30 BEGIN ATOM
M  V30 1 N 2.652446 -5.246909 2.831061 0
M  V30 2 C 1.593025 -4.350896 2.436264 0
M  V30 3 C 0.279566 -4.704314 2.614248 0
M  V30 4 C -0.647655 -3.783941 2.206594 0
M  V30 5 C -0.187483 -2.619781 1.669924 0
M  V30 6 C 1.103605 -2.235284 1.477687 0
M  V30 7 C 1.663481 -1.028196 0.930285 0
M  V30 8 C 3.043996 -0.815469 0.923242 0
M  V30 9 N 3.329023 0.359734 0.365293 0
M  V30 10 C 2.207030 0.985651 -0.022303 0
M  V30 11 C 1.904788 2.182015 -0.636027 0
M  V30 12 C 0.605450 2.562528 -0.919810 0
M  V30 13 C -0.367773 1.665687 -0.548209 0
M  V30 14 C -1.796615 2.065686 -0.851482 0
M  V30 15 N -2.293643 3.055048 -1.377421 0
M  V30 16 N -3.567210 3.169915 -1.528247 0
M  V30 17 C -4.389747 2.436396 -1.226242 0
M  V30 18 N -5.857894 2.433052 -1.332951 0
M  V30 19 S -3.265125 1.071284 -0.468162 0
M  V30 20 C -0.083132 0.483943 0.057134 0
M  V30 21 C 1.205412 0.115154 0.334854 0
M  V30 22 N 1.955593 -3.181211 1.898224 0
M  V30 23 H 2.821116 -4.984678 3.833480 0
M  V30 24 H 3.252650 -6.020640 2.437205 0
M  V30 25 H 0.080424 -5.653790 3.049634 0
M  V30 26 H -1.680777 -4.004048 2.320300 0
M  V30 27 H -0.965417 -1.948728 1.382563 0
M  V30 28 H 3.875779 -1.417801 1.278512 0
M  V30 29 H 4.257867 0.814200 0.207821 0
M  V30 30 H 2.696847 2.862578 -0.914172 0
M  V30 31 H 0.332663 3.496752 -1.401665 0
M  V30 32 H -6.283586 2.059531 -2.218312 0
M  V30 33 H -6.573201 2.755383 -0.641960 0
M  V30 34 H -0.903108 -0.122332 0.290882 0
M  V30 END ATOM
M  V30 BEGIN BOND
M  V30 1 1 1 2
M  V30 2 2 2 3
M  V30 3 1 3 4
M  V30 4 2 4 5
M  V30 5 1 5 6
M  V30 6 1 6 7
M  V30 7 2 7 8
M  V30 8 1 8 9
M  V30 9 1 9 10
M  V30 10 2 10 11
M  V30 11 1 11 12
M  V30 12 2 12 13
M  V30 13 1 13 14
M  V30 14 2 14 15
M  V30 15 1 15 16
M  V30 16 2 16 17
M  V30 17 1 17 18
M  V30 18 1 17 19
M  V30 19 1 13 20
M  V30 20 2 20 21
M  V30 21 2 6 22
M  V30 22 1 22 2
M  V30 23 1 21 7
M  V30 24 1 21 10
M  V30 25 1 19 14
M  V30 26 1 1 23
M  V30 27 1 1 24
M  V30 28 1 3 25
M  V30 29 1 4 26
M  V30 30 1 5 27
M  V30 31 1 8 28
M  V30 32 1 9 29
M  V30 33 1 11 30
M  V30 34 1 12 31
M  V30 35 1 18 32
M  V30 36 1 18 33
M  V30 37 1 20 34
M  V30 END BOND
M  V30 END CTAB
M  END
>  <Dataset>  (486) 
ChEMBL_Kinases

>  <Ligand_Instance>  (486) 
nan

>  <PDB_ID>  (486) 
nan

>  <Standardized_SMILES>  (486) 
Nc1cccc(-c2c[nH]c3ccc(-c4nnc(N)s4)cc23)n1

>  <Name>  (486) 
nan

>  <Pocket>  (486) 
nan

>  <ATP_Site>  (486) 
nan

>  <Peripheral>  (486) 
nan

>  <Num_H_Atoms_ProtBoundConf>  (486) 
nan

>  <Num_Resolved_Atoms>  (486) 
nan

>  <Num_Not_Resolved_Atoms>  (486) 
nan

$$$$
CHEMBL3394064
     RDKit          3D

  0  0  0  0  0  0  0  0  0  0999 V3000
M  V30 BEGIN CTAB
M  V30 COUNTS 33 36 0 0 0
M  V30 BEGIN ATOM
M  V30 1 N 1.514366 -6.457107 3.636634 0
M  V30 2 C 1.255995 -5.266141 2.862280 0
M  V30 3 N 0.814738 -4.229554 3.170344 0
M  V30 4 N 0.613120 -3.200475 2.404073 0
M  V30 5 C 0.862082 -3.184981 1.249970 0
M  V30 6 C 0.816866 -2.313289 0.032146 0
M  V30 7 C 1.227362 -2.678717 -1.228119 0
M  V30 8 C 1.110255 -1.737393 -2.234460 0
M  V30 9 C 0.599374 -0.472697 -1.987644 0
M  V30 10 N 0.408116 0.567352 -2.819782 0
M  V30 11 C -0.114816 1.585594 -2.116309 0
M  V30 12 C -0.246097 1.149803 -0.811579 0
M  V30 13 C -0.779638 1.957655 0.281697 0
M  V30 14 C -0.110562 2.794169 1.150566 0
M  V30 15 F 1.211318 2.850811 0.934705 0
M  V30 16 C -0.810727 3.468411 2.117645 0
M  V30 17 C -2.174283 3.372583 2.295111 0
M  V30 18 C -2.831554 2.519239 1.403356 0
M  V30 19 C -2.163921 1.820816 0.413974 0
M  V30 20 F -2.938800 1.026857 -0.380558 0
M  V30 21 C 0.197186 -0.151556 -0.692726 0
M  V30 22 C 0.301744 -1.076494 0.343739 0
M  V30 23 S 1.537979 -4.905735 0.995302 0
M  V30 24 H 0.636229 -6.830890 4.052180 0
M  V30 25 H 2.553302 -6.679417 3.603045 0
M  V30 26 H 1.610736 -3.678425 -1.330727 0
M  V30 27 H 1.445993 -2.071451 -3.207720 0
M  V30 28 H 0.637442 0.562101 -3.848323 0
M  V30 29 H -0.368215 2.553578 -2.549928 0
M  V30 30 H -0.222249 4.110461 2.768418 0
M  V30 31 H -2.699990 3.917123 3.067618 0
M  V30 32 H -3.919618 2.441457 1.543352 0
M  V30 33 H -0.032751 -0.745760 1.316828 0
M  V30 END ATOM
M  V30 BEGIN BOND
M  V30 1 1 1 2
M  V30 2 2 2 3
M  V30 3 1 3 4
M  V30 4 2 4 5
M  V30 5 1 5 6
M  V30 6 2 6 7
M  V30 7 1 7 8
M  V30 8 2 8 9
M  V30 9 1 9 10
M  V30 10 1 10 11
M  V30 11 2 11 12
M  V30 12 1 12 13
M  V30 13 2 13 14
M  V30 14 1 14 15
M  V30 15 1 14 16
M  V30 16 2 16 17
M  V30 17 1 17 18
M  V30 18 2 18 19
M  V30 19 1 19 20
M  V30 20 1 12 21
M  V30 21 2 21 22
M  V30 22 1 5 23
M  V30 23 1 23 2
M  V30 24 1 22 6
M  V30 25 1 21 9
M  V30 26 1 19 13
M  V30 27 1 1 24
M  V30 28 1 1 25
M  V30 29 1 7 26
M  V30 30 1 8 27
M  V30 31 1 10 28
M  V30 32 1 11 29
M  V30 33 1 16 30
M  V30 34 1 17 31
M  V30 35 1 18 32
M  V30 36 1 22 33
M  V30 END BOND
M  V30 END CTAB
M  END
>  <Dataset>  (487) 
ChEMBL_Kinases

>  <Ligand_Instance>  (487) 
nan

>  <PDB_ID>  (487) 
nan

>  <Standardized_SMILES>  (487) 
Nc1nnc(-c2ccc3[nH]cc(-c4c(F)cccc4F)c3c2)s1

>  <Name>  (487) 
nan

>  <Pocket>  (487) 
nan

>  <ATP_Site>  (487) 
nan

>  <Peripheral>  (487) 
nan

>  <Num_H_Atoms_ProtBoundConf>  (487) 
nan

>  <Num_Resolved_Atoms>  (487) 
nan

>  <Num_Not_Resolved_Atoms>  (487) 
nan

$$$$
CHEMBL3394062
     RDKit          3D

  0  0  0  0  0  0  0  0  0  0999 V3000
M  V30 BEGIN CTAB
M  V30 COUNTS 41 45 0 0 0
M  V30 BEGIN ATOM
M  V30 1 C 1.741837 -5.013828 3.273714 0
M  V30 2 N 1.191159 -5.391650 1.993702 0
M  V30 3 C 1.633501 -5.073260 0.648489 0
M  V30 4 N 2.080872 -5.085047 -0.418514 0
M  V30 5 N 2.174120 -4.208445 -1.338919 0
M  V30 6 C 1.679440 -3.003536 -1.108924 0
M  V30 7 C 1.516388 -1.696475 -1.784631 0
M  V30 8 C 1.826472 -1.397815 -3.079311 0
M  V30 9 C 1.608845 -0.149106 -3.615730 0
M  V30 10 C 1.055896 0.834107 -2.805803 0
M  V30 11 N 0.696948 2.130492 -3.009382 0
M  V30 12 C 0.175131 2.665511 -1.888230 0
M  V30 13 C 0.159596 1.737642 -0.865174 0
M  V30 14 C -0.209625 1.653581 0.567094 0
M  V30 15 C 0.954930 1.309858 1.287971 0
M  V30 16 N 0.869000 1.126575 2.654535 0
M  V30 17 C -0.359759 1.288492 3.232535 0
M  V30 18 C -0.437392 1.097105 4.593314 0
M  V30 19 C -1.655831 1.233728 5.275172 0
M  V30 20 C -2.756658 1.570349 4.491846 0
M  V30 21 C -2.741268 1.778086 3.122021 0
M  V30 22 C -1.500637 1.619366 2.560288 0
M  V30 23 C -1.431512 1.811794 1.171526 0
M  V30 24 C 0.716434 0.601996 -1.474827 0
M  V30 25 C 0.979792 -0.670233 -1.062901 0
M  V30 26 S 1.038336 -3.272960 0.646715 0
M  V30 27 H 2.303803 -4.041203 3.150997 0
M  V30 28 H 2.364546 -5.841931 3.639727 0
M  V30 29 H 0.906934 -4.765079 3.976698 0
M  V30 30 H 0.322378 -6.001522 2.023628 0
M  V30 31 H 2.260898 -2.260285 -3.603425 0
M  V30 32 H 1.862971 0.045853 -4.635409 0
M  V30 33 H 0.800026 2.650369 -3.899853 0
M  V30 34 H -0.213006 3.632170 -1.661837 0
M  V30 35 H 1.955813 1.156964 0.910336 0
M  V30 36 H 0.460039 0.839803 5.143119 0
M  V30 37 H -1.695157 1.083336 6.338624 0
M  V30 38 H -3.661425 1.660876 5.058513 0
M  V30 39 H -3.619131 2.040604 2.558027 0
M  V30 40 H -2.227206 2.072113 0.494487 0
M  V30 41 H 0.725341 -0.864444 -0.005128 0
M  V30 END ATOM
M  V30 BEGIN BOND
M  V30 1 1 1 2
M  V30 2 1 2 3
M  V30 3 2 3 4
M  V30 4 1 4 5
M  V30 5 2 5 6
M  V30 6 1 6 7
M  V30 7 2 7 8
M  V30 8 1 8 9
M  V30 9 2 9 10
M  V30 10 1 10 11
M  V30 11 1 11 12
M  V30 12 2 12 13
M  V30 13 1 13 14
M  V30 14 2 14 15
M  V30 15 1 15 16
M  V30 16 2 16 17
M  V30 17 1 17 18
M  V30 18 2 18 19
M  V30 19 1 19 20
M  V30 20 2 20 21
M  V30 21 1 21 22
M  V30 22 2 22 23
M  V30 23 1 13 24
M  V30 24 2 24 25
M  V30 25 1 6 26
M  V30 26 1 26 3
M  V30 27 1 25 7
M  V30 28 1 24 10
M  V30 29 1 23 14
M  V30 30 1 22 17
M  V30 31 1 1 27
M  V30 32 1 1 28
M  V30 33 1 1 29
M  V30 34 1 2 30
M  V30 35 1 8 31
M  V30 36 1 9 32
M  V30 37 1 11 33
M  V30 38 1 12 34
M  V30 39 1 15 35
M  V30 40 1 18 36
M  V30 41 1 19 37
M  V30 42 1 20 38
M  V30 43 1 21 39
M  V30 44 1 23 40
M  V30 45 1 25 41
M  V30 END BOND
M  V30 END CTAB
M  END
>  <Dataset>  (488) 
ChEMBL_Kinases

>  <Ligand_Instance>  (488) 
nan

>  <PDB_ID>  (488) 
nan

>  <Standardized_SMILES>  (488) 
CNc1nnc(-c2ccc3[nH]cc(-c4cnc5ccccc5c4)c3c2)s1

>  <Name>  (488) 
nan

>  <Pocket>  (488) 
nan

>  <ATP_Site>  (488) 
nan

>  <Peripheral>  (488) 
nan

>  <Num_H_Atoms_ProtBoundConf>  (488) 
nan

>  <Num_Resolved_Atoms>  (488) 
nan

>  <Num_Not_Resolved_Atoms>  (488) 
nan

$$$$
CHEMBL3394061
     RDKit          3D

  0  0  0  0  0  0  0  0  0  0999 V3000
M  V30 BEGIN CTAB
M  V30 COUNTS 38 42 0 0 0
M  V30 BEGIN ATOM
M  V30 1 N -0.612989 -5.858251 4.311494 0
M  V30 2 C 0.317324 -4.903545 3.750810 0
M  V30 3 N 1.485486 -4.837595 3.760182 0
M  V30 4 N 2.211695 -3.918937 3.213304 0
M  V30 5 C 1.761529 -2.991430 2.609591 0
M  V30 6 C 2.393766 -1.827931 1.904397 0
M  V30 7 C 3.770454 -1.780409 1.934527 0
M  V30 8 C 4.318364 -0.698579 1.277053 0
M  V30 9 C 3.554804 0.259342 0.640401 0
M  V30 10 N 3.857321 1.366587 -0.043783 0
M  V30 11 C 2.741382 1.983565 -0.481066 0
M  V30 12 C 1.645256 1.234118 -0.056860 0
M  V30 13 C 0.231723 1.500678 -0.286457 0
M  V30 14 C -0.292211 2.783669 -0.114687 0
M  V30 15 N -1.611115 3.046920 -0.325780 0
M  V30 16 C -2.451228 2.073594 -0.707753 0
M  V30 17 C -3.793149 2.352038 -0.920231 0
M  V30 18 C -4.658803 1.351394 -1.313327 0
M  V30 19 C -4.223697 0.052553 -1.506599 0
M  V30 20 C -2.875845 -0.249861 -1.298115 0
M  V30 21 C -2.012309 0.762885 -0.902824 0
M  V30 22 C -0.664029 0.526223 -0.679992 0
M  V30 23 C 2.163975 0.161884 0.641104 0
M  V30 24 C 1.596170 -0.912861 1.293252 0
M  V30 25 S -0.041589 -3.312275 2.733070 0
M  V30 26 H -0.688259 -5.815424 5.353758 0
M  V30 27 H -1.146940 -6.520895 3.680949 0
M  V30 28 H 4.331557 -2.547949 2.442438 0
M  V30 29 H 5.419001 -0.647777 1.293078 0
M  V30 30 H 4.826936 1.737960 -0.235382 0
M  V30 31 H 2.616150 2.883610 -1.053407 0
M  V30 32 H 0.365845 3.566812 0.189015 0
M  V30 33 H -4.193843 3.349600 -0.785305 0
M  V30 34 H -5.715568 1.551929 -1.484726 0
M  V30 35 H -4.878069 -0.755277 -1.814898 0
M  V30 36 H -2.492145 -1.251417 -1.437346 0
M  V30 37 H -0.326333 -0.486692 -0.831071 0
M  V30 38 H 0.544102 -1.049390 1.333366 0
M  V30 END ATOM
M  V30 BEGIN BOND
M  V30 1 1 1 2
M  V30 2 2 2 3
M  V30 3 1 3 4
M  V30 4 2 4 5
M  V30 5 1 5 6
M  V30 6 2 6 7
M  V30 7 1 7 8
M  V30 8 2 8 9
M  V30 9 1 9 10
M  V30 10 1 10 11
M  V30 11 2 11 12
M  V30 12 1 12 13
M  V30 13 2 13 14
M  V30 14 1 14 15
M  V30 15 2 15 16
M  V30 16 1 16 17
M  V30 17 2 17 18
M  V30 18 1 18 19
M  V30 19 2 19 20
M  V30 20 1 20 21
M  V30 21 2 21 22
M  V30 22 1 12 23
M  V30 23 2 23 24
M  V30 24 1 5 25
M  V30 25 1 25 2
M  V30 26 1 24 6
M  V30 27 1 23 9
M  V30 28 1 22 13
M  V30 29 1 21 16
M  V30 30 1 1 26
M  V30 31 1 1 27
M  V30 32 1 7 28
M  V30 33 1 8 29
M  V30 34 1 10 30
M  V30 35 1 11 31
M  V30 36 1 14 32
M  V30 37 1 17 33
M  V30 38 1 18 34
M  V30 39 1 19 35
M  V30 40 1 20 36
M  V30 41 1 22 37
M  V30 42 1 24 38
M  V30 END BOND
M  V30 END CTAB
M  END
>  <Dataset>  (489) 
ChEMBL_Kinases

>  <Ligand_Instance>  (489) 
nan

>  <PDB_ID>  (489) 
nan

>  <Standardized_SMILES>  (489) 
Nc1nnc(-c2ccc3[nH]cc(-c4cnc5ccccc5c4)c3c2)s1

>  <Name>  (489) 
nan

>  <Pocket>  (489) 
nan

>  <ATP_Site>  (489) 
nan

>  <Peripheral>  (489) 
nan

>  <Num_H_Atoms_ProtBoundConf>  (489) 
nan

>  <Num_Resolved_Atoms>  (489) 
nan

>  <Num_Not_Resolved_Atoms>  (489) 
nan

$$$$
CHEMBL4796975
     RDKit          3D

  0  0  0  0  0  0  0  0  0  0999 V3000
M  V30 BEGIN CTAB
M  V30 COUNTS 65 71 0 0 0
M  V30 BEGIN ATOM
M  V30 1 O 0.982733 0.386745 4.613173 0
M  V30 2 C 0.613670 1.393724 3.951330 0
M  V30 3 N 1.480900 1.837729 2.900754 0
M  V30 4 C 2.735602 1.344521 2.433767 0
M  V30 5 C 3.970310 1.770030 2.927939 0
M  V30 6 N 5.108629 1.250982 2.429300 0
M  V30 7 C 5.076742 0.315986 1.449044 0
M  V30 8 C 3.889966 -0.143790 0.920880 0
M  V30 9 C 3.968927 -1.150511 -0.130093 0
M  V30 10 C 2.864663 -1.695993 -0.744746 0
M  V30 11 C 2.963689 -2.645480 -1.735003 0
M  V30 12 C 2.002951 -3.301903 -2.460171 0
M  V30 13 C 0.559048 -3.241460 -2.453839 0
M  V30 14 C -0.412042 -2.557422 -1.775949 0
M  V30 15 C -1.673317 -2.898098 -2.182453 0
M  V30 16 C -2.932970 -2.473214 -1.787336 0
M  V30 17 N -3.030537 -1.485018 -0.756487 0
M  V30 18 C -2.497577 -0.123287 -0.739530 0
M  V30 19 C -3.580939 0.882373 -0.514436 0
M  V30 20 C -4.602233 0.498215 0.503041 0
M  V30 21 C -4.972155 -0.951194 0.522471 0
M  V30 22 C -3.753452 -1.866413 0.445121 0
M  V30 23 N -4.038654 -2.991302 -2.373487 0
M  V30 24 C -3.890058 -3.926624 -3.346954 0
M  V30 25 C -2.629123 -4.356629 -3.747382 0
M  V30 26 C -1.476664 -3.850172 -3.171565 0
M  V30 27 N -0.164994 -4.017663 -3.295151 0
M  V30 28 N 2.742197 -4.087408 -3.253502 0
M  V30 29 N 4.029311 -3.937081 -3.045385 0
M  V30 30 C 4.238363 -3.034494 -2.092095 0
M  V30 31 C 5.357245 -2.501075 -1.489498 0
M  V30 32 N 5.182266 -1.568551 -0.519996 0
M  V30 33 C 2.748433 0.391532 1.436433 0
M  V30 34 C -0.567340 2.285088 3.994835 0
M  V30 35 C -0.231344 3.750168 4.259881 0
M  V30 36 C -1.458455 3.781032 5.160085 0
M  V30 37 C -1.260750 2.273178 5.331687 0
M  V30 38 H 1.399615 2.631596 2.224516 0
M  V30 39 H 3.923650 2.522063 3.713524 0
M  V30 40 H 6.064872 -0.029531 1.126189 0
M  V30 41 H 1.902507 -1.352762 -0.423272 0
M  V30 42 H -0.227108 -1.844050 -1.021704 0
M  V30 43 H -1.820804 -0.081984 0.149378 0
M  V30 44 H -1.969867 0.130917 -1.677412 0
M  V30 45 H -3.079551 1.810902 -0.117522 0
M  V30 46 H -4.035419 1.192894 -1.477608 0
M  V30 47 H -4.364751 0.891232 1.528177 0
M  V30 48 H -5.549083 1.050665 0.233036 0
M  V30 49 H -5.684617 -1.138517 -0.295691 0
M  V30 50 H -5.515379 -1.122382 1.486442 0
M  V30 51 H -4.116002 -2.896854 0.419902 0
M  V30 52 H -3.144851 -1.634494 1.352598 0
M  V30 53 H -4.785695 -4.337093 -3.812129 0
M  V30 54 H -2.507511 -5.098904 -4.519786 0
M  V30 55 H 0.144592 -4.713254 -4.011249 0
M  V30 56 H 4.738165 -4.479456 -3.585347 0
M  V30 57 H 6.316444 -2.849711 -1.816751 0
M  V30 58 H 1.805305 0.050467 1.042167 0
M  V30 59 H -1.295225 2.139796 3.156554 0
M  V30 60 H -0.311379 4.325910 3.328886 0
M  V30 61 H 0.707076 3.792539 4.822606 0
M  V30 62 H -1.374070 4.378257 6.069316 0
M  V30 63 H -2.398433 3.923351 4.560190 0
M  V30 64 H -2.211110 1.693875 5.280625 0
M  V30 65 H -0.635476 2.080201 6.204469 0
M  V30 END ATOM
M  V30 BEGIN BOND
M  V30 1 2 1 2
M  V30 2 1 2 3
M  V30 3 1 3 4
M  V30 4 2 4 5
M  V30 5 1 5 6
M  V30 6 2 6 7
M  V30 7 1 7 8
M  V30 8 1 8 9
M  V30 9 2 9 10
M  V30 10 1 10 11
M  V30 11 1 11 12
M  V30 12 1 12 13
M  V30 13 2 13 14
M  V30 14 1 14 15
M  V30 15 2 15 16
M  V30 16 1 16 17
M  V30 17 1 17 18
M  V30 18 1 18 19
M  V30 19 1 19 20
M  V30 20 1 20 21
M  V30 21 1 21 22
M  V30 22 1 16 23
M  V30 23 2 23 24
M  V30 24 1 24 25
M  V30 25 2 25 26
M  V30 26 1 26 27
M  V30 27 2 12 28
M  V30 28 1 28 29
M  V30 29 1 29 30
M  V30 30 1 30 31
M  V30 31 2 31 32
M  V30 32 2 8 33
M  V30 33 1 2 34
M  V30 34 1 34 35
M  V30 35 1 35 36
M  V30 36 1 36 37
M  V30 37 1 33 4
M  V30 38 1 37 34
M  V30 39 1 32 9
M  V30 40 2 30 11
M  V30 41 1 27 13
M  V30 42 1 26 15
M  V30 43 1 22 17
M  V30 44 1 3 38
M  V30 45 1 5 39
M  V30 46 1 7 40
M  V30 47 1 10 41
M  V30 48 1 14 42
M  V30 49 1 18 43
M  V30 50 1 18 44
M  V30 51 1 19 45
M  V30 52 1 19 46
M  V30 53 1 20 47
M  V30 54 1 20 48
M  V30 55 1 21 49
M  V30 56 1 21 50
M  V30 57 1 22 51
M  V30 58 1 22 52
M  V30 59 1 24 53
M  V30 60 1 25 54
M  V30 61 1 27 55
M  V30 62 1 29 56
M  V30 63 1 31 57
M  V30 64 1 33 58
M  V30 65 1 34 59
M  V30 66 1 35 60
M  V30 67 1 35 61
M  V30 68 1 36 62
M  V30 69 1 36 63
M  V30 70 1 37 64
M  V30 71 1 37 65
M  V30 END BOND
M  V30 END CTAB
M  END
>  <Dataset>  (490) 
ChEMBL_Kinases

>  <Ligand_Instance>  (490) 
nan

>  <PDB_ID>  (490) 
nan

>  <Standardized_SMILES>  (490) 
O=C(Nc1cncc(-c2cc3c(-c4cc5c(N6CCCCC6)nccc5[nH]4)n[nH]c3cn2)c1)C1CCC1

>  <Name>  (490) 
nan

>  <Pocket>  (490) 
nan

>  <ATP_Site>  (490) 
nan

>  <Peripheral>  (490) 
nan

>  <Num_H_Atoms_ProtBoundConf>  (490) 
nan

>  <Num_Resolved_Atoms>  (490) 
nan

>  <Num_Not_Resolved_Atoms>  (490) 
nan

$$$$
CHEMBL4797418
     RDKit          3D

  0  0  0  0  0  0  0  0  0  0999 V3000
M  V30 BEGIN CTAB
M  V30 COUNTS 55 58 0 0 0
M  V30 BEGIN ATOM
M  V30 1 O -0.887912 -3.009448 -0.167141 0
M  V30 2 C -1.953604 -2.382505 -0.022168 0
M  V30 3 N -1.684240 -1.070864 0.447419 0
M  V30 4 C -0.427922 -0.489877 0.731809 0
M  V30 5 C 0.823668 -1.019955 0.740329 0
M  V30 6 C 1.941049 -0.218092 1.028175 0
M  V30 7 C 1.838107 1.154307 1.319514 0
M  V30 8 O 3.077582 1.572983 1.533841 0
M  V30 9 C 3.748765 2.690858 1.857966 0
M  V30 10 C 3.457974 3.303652 3.192170 0
M  V30 11 N 2.129973 3.760337 3.417720 0
M  V30 12 C 1.953184 4.227903 4.795359 0
M  V30 13 C 2.702451 5.521269 4.803630 0
M  V30 14 C 2.498503 6.059066 3.413180 0
M  V30 15 C 1.831261 4.956272 2.614340 0
M  V30 16 C 0.568658 1.657987 1.303301 0
M  V30 17 C -0.519000 0.876393 1.023285 0
M  V30 18 C -3.323159 -2.780971 -0.255380 0
M  V30 19 N -4.401717 -2.153731 0.222970 0
M  V30 20 N -5.503490 -2.744634 -0.166488 0
M  V30 21 C -5.186587 -3.797289 -0.927218 0
M  V30 22 C -3.786538 -3.830233 -0.993373 0
M  V30 23 C -3.161880 -4.827428 -1.811251 0
M  V30 24 C -2.059257 -5.252355 -2.342980 0
M  V30 25 C -1.669469 -6.371878 -3.190555 0
M  V30 26 C -2.578467 -7.308455 -3.635117 0
M  V30 27 C -2.215577 -8.361655 -4.432303 0
M  V30 28 C -0.862363 -8.437449 -4.774357 0
M  V30 29 N -0.019177 -7.510281 -4.321873 0
M  V30 30 C -0.355596 -6.471995 -3.540575 0
M  V30 31 H -2.570252 -0.496405 0.589142 0
M  V30 32 H 0.895618 -2.068961 0.522956 0
M  V30 33 H 2.845778 -0.855090 0.978685 0
M  V30 34 H 3.686619 3.500245 1.038769 0
M  V30 35 H 4.874348 2.440134 1.892165 0
M  V30 36 H 4.179912 4.151222 3.396465 0
M  V30 37 H 3.649391 2.503271 3.968382 0
M  V30 38 H 0.882412 4.339985 5.049212 0
M  V30 39 H 2.381104 3.436429 5.441912 0
M  V30 40 H 2.260476 6.185032 5.580733 0
M  V30 41 H 3.769828 5.314291 5.007513 0
M  V30 42 H 1.791979 6.914115 3.412183 0
M  V30 43 H 3.462840 6.298763 2.886388 0
M  V30 44 H 2.259375 4.813068 1.608660 0
M  V30 45 H 0.723453 5.047245 2.593574 0
M  V30 46 H 0.530062 2.705956 1.514872 0
M  V30 47 H -1.443030 1.472559 1.062191 0
M  V30 48 H -6.443708 -2.401148 0.106155 0
M  V30 49 H -5.996197 -4.405965 -1.336594 0
M  V30 50 H -3.811210 -5.636620 -2.206988 0
M  V30 51 H -1.305437 -4.536585 -2.054263 0
M  V30 52 H -3.621063 -7.264591 -3.381769 0
M  V30 53 H -2.938448 -9.106561 -4.786267 0
M  V30 54 H -0.507089 -9.257468 -5.411065 0
M  V30 55 H 0.413095 -5.775790 -3.229992 0
M  V30 END ATOM
M  V30 BEGIN BOND
M  V30 1 2 1 2
M  V30 2 1 2 3
M  V30 3 1 3 4
M  V30 4 2 4 5
M  V30 5 1 5 6
M  V30 6 2 6 7
M  V30 7 1 7 8
M  V30 8 1 8 9
M  V30 9 1 9 10
M  V30 10 1 10 11
M  V30 11 1 11 12
M  V30 12 1 12 13
M  V30 13 1 13 14
M  V30 14 1 14 15
M  V30 15 1 7 16
M  V30 16 2 16 17
M  V30 17 1 2 18
M  V30 18 2 18 19
M  V30 19 1 19 20
M  V30 20 1 20 21
M  V30 21 2 21 22
M  V30 22 1 22 23
M  V30 23 2 23 24
M  V30 24 1 24 25
M  V30 25 2 25 26
M  V30 26 1 26 27
M  V30 27 2 27 28
M  V30 28 1 28 29
M  V30 29 2 29 30
M  V30 30 1 17 4
M  V30 31 1 22 18
M  V30 32 1 30 25
M  V30 33 1 15 11
M  V30 34 1 3 31
M  V30 35 1 5 32
M  V30 36 1 6 33
M  V30 37 1 9 34
M  V30 38 1 9 35
M  V30 39 1 10 36
M  V30 40 1 10 37
M  V30 41 1 12 38
M  V30 42 1 12 39
M  V30 43 1 13 40
M  V30 44 1 13 41
M  V30 45 1 14 42
M  V30 46 1 14 43
M  V30 47 1 15 44
M  V30 48 1 15 45
M  V30 49 1 16 46
M  V30 50 1 17 47
M  V30 51 1 20 48
M  V30 52 1 21 49
M  V30 53 1 23 50
M  V30 54 1 24 51
M  V30 55 1 26 52
M  V30 56 1 27 53
M  V30 57 1 28 54
M  V30 58 1 30 55
M  V30 END BOND
M  V30 END CTAB
M  END
>  <Dataset>  (491) 
ChEMBL_Kinases

>  <Ligand_Instance>  (491) 
nan

>  <PDB_ID>  (491) 
nan

>  <Standardized_SMILES>  (491) 
O=C(Nc1ccc(OCCN2CCCC2)cc1)c1n[nH]cc1/C=C/c1cccnc1

>  <Name>  (491) 
nan

>  <Pocket>  (491) 
nan

>  <ATP_Site>  (491) 
nan

>  <Peripheral>  (491) 
nan

>  <Num_H_Atoms_ProtBoundConf>  (491) 
nan

>  <Num_Resolved_Atoms>  (491) 
nan

>  <Num_Not_Resolved_Atoms>  (491) 
nan

$$$$
CHEMBL4797409
     RDKit          3D

  0  0  0  0  0  0  0  0  0  0999 V3000
M  V30 BEGIN CTAB
M  V30 COUNTS 67 70 0 0 0
M  V30 BEGIN ATOM
M  V30 1 C 1.959604 -4.481485 5.032673 0
M  V30 2 C 2.373173 -3.255873 5.211565 0
M  V30 3 C 3.192549 -2.419984 4.391814 0
M  V30 4 O 3.340131 -1.279637 4.958379 0
M  V30 5 N 3.825641 -2.613086 3.153627 0
M  V30 6 C 4.501035 -1.361477 2.867872 0
M  V30 7 C 5.756020 -0.963746 3.248589 0
M  V30 8 C 6.211344 0.281769 2.873248 0
M  V30 9 C 5.392085 1.101448 2.120912 0
M  V30 10 C 4.118160 0.758628 1.705168 0
M  V30 11 C 3.278094 1.653645 0.913814 0
M  V30 12 O 3.561949 2.305504 -0.111385 0
M  V30 13 N 1.908574 1.916669 1.239917 0
M  V30 14 C 1.194918 2.830537 0.354608 0
M  V30 15 C -0.256761 2.839984 0.708748 0
M  V30 16 C -0.848674 1.424624 0.813134 0
M  V30 17 C 0.032951 0.569955 1.704322 0
M  V30 18 N -0.701255 -0.299912 2.576696 0
M  V30 19 C -1.330695 -1.512867 2.206364 0
M  V30 20 N -2.014951 -2.371674 2.744421 0
M  V30 21 C -2.421818 -3.457450 2.104016 0
M  V30 22 C -2.010425 -3.635084 0.619805 0
M  V30 23 S -2.419680 -4.981685 -0.463519 0
M  V30 24 C -3.905178 -4.612242 -1.443328 0
M  V30 25 C -3.607420 -3.462919 -2.381586 0
M  V30 26 N -3.113211 -3.683524 -3.640057 0
M  V30 27 C -2.950440 -2.482426 -4.215260 0
M  V30 28 C -3.359124 -1.530154 -3.273486 0
M  V30 29 C -3.360360 -0.055026 -3.446570 0
M  V30 30 C -1.999376 0.449336 -2.951846 0
M  V30 31 C -4.468796 0.520647 -2.563175 0
M  V30 32 C -3.545315 0.361738 -4.865489 0
M  V30 33 O -3.738253 -2.180519 -2.205967 0
M  V30 34 S -1.009769 -2.038924 0.395484 0
M  V30 35 C 1.084673 1.410767 2.329533 0
M  V30 36 C 3.709399 -0.500634 2.107368 0
M  V30 37 H 1.392456 -5.375728 5.367777 0
M  V30 38 H 2.070849 -5.284817 4.288516 0
M  V30 39 H 1.910009 -3.067377 6.160234 0
M  V30 40 H 3.659271 -3.564671 2.765374 0
M  V30 41 H 6.284081 -1.704638 3.836306 0
M  V30 42 H 7.204389 0.554385 3.194612 0
M  V30 43 H 5.747555 2.089836 1.821521 0
M  V30 44 H 1.608130 3.848373 0.580244 0
M  V30 45 H 1.350821 2.577506 -0.714243 0
M  V30 46 H -0.475594 3.433714 1.617117 0
M  V30 47 H -0.817115 3.310040 -0.153873 0
M  V30 48 H -1.861456 1.518932 1.206293 0
M  V30 49 H -0.912221 1.055171 -0.228510 0
M  V30 50 H 0.609632 -0.160312 1.022779 0
M  V30 51 H -0.812782 -0.063823 3.576208 0
M  V30 52 H -3.019374 -4.289266 2.441177 0
M  V30 53 H -4.122935 -5.502321 -2.066246 0
M  V30 54 H -4.790736 -4.420652 -0.831615 0
M  V30 55 H -2.594386 -2.181508 -5.188038 0
M  V30 56 H -2.088898 1.420865 -2.412585 0
M  V30 57 H -1.287988 0.511761 -3.790636 0
M  V30 58 H -1.571478 -0.295413 -2.244503 0
M  V30 59 H -5.379767 -0.106210 -2.565455 0
M  V30 60 H -4.690218 1.561610 -2.889130 0
M  V30 61 H -4.048758 0.479430 -1.538088 0
M  V30 62 H -3.958709 1.413333 -4.871925 0
M  V30 63 H -4.224812 -0.278415 -5.463532 0
M  V30 64 H -2.556513 0.426351 -5.378130 0
M  V30 65 H 0.618627 2.271747 2.869311 0
M  V30 66 H 1.663830 0.870990 3.086011 0
M  V30 67 H 2.726056 -0.794025 1.787396 0
M  V30 END ATOM
M  V30 BEGIN BOND
M  V30 1 2 1 2
M  V30 2 1 2 3
M  V30 3 2 3 4
M  V30 4 1 3 5
M  V30 5 1 5 6
M  V30 6 2 6 7
M  V30 7 1 7 8
M  V30 8 2 8 9
M  V30 9 1 9 10
M  V30 10 1 10 11
M  V30 11 2 11 12
M  V30 12 1 11 13
M  V30 13 1 13 14
M  V30 14 1 14 15
M  V30 15 1 15 16
M  V30 16 1 16 17
M  V30 17 1 17 18
M  V30 18 1 18 19
M  V30 19 2 19 20
M  V30 20 1 20 21
M  V30 21 2 21 22
M  V30 22 1 22 23
M  V30 23 1 23 24
M  V30 24 1 24 25
M  V30 25 2 25 26
M  V30 26 1 26 27
M  V30 27 2 27 28
M  V30 28 1 28 29
M  V30 29 1 29 30
M  V30 30 1 29 31
M  V30 31 1 29 32
M  V30 32 1 28 33
M  V30 33 1 22 34
M  V30 34 1 17 35
M  V30 35 2 10 36
M  V30 36 1 36 6
M  V30 37 1 35 13
M  V30 38 1 34 19
M  V30 39 1 33 25
M  V30 40 1 1 37
M  V30 41 1 1 38
M  V30 42 1 2 39
M  V30 43 1 5 40
M  V30 44 1 7 41
M  V30 45 1 8 42
M  V30 46 1 9 43
M  V30 47 1 14 44
M  V30 48 1 14 45
M  V30 49 1 15 46
M  V30 50 1 15 47
M  V30 51 1 16 48
M  V30 52 1 16 49
M  V30 53 1 17 50
M  V30 54 1 18 51
M  V30 55 1 21 52
M  V30 56 1 24 53
M  V30 57 1 24 54
M  V30 58 1 27 55
M  V30 59 1 30 56
M  V30 60 1 30 57
M  V30 61 1 30 58
M  V30 62 1 31 59
M  V30 63 1 31 60
M  V30 64 1 31 61
M  V30 65 1 32 62
M  V30 66 1 32 63
M  V30 67 1 32 64
M  V30 68 1 35 65
M  V30 69 1 35 66
M  V30 70 1 36 67
M  V30 END BOND
M  V30 END CTAB
M  END
>  <Dataset>  (492) 
ChEMBL_Kinases

>  <Ligand_Instance>  (492) 
nan

>  <PDB_ID>  (492) 
nan

>  <Standardized_SMILES>  (492) 
C=CC(=O)Nc1cccc(C(=O)N2CCCC(Nc3ncc(SCc4ncc(C(C)(C)C)o4)s3)C2)c1

>  <Name>  (492) 
nan

>  <Pocket>  (492) 
nan

>  <ATP_Site>  (492) 
nan

>  <Peripheral>  (492) 
nan

>  <Num_H_Atoms_ProtBoundConf>  (492) 
nan

>  <Num_Resolved_Atoms>  (492) 
nan

>  <Num_Not_Resolved_Atoms>  (492) 
nan

$$$$
CHEMBL3394060
     RDKit          3D

  0  0  0  0  0  0  0  0  0  0999 V3000
M  V30 BEGIN CTAB
M  V30 COUNTS 39 43 0 0 0
M  V30 BEGIN ATOM
M  V30 1 N 1.503662 -6.310741 2.980878 0
M  V30 2 C 1.774432 -5.403416 1.912644 0
M  V30 3 N 2.404622 -5.498080 0.908437 0
M  V30 4 C 2.531173 -4.496711 0.021411 0
M  V30 5 C 1.934338 -3.332611 0.250779 0
M  V30 6 C 1.975270 -2.164395 -0.603258 0
M  V30 7 C 2.676562 -2.162998 -1.792495 0
M  V30 8 C 2.634308 -0.986509 -2.511168 0
M  V30 9 C 1.938897 0.122363 -2.077686 0
M  V30 10 N 1.763081 1.348239 -2.603185 0
M  V30 11 C 0.979951 2.098467 -1.780139 0
M  V30 12 C 0.630851 1.324511 -0.668751 0
M  V30 13 C -0.201463 1.756857 0.451071 0
M  V30 14 C 0.005879 3.005823 1.034484 0
M  V30 15 N -0.762267 3.425791 2.081262 0
M  V30 16 C -1.742056 2.611785 2.558520 0
M  V30 17 C -2.524140 3.024437 3.614798 0
M  V30 18 C -3.540598 2.229271 4.141262 0
M  V30 19 C -3.773487 0.980501 3.583908 0
M  V30 20 C -3.000213 0.548884 2.524517 0
M  V30 21 C -1.998897 1.365215 2.026879 0
M  V30 22 C -1.201801 0.949536 0.953441 0
M  V30 23 C 1.243247 0.104493 -0.886940 0
M  V30 24 C 1.260522 -1.054522 -0.137678 0
M  V30 25 S 1.121186 -3.615005 1.818259 0
M  V30 26 H 1.895456 -6.356151 3.942146 0
M  V30 27 H 0.822531 -7.090669 2.894921 0
M  V30 28 H 3.144695 -4.722535 -0.866467 0
M  V30 29 H 3.196693 -3.055171 -2.074541 0
M  V30 30 H 3.193804 -0.998263 -3.451312 0
M  V30 31 H 2.160478 1.701288 -3.513682 0
M  V30 32 H 0.682880 3.138796 -1.975551 0
M  V30 33 H 0.790435 3.655133 0.650736 0
M  V30 34 H -2.407942 3.969917 4.097825 0
M  V30 35 H -4.178233 2.512894 4.968883 0
M  V30 36 H -4.525790 0.261927 3.890883 0
M  V30 37 H -3.136828 -0.430244 2.040829 0
M  V30 38 H -1.409862 -0.014882 0.551602 0
M  V30 39 H 0.725589 -1.084029 0.788592 0
M  V30 END ATOM
M  V30 BEGIN BOND
M  V30 1 1 1 2
M  V30 2 2 2 3
M  V30 3 1 3 4
M  V30 4 2 4 5
M  V30 5 1 5 6
M  V30 6 2 6 7
M  V30 7 1 7 8
M  V30 8 2 8 9
M  V30 9 1 9 10
M  V30 10 1 10 11
M  V30 11 2 11 12
M  V30 12 1 12 13
M  V30 13 2 13 14
M  V30 14 1 14 15
M  V30 15 2 15 16
M  V30 16 1 16 17
M  V30 17 2 17 18
M  V30 18 1 18 19
M  V30 19 2 19 20
M  V30 20 1 20 21
M  V30 21 2 21 22
M  V30 22 1 12 23
M  V30 23 2 23 24
M  V30 24 1 5 25
M  V30 25 1 25 2
M  V30 26 1 24 6
M  V30 27 1 23 9
M  V30 28 1 22 13
M  V30 29 1 21 16
M  V30 30 1 1 26
M  V30 31 1 1 27
M  V30 32 1 4 28
M  V30 33 1 7 29
M  V30 34 1 8 30
M  V30 35 1 10 31
M  V30 36 1 11 32
M  V30 37 1 14 33
M  V30 38 1 17 34
M  V30 39 1 18 35
M  V30 40 1 19 36
M  V30 41 1 20 37
M  V30 42 1 22 38
M  V30 43 1 24 39
M  V30 END BOND
M  V30 END CTAB
M  END
>  <Dataset>  (493) 
ChEMBL_Kinases

>  <Ligand_Instance>  (493) 
nan

>  <PDB_ID>  (493) 
nan

>  <Standardized_SMILES>  (493) 
Nc1ncc(-c2ccc3[nH]cc(-c4cnc5ccccc5c4)c3c2)s1

>  <Name>  (493) 
nan

>  <Pocket>  (493) 
nan

>  <ATP_Site>  (493) 
nan

>  <Peripheral>  (493) 
nan

>  <Num_H_Atoms_ProtBoundConf>  (493) 
nan

>  <Num_Resolved_Atoms>  (493) 
nan

>  <Num_Not_Resolved_Atoms>  (493) 
nan

$$$$
CHEMBL3394059
     RDKit          3D

  0  0  0  0  0  0  0  0  0  0999 V3000
M  V30 BEGIN CTAB
M  V30 COUNTS 38 42 0 0 0
M  V30 BEGIN ATOM
M  V30 1 N -0.323610 -6.287372 3.038982 0
M  V30 2 C 0.562241 -5.295710 2.456384 0
M  V30 3 N 1.713679 -5.392536 2.164702 0
M  V30 4 C 2.446306 -4.430914 1.635342 0
M  V30 5 C 1.874494 -3.246827 1.398534 0
M  V30 6 C 2.444477 -2.037257 0.831668 0
M  V30 7 C 3.772994 -2.046344 0.460674 0
M  V30 8 C 4.243047 -0.862392 -0.069434 0
M  V30 9 C 3.425760 0.240473 -0.209848 0
M  V30 10 N 3.675140 1.470345 -0.693251 0
M  V30 11 N 2.575198 2.196880 -0.627650 0
M  V30 12 C 1.554254 1.463477 -0.093809 0
M  V30 13 C 0.177173 1.876299 0.155220 0
M  V30 14 C -0.122043 3.097434 0.740675 0
M  V30 15 N -1.398041 3.506024 0.983664 0
M  V30 16 C -2.437726 2.696787 0.645272 0
M  V30 17 C -3.724213 3.128867 0.899712 0
M  V30 18 C -4.764790 2.280795 0.543118 0
M  V30 19 C -4.565091 1.046463 -0.044549 0
M  V30 20 C -3.273641 0.622820 -0.295225 0
M  V30 21 C -2.223187 1.466593 0.058954 0
M  V30 22 C -0.911863 1.090252 -0.170305 0
M  V30 23 C 2.099684 0.216171 0.171675 0
M  V30 24 C 1.604612 -0.950480 0.703016 0
M  V30 25 S 0.131636 -3.486286 1.969723 0
M  V30 26 H -0.548125 -5.965390 4.022570 0
M  V30 27 H -0.557695 -7.087446 2.408457 0
M  V30 28 H 3.504992 -4.636371 1.406274 0
M  V30 29 H 4.339274 -2.955874 0.606806 0
M  V30 30 H 5.304180 -0.882408 -0.361475 0
M  V30 31 H 4.614764 1.769948 -1.058456 0
M  V30 32 H 0.706935 3.756657 1.017053 0
M  V30 33 H -3.964910 4.087228 1.359425 0
M  V30 34 H -5.804527 2.546535 0.709559 0
M  V30 35 H -5.393656 0.401897 -0.314071 0
M  V30 36 H -3.090178 -0.336740 -0.753205 0
M  V30 37 H -0.762168 0.127334 -0.628514 0
M  V30 38 H 0.569341 -1.010063 1.014515 0
M  V30 END ATOM
M  V30 BEGIN BOND
M  V30 1 1 1 2
M  V30 2 2 2 3
M  V30 3 1 3 4
M  V30 4 2 4 5
M  V30 5 1 5 6
M  V30 6 2 6 7
M  V30 7 1 7 8
M  V30 8 2 8 9
M  V30 9 1 9 10
M  V30 10 1 10 11
M  V30 11 2 11 12
M  V30 12 1 12 13
M  V30 13 2 13 14
M  V30 14 1 14 15
M  V30 15 2 15 16
M  V30 16 1 16 17
M  V30 17 2 17 18
M  V30 18 1 18 19
M  V30 19 2 19 20
M  V30 20 1 20 21
M  V30 21 2 21 22
M  V30 22 1 12 23
M  V30 23 2 23 24
M  V30 24 1 5 25
M  V30 25 1 25 2
M  V30 26 1 24 6
M  V30 27 1 23 9
M  V30 28 1 22 13
M  V30 29 1 21 16
M  V30 30 1 1 26
M  V30 31 1 1 27
M  V30 32 1 4 28
M  V30 33 1 7 29
M  V30 34 1 8 30
M  V30 35 1 10 31
M  V30 36 1 14 32
M  V30 37 1 17 33
M  V30 38 1 18 34
M  V30 39 1 19 35
M  V30 40 1 20 36
M  V30 41 1 22 37
M  V30 42 1 24 38
M  V30 END BOND
M  V30 END CTAB
M  END
>  <Dataset>  (494) 
ChEMBL_Kinases

>  <Ligand_Instance>  (494) 
nan

>  <PDB_ID>  (494) 
nan

>  <Standardized_SMILES>  (494) 
Nc1ncc(-c2ccc3[nH]nc(-c4cnc5ccccc5c4)c3c2)s1

>  <Name>  (494) 
nan

>  <Pocket>  (494) 
nan

>  <ATP_Site>  (494) 
nan

>  <Peripheral>  (494) 
nan

>  <Num_H_Atoms_ProtBoundConf>  (494) 
nan

>  <Num_Resolved_Atoms>  (494) 
nan

>  <Num_Not_Resolved_Atoms>  (494) 
nan

$$$$
CHEMBL4797346
     RDKit          3D

  0  0  0  0  0  0  0  0  0  0999 V3000
M  V30 BEGIN CTAB
M  V30 COUNTS 45 48 0 0 0
M  V30 BEGIN ATOM
M  V30 1 C -2.262351 -7.396157 -0.261571 0
M  V30 2 O -2.658814 -6.239373 -0.956351 0
M  V30 3 C -1.783275 -5.247913 -1.361108 0
M  V30 4 C -2.302206 -4.153116 -2.040558 0
M  V30 5 C -1.403188 -3.157515 -2.443827 0
M  V30 6 C -0.061814 -3.296515 -2.157929 0
M  V30 7 N 0.679163 -2.179689 -2.651157 0
M  V30 8 C 0.733126 -1.176849 -1.632444 0
M  V30 9 O 0.110668 -1.563202 -0.586390 0
M  V30 10 C 1.409290 0.110319 -1.775732 0
M  V30 11 N 2.105694 0.686529 -2.788196 0
M  V30 12 N 2.523607 1.882115 -2.413096 0
M  V30 13 C 2.118218 2.130385 -1.148656 0
M  V30 14 C 2.336620 3.261909 -0.366158 0
M  V30 15 C 1.793352 3.223738 0.900199 0
M  V30 16 C 1.077192 2.154428 1.389995 0
M  V30 17 C 0.491292 2.087298 2.723857 0
M  V30 18 C -0.686538 1.356230 2.912984 0
M  V30 19 N -1.312790 1.229109 4.106726 0
M  V30 20 C -0.804548 1.830512 5.220035 0
M  V30 21 C 0.358998 2.565463 5.086452 0
M  V30 22 C 0.949430 3.243170 6.288792 0
M  V30 23 O 1.821768 2.318690 6.859128 0
M  V30 24 C 0.995643 2.690837 3.856989 0
M  V30 25 C 0.895279 1.050309 0.550997 0
M  V30 26 C 1.411864 1.017235 -0.733108 0
M  V30 27 C 0.400356 -4.409113 -1.477544 0
M  V30 28 N -0.455153 -5.355892 -1.094148 0
M  V30 29 H -1.766242 -8.113182 -0.940954 0
M  V30 30 H -1.526148 -7.161032 0.538757 0
M  V30 31 H -3.121885 -7.884198 0.231926 0
M  V30 32 H -3.372042 -4.108255 -2.232753 0
M  V30 33 H -1.891390 -2.338883 -2.967814 0
M  V30 34 H 1.166917 -1.966102 -3.571907 0
M  V30 35 H 3.071150 2.453765 -3.071810 0
M  V30 36 H 2.896090 4.112703 -0.731076 0
M  V30 37 H 1.915050 4.061659 1.575885 0
M  V30 38 H -1.187383 0.837734 2.125037 0
M  V30 39 H -1.306541 1.727707 6.173259 0
M  V30 40 H 1.444714 4.187492 5.996471 0
M  V30 41 H 0.147277 3.414614 7.056680 0
M  V30 42 H 2.167158 1.665238 6.187470 0
M  V30 43 H 1.899349 3.259024 3.741315 0
M  V30 44 H 0.335563 0.204272 0.921780 0
M  V30 45 H 1.476315 -4.388499 -1.320305 0
M  V30 END ATOM
M  V30 BEGIN BOND
M  V30 1 1 1 2
M  V30 2 1 2 3
M  V30 3 2 3 4
M  V30 4 1 4 5
M  V30 5 2 5 6
M  V30 6 1 6 7
M  V30 7 1 7 8
M  V30 8 2 8 9
M  V30 9 1 8 10
M  V30 10 2 10 11
M  V30 11 1 11 12
M  V30 12 1 12 13
M  V30 13 2 13 14
M  V30 14 1 14 15
M  V30 15 2 15 16
M  V30 16 1 16 17
M  V30 17 2 17 18
M  V30 18 1 18 19
M  V30 19 2 19 20
M  V30 20 1 20 21
M  V30 21 1 21 22
M  V30 22 1 22 23
M  V30 23 2 21 24
M  V30 24 1 16 25
M  V30 25 2 25 26
M  V30 26 1 6 27
M  V30 27 2 27 28
M  V30 28 1 28 3
M  V30 29 1 26 10
M  V30 30 1 26 13
M  V30 31 1 24 17
M  V30 32 1 1 29
M  V30 33 1 1 30
M  V30 34 1 1 31
M  V30 35 1 4 32
M  V30 36 1 5 33
M  V30 37 1 7 34
M  V30 38 1 12 35
M  V30 39 1 14 36
M  V30 40 1 15 37
M  V30 41 1 18 38
M  V30 42 1 20 39
M  V30 43 1 22 40
M  V30 44 1 22 41
M  V30 45 1 23 42
M  V30 46 1 24 43
M  V30 47 1 25 44
M  V30 48 1 27 45
M  V30 END BOND
M  V30 END CTAB
M  END
>  <Dataset>  (495) 
ChEMBL_Kinases

>  <Ligand_Instance>  (495) 
nan

>  <PDB_ID>  (495) 
nan

>  <Standardized_SMILES>  (495) 
COc1ccc(NC(=O)c2n[nH]c3ccc(-c4cncc(CO)c4)cc23)cn1

>  <Name>  (495) 
nan

>  <Pocket>  (495) 
nan

>  <ATP_Site>  (495) 
nan

>  <Peripheral>  (495) 
nan

>  <Num_H_Atoms_ProtBoundConf>  (495) 
nan

>  <Num_Resolved_Atoms>  (495) 
nan

>  <Num_Not_Resolved_Atoms>  (495) 
nan

$$$$
CHEMBL4797314
     RDKit          3D

  0  0  0  0  0  0  0  0  0  0999 V3000
M  V30 BEGIN CTAB
M  V30 COUNTS 56 61 0 0 0
M  V30 BEGIN ATOM
M  V30 1 C 5.800076 -1.124980 3.660516 0
M  V30 2 N 5.122998 0.091526 3.193377 0
M  V30 3 C 3.727991 -0.072562 3.499237 0
M  V30 4 C 5.318337 0.162385 1.761785 0
M  V30 5 C 4.661689 1.372670 1.200616 0
M  V30 6 C 5.387587 2.543914 1.121035 0
M  V30 7 N 4.780922 3.631971 0.611057 0
M  V30 8 C 3.495076 3.593708 0.184037 0
M  V30 9 C 2.733711 2.450688 0.243667 0
M  V30 10 C 1.361248 2.513209 -0.240854 0
M  V30 11 C 0.488300 1.449841 -0.241368 0
M  V30 12 C -0.802397 1.527251 -0.702170 0
M  V30 13 C -1.802582 0.589047 -0.780863 0
M  V30 14 C -1.847063 -0.806560 -0.406718 0
M  V30 15 C -3.010418 -1.554673 -0.593492 0
M  V30 16 C -2.849144 -2.853929 -0.175936 0
M  V30 17 C -3.633396 -3.985345 -0.128645 0
M  V30 18 C -5.009043 -3.917213 -0.606832 0
M  V30 19 C -6.012707 -3.004891 -0.366944 0
M  V30 20 C -7.237620 -3.171426 -0.955730 0
M  V30 21 N -7.476434 -4.221842 -1.771399 0
M  V30 22 C -6.535946 -5.144467 -2.042612 0
M  V30 23 C -5.289071 -4.994496 -1.456842 0
M  V30 24 C -3.130445 -5.171419 0.371047 0
M  V30 25 C -1.835071 -5.174422 0.812149 0
M  V30 26 N -1.076444 -4.084184 0.767807 0
M  V30 27 C -1.557726 -2.927582 0.283515 0
M  V30 28 N -1.037268 -1.702938 0.118721 0
M  V30 29 N -2.808369 1.320111 -1.326964 0
M  V30 30 N -2.455846 2.554780 -1.551331 0
M  V30 31 C -1.182673 2.761038 -1.175635 0
M  V30 32 C -0.336213 3.849842 -1.191209 0
M  V30 33 N 0.925310 3.691535 -0.717790 0
M  V30 34 C 3.352339 1.336029 0.765135 0
M  V30 35 H 6.789855 -0.767040 4.043894 0
M  V30 36 H 5.904089 -1.881487 2.874883 0
M  V30 37 H 5.290422 -1.590221 4.521325 0
M  V30 38 H 3.198756 0.906476 3.514504 0
M  V30 39 H 3.579194 -0.485049 4.537138 0
M  V30 40 H 3.256564 -0.799110 2.833025 0
M  V30 41 H 6.371319 0.067140 1.465963 0
M  V30 42 H 4.773617 -0.735759 1.348225 0
M  V30 43 H 6.418402 2.645285 1.443623 0
M  V30 44 H 3.126530 4.540963 -0.205573 0
M  V30 45 H 0.876169 0.529268 0.147332 0
M  V30 46 H -3.966149 -1.236890 -1.009389 0
M  V30 47 H -5.693194 -2.226372 0.296895 0
M  V30 48 H -7.963270 -2.405169 -0.709021 0
M  V30 49 H -6.793395 -5.960517 -2.704107 0
M  V30 50 H -4.600965 -5.793539 -1.740648 0
M  V30 51 H -3.729288 -6.053040 0.411911 0
M  V30 52 H -1.357318 -6.052881 1.218055 0
M  V30 53 H -0.061295 -1.507973 0.396128 0
M  V30 54 H -3.115811 3.248471 -1.969349 0
M  V30 55 H -0.695378 4.797176 -1.577584 0
M  V30 56 H 2.784945 0.427786 0.825249 0
M  V30 END ATOM
M  V30 BEGIN BOND
M  V30 1 1 1 2
M  V30 2 1 2 3
M  V30 3 1 2 4
M  V30 4 1 4 5
M  V30 5 2 5 6
M  V30 6 1 6 7
M  V30 7 2 7 8
M  V30 8 1 8 9
M  V30 9 1 9 10
M  V30 10 2 10 11
M  V30 11 1 11 12
M  V30 12 1 12 13
M  V30 13 1 13 14
M  V30 14 2 14 15
M  V30 15 1 15 16
M  V30 16 2 16 17
M  V30 17 1 17 18
M  V30 18 2 18 19
M  V30 19 1 19 20
M  V30 20 2 20 21
M  V30 21 1 21 22
M  V30 22 2 22 23
M  V30 23 1 17 24
M  V30 24 2 24 25
M  V30 25 1 25 26
M  V30 26 2 26 27
M  V30 27 1 27 28
M  V30 28 2 13 29
M  V30 29 1 29 30
M  V30 30 1 30 31
M  V30 31 1 31 32
M  V30 32 2 32 33
M  V30 33 2 9 34
M  V30 34 1 34 5
M  V30 35 1 33 10
M  V30 36 2 31 12
M  V30 37 1 28 14
M  V30 38 1 27 16
M  V30 39 1 23 18
M  V30 40 1 1 35
M  V30 41 1 1 36
M  V30 42 1 1 37
M  V30 43 1 3 38
M  V30 44 1 3 39
M  V30 45 1 3 40
M  V30 46 1 4 41
M  V30 47 1 4 42
M  V30 48 1 6 43
M  V30 49 1 8 44
M  V30 50 1 11 45
M  V30 51 1 15 46
M  V30 52 1 19 47
M  V30 53 1 20 48
M  V30 54 1 22 49
M  V30 55 1 23 50
M  V30 56 1 24 51
M  V30 57 1 25 52
M  V30 58 1 28 53
M  V30 59 1 30 54
M  V30 60 1 32 55
M  V30 61 1 34 56
M  V30 END BOND
M  V30 END CTAB
M  END
>  <Dataset>  (496) 
ChEMBL_Kinases

>  <Ligand_Instance>  (496) 
nan

>  <PDB_ID>  (496) 
nan

>  <Standardized_SMILES>  (496) 
CN(C)Cc1cncc(-c2cc3c(-c4cc5c(-c6ccncc6)ccnc5[nH]4)n[nH]c3cn2)c1

>  <Name>  (496) 
nan

>  <Pocket>  (496) 
nan

>  <ATP_Site>  (496) 
nan

>  <Peripheral>  (496) 
nan

>  <Num_H_Atoms_ProtBoundConf>  (496) 
nan

>  <Num_Resolved_Atoms>  (496) 
nan

>  <Num_Not_Resolved_Atoms>  (496) 
nan

$$$$
CHEMBL4797300
     RDKit          3D

  0  0  0  0  0  0  0  0  0  0999 V3000
M  V30 BEGIN CTAB
M  V30 COUNTS 59 64 0 0 0
M  V30 BEGIN ATOM
M  V30 1 C 0.962157 -1.742136 2.554373 0
M  V30 2 C 2.223516 -2.440039 2.315587 0
M  V30 3 C 2.303852 -3.728270 2.764975 0
M  V30 4 C 3.449953 -4.463999 2.644445 0
M  V30 5 N 4.485865 -3.850789 2.062517 0
M  V30 6 C 4.397291 -2.588312 1.624543 0
M  V30 7 C 3.270278 -1.799983 1.717573 0
M  V30 8 C 3.352046 -0.451004 1.220096 0
M  V30 9 C 2.397882 0.449806 0.841174 0
M  V30 10 C 2.611414 1.694862 0.358001 0
M  V30 11 C 1.787757 2.713776 -0.054837 0
M  V30 12 C 0.334625 2.762540 -0.098619 0
M  V30 13 N -0.587640 1.823413 0.211952 0
M  V30 14 C -1.808769 2.343548 -0.011210 0
M  V30 15 C -3.032120 1.745450 0.174629 0
M  V30 16 C -3.287170 0.377033 0.613583 0
M  V30 17 C -4.073252 -0.130166 1.624340 0
M  V30 18 C -4.148642 -1.497891 1.783483 0
M  V30 19 F -4.936166 -1.912484 2.791095 0
M  V30 20 C -3.468030 -2.380058 0.970133 0
M  V30 21 C -2.666962 -1.873208 -0.059968 0
M  V30 22 C -2.003954 -2.922332 -0.869640 0
M  V30 23 N -0.694800 -3.297453 -0.398530 0
M  V30 24 S -0.055670 -4.540073 -1.454047 0
M  V30 25 C -1.091556 -5.978271 -1.412871 0
M  V30 26 O 0.078979 -4.033711 -2.851328 0
M  V30 27 O 1.314641 -4.886265 -0.947171 0
M  V30 28 C -2.586487 -0.499098 -0.224511 0
M  V30 29 C -4.195574 2.461167 -0.107023 0
M  V30 30 C -4.044976 3.757204 -0.567451 0
M  V30 31 N -2.816270 4.306130 -0.736944 0
M  V30 32 C -1.683700 3.629429 -0.469383 0
M  V30 33 N -0.355858 3.846410 -0.509006 0
M  V30 34 N 2.562461 3.741904 -0.432327 0
M  V30 35 N 3.848947 3.411663 -0.274971 0
M  V30 36 C 3.895267 2.161611 0.207788 0
M  V30 37 C 4.874743 1.270186 0.581590 0
M  V30 38 N 4.595654 0.046065 1.055054 0
M  V30 39 H 1.083098 -0.712695 2.984149 0
M  V30 40 H 0.321659 -1.727803 1.676269 0
M  V30 41 H 0.344336 -2.281775 3.353605 0
M  V30 42 H 1.455430 -4.223237 3.239317 0
M  V30 43 H 3.493331 -5.480457 3.005697 0
M  V30 44 H 5.325707 -2.247875 1.180926 0
M  V30 45 H 1.381081 0.146460 0.908203 0
M  V30 46 H -4.541602 0.653528 2.175233 0
M  V30 47 H -3.609756 -3.445720 1.198272 0
M  V30 48 H -2.664182 -3.794720 -1.033331 0
M  V30 49 H -1.852567 -2.498682 -1.906794 0
M  V30 50 H -0.008109 -2.493455 -0.549724 0
M  V30 51 H -0.946504 -6.535553 -0.448373 0
M  V30 52 H -0.727422 -6.666104 -2.201956 0
M  V30 53 H -2.156282 -5.704799 -1.549396 0
M  V30 54 H -1.931756 -0.270494 -1.056638 0
M  V30 55 H -5.198429 2.055419 0.016695 0
M  V30 56 H -4.923179 4.366516 -0.804826 0
M  V30 57 H -0.011308 4.796346 -0.841051 0
M  V30 58 H 4.711766 3.966288 -0.468702 0
M  V30 59 H 5.913828 1.557221 0.494877 0
M  V30 END ATOM
M  V30 BEGIN BOND
M  V30 1 1 1 2
M  V30 2 2 2 3
M  V30 3 1 3 4
M  V30 4 2 4 5
M  V30 5 1 5 6
M  V30 6 2 6 7
M  V30 7 1 7 8
M  V30 8 2 8 9
M  V30 9 1 9 10
M  V30 10 1 10 11
M  V30 11 1 11 12
M  V30 12 2 12 13
M  V30 13 1 13 14
M  V30 14 2 14 15
M  V30 15 1 15 16
M  V30 16 2 16 17
M  V30 17 1 17 18
M  V30 18 1 18 19
M  V30 19 2 18 20
M  V30 20 1 20 21
M  V30 21 1 21 22
M  V30 22 1 22 23
M  V30 23 1 23 24
M  V30 24 1 24 25
M  V30 25 2 24 26
M  V30 26 2 24 27
M  V30 27 2 21 28
M  V30 28 1 15 29
M  V30 29 2 29 30
M  V30 30 1 30 31
M  V30 31 2 31 32
M  V30 32 1 32 33
M  V30 33 2 11 34
M  V30 34 1 34 35
M  V30 35 1 35 36
M  V30 36 1 36 37
M  V30 37 2 37 38
M  V30 38 1 7 2
M  V30 39 1 38 8
M  V30 40 2 36 10
M  V30 41 1 33 12
M  V30 42 1 32 14
M  V30 43 1 28 16
M  V30 44 1 1 39
M  V30 45 1 1 40
M  V30 46 1 1 41
M  V30 47 1 3 42
M  V30 48 1 4 43
M  V30 49 1 6 44
M  V30 50 1 9 45
M  V30 51 1 17 46
M  V30 52 1 20 47
M  V30 53 1 22 48
M  V30 54 1 22 49
M  V30 55 1 23 50
M  V30 56 1 25 51
M  V30 57 1 25 52
M  V30 58 1 25 53
M  V30 59 1 28 54
M  V30 60 1 29 55
M  V30 61 1 30 56
M  V30 62 1 33 57
M  V30 63 1 35 58
M  V30 64 1 37 59
M  V30 END BOND
M  V30 END CTAB
M  END
>  <Dataset>  (497) 
ChEMBL_Kinases

>  <Ligand_Instance>  (497) 
nan

>  <PDB_ID>  (497) 
nan

>  <Standardized_SMILES>  (497) 
Cc1ccncc1-c1cc2c(-c3nc4c(-c5cc(F)cc(CNS(C)(=O)=O)c5)ccnc4[nH]3)n[nH]c2cn1

>  <Name>  (497) 
nan

>  <Pocket>  (497) 
nan

>  <ATP_Site>  (497) 
nan

>  <Peripheral>  (497) 
nan

>  <Num_H_Atoms_ProtBoundConf>  (497) 
nan

>  <Num_Resolved_Atoms>  (497) 
nan

>  <Num_Not_Resolved_Atoms>  (497) 
nan

$$$$
CHEMBL4797292
     RDKit          3D

  0  0  0  0  0  0  0  0  0  0999 V3000
M  V30 BEGIN CTAB
M  V30 COUNTS 51 56 0 0 0
M  V30 BEGIN ATOM
M  V30 1 O 0.933764 -3.925905 0.549059 0
M  V30 2 C -0.097617 -4.110323 -0.177480 0
M  V30 3 N 0.144089 -3.555332 -1.487563 0
M  V30 4 C 1.471456 -2.987385 -1.507797 0
M  V30 5 C 2.649368 -3.618863 -1.852104 0
M  V30 6 N 3.796556 -2.926170 -1.811275 0
M  V30 7 C 3.855806 -1.632057 -1.447184 0
M  V30 8 C 2.724296 -0.927882 -1.088305 0
M  V30 9 C 2.708271 0.481346 -0.680234 0
M  V30 10 C 3.645391 1.358493 -1.234115 0
M  V30 11 C 3.610449 2.696718 -0.829755 0
M  V30 12 C 2.673248 3.122196 0.088893 0
M  V30 13 N 2.379053 4.299236 0.669002 0
M  V30 14 N 1.370657 4.154109 1.488513 0
M  V30 15 C 0.913474 2.893891 1.525940 0
M  V30 16 C -0.190928 2.439171 2.340371 0
M  V30 17 C -0.837849 1.257556 2.561121 0
M  V30 18 C -1.865867 1.376231 3.470492 0
M  V30 19 C -2.768813 0.472466 3.987175 0
M  V30 20 N -3.693838 0.877037 4.888784 0
M  V30 21 C -3.712455 2.177059 5.268440 0
M  V30 22 C -2.803432 3.091171 4.749513 0
M  V30 23 C -1.844260 2.708685 3.824999 0
M  V30 24 N -0.860389 3.285059 3.147688 0
M  V30 25 C 1.740620 2.250526 0.640558 0
M  V30 26 C 1.803162 0.954198 0.224289 0
M  V30 27 C 1.527376 -1.640215 -1.127928 0
M  V30 28 C -1.372942 -4.774313 0.185244 0
M  V30 29 C -1.728962 -5.971447 -0.633655 0
M  V30 30 C -2.985636 -5.229567 -1.062968 0
M  V30 31 C -2.623565 -4.026039 -0.187823 0
M  V30 32 H -0.620022 -3.623648 -2.224024 0
M  V30 33 H 2.532206 -4.656632 -2.134603 0
M  V30 34 H 4.802288 -1.101874 -1.425545 0
M  V30 35 H 4.372838 1.018462 -1.949763 0
M  V30 36 H 4.314549 3.418984 -1.228327 0
M  V30 37 H 2.860757 5.211524 0.513475 0
M  V30 38 H -0.589968 0.330290 2.090377 0
M  V30 39 H -2.714494 -0.561546 3.651444 0
M  V30 40 H -4.458372 2.471246 5.986221 0
M  V30 41 H -2.816636 4.126941 5.050689 0
M  V30 42 H -0.718225 4.315876 3.315277 0
M  V30 43 H 1.123929 0.246519 0.605792 0
M  V30 44 H 0.630246 -1.096179 -0.847525 0
M  V30 45 H -1.342469 -5.031468 1.261395 0
M  V30 46 H -1.007051 -6.195735 -1.444524 0
M  V30 47 H -1.978602 -6.884935 -0.027978 0
M  V30 48 H -3.937688 -5.684065 -0.708642 0
M  V30 49 H -2.980394 -5.030337 -2.145372 0
M  V30 50 H -2.451287 -3.099958 -0.763445 0
M  V30 51 H -3.334386 -3.869817 0.667842 0
M  V30 END ATOM
M  V30 BEGIN BOND
M  V30 1 2 1 2
M  V30 2 1 2 3
M  V30 3 1 3 4
M  V30 4 2 4 5
M  V30 5 1 5 6
M  V30 6 2 6 7
M  V30 7 1 7 8
M  V30 8 1 8 9
M  V30 9 2 9 10
M  V30 10 1 10 11
M  V30 11 2 11 12
M  V30 12 1 12 13
M  V30 13 1 13 14
M  V30 14 2 14 15
M  V30 15 1 15 16
M  V30 16 2 16 17
M  V30 17 1 17 18
M  V30 18 2 18 19
M  V30 19 1 19 20
M  V30 20 2 20 21
M  V30 21 1 21 22
M  V30 22 2 22 23
M  V30 23 1 23 24
M  V30 24 1 15 25
M  V30 25 2 25 26
M  V30 26 2 8 27
M  V30 27 1 2 28
M  V30 28 1 28 29
M  V30 29 1 29 30
M  V30 30 1 30 31
M  V30 31 1 27 4
M  V30 32 1 31 28
M  V30 33 1 26 9
M  V30 34 1 25 12
M  V30 35 1 24 16
M  V30 36 1 23 18
M  V30 37 1 3 32
M  V30 38 1 5 33
M  V30 39 1 7 34
M  V30 40 1 10 35
M  V30 41 1 11 36
M  V30 42 1 13 37
M  V30 43 1 17 38
M  V30 44 1 19 39
M  V30 45 1 21 40
M  V30 46 1 22 41
M  V30 47 1 24 42
M  V30 48 1 26 43
M  V30 49 1 27 44
M  V30 50 1 28 45
M  V30 51 1 29 46
M  V30 52 1 29 47
M  V30 53 1 30 48
M  V30 54 1 30 49
M  V30 55 1 31 50
M  V30 56 1 31 51
M  V30 END BOND
M  V30 END CTAB
M  END
>  <Dataset>  (498) 
ChEMBL_Kinases

>  <Ligand_Instance>  (498) 
nan

>  <PDB_ID>  (498) 
nan

>  <Standardized_SMILES>  (498) 
O=C(Nc1cncc(-c2ccc3[nH]nc(-c4cc5cnccc5[nH]4)c3c2)c1)C1CCC1

>  <Name>  (498) 
nan

>  <Pocket>  (498) 
nan

>  <ATP_Site>  (498) 
nan

>  <Peripheral>  (498) 
nan

>  <Num_H_Atoms_ProtBoundConf>  (498) 
nan

>  <Num_Resolved_Atoms>  (498) 
nan

>  <Num_Not_Resolved_Atoms>  (498) 
nan

$$$$
CHEMBL4797290
     RDKit          3D

  0  0  0  0  0  0  0  0  0  0999 V3000
M  V30 BEGIN CTAB
M  V30 COUNTS 64 70 0 0 0
M  V30 BEGIN ATOM
M  V30 1 F 5.903422 1.180862 6.052360 0
M  V30 2 C 6.114885 1.162497 4.714887 0
M  V30 3 C 7.280886 1.635963 4.170616 0
M  V30 4 C 7.468519 1.604459 2.802421 0
M  V30 5 C 6.473632 1.092143 1.977737 0
M  V30 6 C 5.284329 0.608494 2.523572 0
M  V30 7 C 4.313242 0.093865 1.563531 0
M  V30 8 N 4.846329 -0.707045 0.625903 0
M  V30 9 C 4.047758 -1.250692 -0.326880 0
M  V30 10 C 2.687235 -1.031178 -0.401107 0
M  V30 11 C 2.149824 -0.206800 0.566798 0
M  V30 12 N 0.896212 0.241428 0.830081 0
M  V30 13 C 0.925981 1.045924 1.925240 0
M  V30 14 C -0.215227 1.730929 2.538375 0
M  V30 15 N -0.206615 2.529289 3.619588 0
M  V30 16 N -1.415268 2.985158 3.903952 0
M  V30 17 C -2.223144 2.456393 2.967691 0
M  V30 18 C -3.603679 2.614796 2.802336 0
M  V30 19 C -4.161128 1.937153 1.733353 0
M  V30 20 C -3.476581 1.141131 0.845760 0
M  V30 21 C -4.122903 0.457426 -0.255872 0
M  V30 22 C -5.455704 0.515166 -0.544939 0
M  V30 23 N -6.035439 -0.134021 -1.581989 0
M  V30 24 C -5.249527 -0.895141 -2.394245 0
M  V30 25 C -3.880418 -0.996224 -2.153632 0
M  V30 26 C -3.134658 -1.852600 -3.109169 0
M  V30 27 N -3.080313 -3.220263 -2.701106 0
M  V30 28 C -2.382598 -4.107611 -3.575366 0
M  V30 29 C -1.112139 -4.629018 -2.940622 0
M  V30 30 C -1.482305 -5.459685 -1.722294 0
M  V30 31 C -2.497385 -4.733965 -0.863078 0
M  V30 32 C -2.694143 -3.306592 -1.328211 0
M  V30 33 C -3.346182 -0.317119 -1.088654 0
M  V30 34 N -2.160499 1.044223 1.076335 0
M  V30 35 C -1.522442 1.660987 2.085152 0
M  V30 36 C 2.229283 1.136247 2.403305 0
M  V30 37 C 2.958172 0.348003 1.537395 0
M  V30 38 C 5.128575 0.654312 3.894226 0
M  V30 39 H 8.008488 2.020482 4.889293 0
M  V30 40 H 8.412500 1.996305 2.465973 0
M  V30 41 H 6.732617 1.120481 0.944083 0
M  V30 42 H 4.522254 -1.900991 -1.076136 0
M  V30 43 H 2.050582 -1.460982 -1.155343 0
M  V30 44 H 0.043444 -0.005652 0.263330 0
M  V30 45 H -1.684104 3.623850 4.693265 0
M  V30 46 H -4.185734 3.230232 3.474619 0
M  V30 47 H -5.228187 2.083819 1.638508 0
M  V30 48 H -6.097417 1.105807 0.076672 0
M  V30 49 H -5.762630 -1.399106 -3.216958 0
M  V30 50 H -2.109184 -1.445925 -3.237511 0
M  V30 51 H -3.598603 -1.809634 -4.131118 0
M  V30 52 H -3.033635 -5.003665 -3.710473 0
M  V30 53 H -2.209924 -3.623653 -4.537754 0
M  V30 54 H -0.543329 -5.247696 -3.642064 0
M  V30 55 H -0.507559 -3.754526 -2.676753 0
M  V30 56 H -0.556962 -5.720397 -1.177304 0
M  V30 57 H -1.934764 -6.409397 -2.066343 0
M  V30 58 H -2.096519 -4.703553 0.166664 0
M  V30 59 H -3.467179 -5.262245 -0.830225 0
M  V30 60 H -1.766944 -2.736578 -1.101079 0
M  V30 61 H -3.501571 -2.868478 -0.707691 0
M  V30 62 H -2.296902 -0.408583 -0.924510 0
M  V30 63 H 2.575226 1.694555 3.251075 0
M  V30 64 H 4.196515 0.271252 4.288042 0
M  V30 END ATOM
M  V30 BEGIN BOND
M  V30 1 1 1 2
M  V30 2 2 2 3
M  V30 3 1 3 4
M  V30 4 2 4 5
M  V30 5 1 5 6
M  V30 6 1 6 7
M  V30 7 2 7 8
M  V30 8 1 8 9
M  V30 9 2 9 10
M  V30 10 1 10 11
M  V30 11 1 11 12
M  V30 12 1 12 13
M  V30 13 1 13 14
M  V30 14 2 14 15
M  V30 15 1 15 16
M  V30 16 1 16 17
M  V30 17 2 17 18
M  V30 18 1 18 19
M  V30 19 2 19 20
M  V30 20 1 20 21
M  V30 21 2 21 22
M  V30 22 1 22 23
M  V30 23 2 23 24
M  V30 24 1 24 25
M  V30 25 1 25 26
M  V30 26 1 26 27
M  V30 27 1 27 28
M  V30 28 1 28 29
M  V30 29 1 29 30
M  V30 30 1 30 31
M  V30 31 1 31 32
M  V30 32 2 25 33
M  V30 33 1 20 34
M  V30 34 2 34 35
M  V30 35 2 13 36
M  V30 36 1 36 37
M  V30 37 2 6 38
M  V30 38 1 38 2
M  V30 39 1 37 7
M  V30 40 2 37 11
M  V30 41 1 35 14
M  V30 42 1 35 17
M  V30 43 1 33 21
M  V30 44 1 32 27
M  V30 45 1 3 39
M  V30 46 1 4 40
M  V30 47 1 5 41
M  V30 48 1 9 42
M  V30 49 1 10 43
M  V30 50 1 12 44
M  V30 51 1 16 45
M  V30 52 1 18 46
M  V30 53 1 19 47
M  V30 54 1 22 48
M  V30 55 1 24 49
M  V30 56 1 26 50
M  V30 57 1 26 51
M  V30 58 1 28 52
M  V30 59 1 28 53
M  V30 60 1 29 54
M  V30 61 1 29 55
M  V30 62 1 30 56
M  V30 63 1 30 57
M  V30 64 1 31 58
M  V30 65 1 31 59
M  V30 66 1 32 60
M  V30 67 1 32 61
M  V30 68 1 33 62
M  V30 69 1 36 63
M  V30 70 1 38 64
M  V30 END BOND
M  V30 END CTAB
M  END
>  <Dataset>  (499) 
ChEMBL_Kinases

>  <Ligand_Instance>  (499) 
nan

>  <PDB_ID>  (499) 
nan

>  <Standardized_SMILES>  (499) 
Fc1cccc(-c2nccc3[nH]c(-c4n[nH]c5ccc(-c6cncc(CN7CCCCC7)c6)nc45)cc23)c1

>  <Name>  (499) 
nan

>  <Pocket>  (499) 
nan

>  <ATP_Site>  (499) 
nan

>  <Peripheral>  (499) 
nan

>  <Num_H_Atoms_ProtBoundConf>  (499) 
nan

>  <Num_Resolved_Atoms>  (499) 
nan

>  <Num_Not_Resolved_Atoms>  (499) 
nan

$$$$
CHEMBL4797241
     RDKit          3D

  0  0  0  0  0  0  0  0  0  0999 V3000
M  V30 BEGIN CTAB
M  V30 COUNTS 68 72 0 0 0
M  V30 BEGIN ATOM
M  V30 1 C 4.801664 1.120662 3.712811 0
M  V30 2 C 5.692416 0.024002 3.116725 0
M  V30 3 C 4.814644 -0.893643 2.324085 0
M  V30 4 N 6.763870 0.618440 2.345636 0
M  V30 5 C 6.465805 1.457981 1.232356 0
M  V30 6 C 7.478426 2.033247 0.490497 0
M  V30 7 N 7.164611 2.810202 -0.538112 0
M  V30 8 C 5.861725 3.017810 -0.832406 0
M  V30 9 C 4.804672 2.476300 -0.135345 0
M  V30 10 C 3.423738 2.744988 -0.507771 0
M  V30 11 C 3.090805 3.549210 -1.573788 0
M  V30 12 C 1.786500 3.812057 -1.943063 0
M  V30 13 C 0.780500 3.238761 -1.205977 0
M  V30 14 C -0.552796 3.446859 -1.507492 0
M  V30 15 N -1.518654 2.853576 -0.743569 0
M  V30 16 C -1.193339 2.056443 0.314051 0
M  V30 17 N -2.447832 1.612813 0.872502 0
M  V30 18 C -2.762608 0.394590 0.217295 0
M  V30 19 O -1.857845 0.079159 -0.625161 0
M  V30 20 C -3.994927 -0.374058 0.507665 0
M  V30 21 C -5.061493 0.029553 1.310661 0
M  V30 22 C -6.117320 -0.842146 1.439483 0
M  V30 23 C -6.146686 -2.073432 0.812869 0
M  V30 24 C -5.066993 -2.464874 0.010277 0
M  V30 25 C -5.266514 -3.802352 -0.591246 0
M  V30 26 C -5.074351 -4.909922 0.441248 0
M  V30 27 C -4.750293 -6.214535 -0.279102 0
M  V30 28 N -3.421438 -6.133423 -0.865632 0
M  V30 29 C -2.479968 -6.605846 0.132689 0
M  V30 30 C -3.098804 -4.764106 -1.235933 0
M  V30 31 C -4.328906 -4.081237 -1.723997 0
M  V30 32 C -4.006304 -1.598561 -0.125419 0
M  V30 33 C 0.110183 1.806422 0.667584 0
M  V30 34 C 1.050890 2.417264 -0.119890 0
M  V30 35 C 2.383648 2.185988 0.210122 0
M  V30 36 N 5.164163 1.695457 0.897864 0
M  V30 37 H 3.757915 1.036133 3.327897 0
M  V30 38 H 5.182053 2.119094 3.440571 0
M  V30 39 H 4.756789 1.033275 4.821297 0
M  V30 40 H 6.158964 -0.567610 3.942149 0
M  V30 41 H 4.286135 -1.556415 3.027813 0
M  V30 42 H 5.413186 -1.537941 1.621850 0
M  V30 43 H 4.076943 -0.293602 1.742998 0
M  V30 44 H 7.764911 0.448935 2.581519 0
M  V30 45 H 8.531317 1.864813 0.730563 0
M  V30 46 H 5.721049 3.663751 -1.686249 0
M  V30 47 H 3.830053 4.027678 -2.190810 0
M  V30 48 H 1.529689 4.443630 -2.781564 0
M  V30 49 H -0.754779 4.091401 -2.359430 0
M  V30 50 H -3.085028 1.993661 1.606256 0
M  V30 51 H -4.909964 1.001321 1.730001 0
M  V30 52 H -6.896035 -0.430543 2.085761 0
M  V30 53 H -7.049083 -2.653294 1.009876 0
M  V30 54 H -6.315734 -3.904073 -0.965194 0
M  V30 55 H -5.959896 -5.048809 1.054506 0
M  V30 56 H -4.211475 -4.651601 1.059953 0
M  V30 57 H -4.719755 -7.005634 0.491973 0
M  V30 58 H -5.511945 -6.501337 -1.016953 0
M  V30 59 H -1.683015 -7.160139 -0.393878 0
M  V30 60 H -2.950416 -7.319407 0.849439 0
M  V30 61 H -2.070777 -5.779977 0.762723 0
M  V30 62 H -2.360227 -4.847740 -2.070703 0
M  V30 63 H -2.591450 -4.231947 -0.433954 0
M  V30 64 H -4.853675 -4.718897 -2.466220 0
M  V30 65 H -4.038587 -3.171952 -2.287321 0
M  V30 66 H -3.215552 -1.968997 -0.760756 0
M  V30 67 H 0.229440 1.171218 1.504808 0
M  V30 68 H 2.630537 1.550490 1.053329 0
M  V30 END ATOM
M  V30 BEGIN BOND
M  V30 1 1 1 2
M  V30 2 1 2 3
M  V30 3 1 2 4
M  V30 4 1 4 5
M  V30 5 2 5 6
M  V30 6 1 6 7
M  V30 7 2 7 8
M  V30 8 1 8 9
M  V30 9 1 9 10
M  V30 10 2 10 11
M  V30 11 1 11 12
M  V30 12 2 12 13
M  V30 13 1 13 14
M  V30 14 2 14 15
M  V30 15 1 15 16
M  V30 16 1 16 17
M  V30 17 1 17 18
M  V30 18 2 18 19
M  V30 19 1 18 20
M  V30 20 2 20 21
M  V30 21 1 21 22
M  V30 22 2 22 23
M  V30 23 1 23 24
M  V30 24 1 24 25
M  V30 25 1 25 26
M  V30 26 1 26 27
M  V30 27 1 27 28
M  V30 28 1 28 29
M  V30 29 1 28 30
M  V30 30 1 30 31
M  V30 31 2 24 32
M  V30 32 2 16 33
M  V30 33 1 33 34
M  V30 34 2 34 35
M  V30 35 2 9 36
M  V30 36 1 36 5
M  V30 37 1 35 10
M  V30 38 1 34 13
M  V30 39 1 32 20
M  V30 40 1 31 25
M  V30 41 1 1 37
M  V30 42 1 1 38
M  V30 43 1 1 39
M  V30 44 1 2 40
M  V30 45 1 3 41
M  V30 46 1 3 42
M  V30 47 1 3 43
M  V30 48 1 4 44
M  V30 49 1 6 45
M  V30 50 1 8 46
M  V30 51 1 11 47
M  V30 52 1 12 48
M  V30 53 1 14 49
M  V30 54 1 17 50
M  V30 55 1 21 51
M  V30 56 1 22 52
M  V30 57 1 23 53
M  V30 58 1 25 54
M  V30 59 1 26 55
M  V30 60 1 26 56
M  V30 61 1 27 57
M  V30 62 1 27 58
M  V30 63 1 29 59
M  V30 64 1 29 60
M  V30 65 1 29 61
M  V30 66 1 30 62
M  V30 67 1 30 63
M  V30 68 1 31 64
M  V30 69 1 31 65
M  V30 70 1 32 66
M  V30 71 1 33 67
M  V30 72 1 35 68
M  V30 END BOND
M  V30 END CTAB
M  END
>  <Dataset>  (500) 
ChEMBL_Kinases

>  <Ligand_Instance>  (500) 
nan

>  <PDB_ID>  (500) 
nan

>  <Standardized_SMILES>  (500) 
CC(C)Nc1cncc(-c2ccc3cnc(NC(=O)c4cccc(C5CCN(C)CC5)c4)cc3c2)n1

>  <Name>  (500) 
nan

>  <Pocket>  (500) 
nan

>  <ATP_Site>  (500) 
nan

>  <Peripheral>  (500) 
nan

>  <Num_H_Atoms_ProtBoundConf>  (500) 
nan

>  <Num_Resolved_Atoms>  (500) 
nan

>  <Num_Not_Resolved_Atoms>  (500) 
nan

$$$$
CHEMBL4797187
     RDKit          3D

  0  0  0  0  0  0  0  0  0  0999 V3000
M  V30 BEGIN CTAB
M  V30 COUNTS 49 52 0 0 0
M  V30 BEGIN ATOM
M  V30 1 C 2.110574 -4.413587 7.088875 0
M  V30 2 N 2.583322 -3.288840 6.268991 0
M  V30 3 N 3.369122 -2.281420 6.625786 0
M  V30 4 C 3.547769 -1.469601 5.542348 0
M  V30 5 C 2.826590 -2.023743 4.474786 0
M  V30 6 C 2.830560 -1.359247 3.173630 0
M  V30 7 C 4.078264 -0.944334 2.683179 0
M  V30 8 C 4.261412 -0.297663 1.471864 0
M  V30 9 C 3.150855 -0.047304 0.702872 0
M  V30 10 C 3.203209 0.595828 -0.534381 0
M  V30 11 N 2.102424 0.836520 -1.281182 0
M  V30 12 C 0.873131 0.444988 -0.831315 0
M  V30 13 N -0.348084 0.644430 -1.531613 0
M  V30 14 C -1.262771 1.730769 -1.485306 0
M  V30 15 O -0.949863 2.665665 -0.704254 0
M  V30 16 C -2.464103 1.702811 -2.311441 0
M  V30 17 C -2.780654 0.672450 -3.172699 0
M  V30 18 C -3.935009 0.716758 -3.920656 0
M  V30 19 C -4.825489 1.763008 -3.861178 0
M  V30 20 O -6.017523 1.998275 -4.514688 0
M  V30 21 C -6.563819 1.098410 -5.449383 0
M  V30 22 F -6.766585 1.681138 -6.690372 0
M  V30 23 F -7.797609 0.630614 -4.976470 0
M  V30 24 C -4.522777 2.819832 -2.992875 0
M  V30 25 C -3.344534 2.761868 -2.237054 0
M  V30 26 C 0.774701 -0.198779 0.395537 0
M  V30 27 C 1.925332 -0.439764 1.155403 0
M  V30 28 C 1.751334 -1.081817 2.360475 0
M  V30 29 C 2.226776 -3.169381 4.955031 0
M  V30 30 C 1.382235 -4.037681 4.130658 0
M  V30 31 O 2.106630 -4.836664 3.247381 0
M  V30 32 H 2.134611 -5.365977 6.532998 0
M  V30 33 H 2.660441 -4.456880 8.041376 0
M  V30 34 H 1.035691 -4.199889 7.295813 0
M  V30 35 H 4.167675 -0.591003 5.656658 0
M  V30 36 H 4.982847 -1.134226 3.281996 0
M  V30 37 H 5.221748 0.004158 1.128093 0
M  V30 38 H 4.182093 0.912118 -0.901303 0
M  V30 39 H -0.462154 -0.204367 -2.125724 0
M  V30 40 H -2.136208 -0.164792 -3.265898 0
M  V30 41 H -4.236569 -0.050631 -4.606718 0
M  V30 42 H -5.961211 0.197504 -5.620476 0
M  V30 43 H -5.118396 3.713379 -2.830928 0
M  V30 44 H -3.095027 3.580959 -1.553284 0
M  V30 45 H -0.193570 -0.520140 0.774247 0
M  V30 46 H 0.808909 -1.391974 2.728636 0
M  V30 47 H 0.925303 -4.783492 4.850588 0
M  V30 48 H 0.495960 -3.555623 3.679461 0
M  V30 49 H 1.655339 -4.970113 2.398116 0
M  V30 END ATOM
M  V30 BEGIN BOND
M  V30 1 1 1 2
M  V30 2 1 2 3
M  V30 3 2 3 4
M  V30 4 1 4 5
M  V30 5 1 5 6
M  V30 6 2 6 7
M  V30 7 1 7 8
M  V30 8 2 8 9
M  V30 9 1 9 10
M  V30 10 2 10 11
M  V30 11 1 11 12
M  V30 12 1 12 13
M  V30 13 1 13 14
M  V30 14 2 14 15
M  V30 15 1 14 16
M  V30 16 2 16 17
M  V30 17 1 17 18
M  V30 18 2 18 19
M  V30 19 1 19 20
M  V30 20 1 20 21
M  V30 21 1 21 22
M  V30 22 1 21 23
M  V30 23 1 19 24
M  V30 24 2 24 25
M  V30 25 2 12 26
M  V30 26 1 26 27
M  V30 27 2 27 28
M  V30 28 2 5 29
M  V30 29 1 29 30
M  V30 30 1 30 31
M  V30 31 1 29 2
M  V30 32 1 28 6
M  V30 33 1 27 9
M  V30 34 1 25 16
M  V30 35 1 1 32
M  V30 36 1 1 33
M  V30 37 1 1 34
M  V30 38 1 4 35
M  V30 39 1 7 36
M  V30 40 1 8 37
M  V30 41 1 10 38
M  V30 42 1 13 39
M  V30 43 1 17 40
M  V30 44 1 18 41
M  V30 45 1 21 42
M  V30 46 1 24 43
M  V30 47 1 25 44
M  V30 48 1 26 45
M  V30 49 1 28 46
M  V30 50 1 30 47
M  V30 51 1 30 48
M  V30 52 1 31 49
M  V30 END BOND
M  V30 END CTAB
M  END
>  <Dataset>  (501) 
ChEMBL_Kinases

>  <Ligand_Instance>  (501) 
nan

>  <PDB_ID>  (501) 
nan

>  <Standardized_SMILES>  (501) 
Cn1ncc(-c2ccc3cnc(NC(=O)c4ccc(OC(F)F)cc4)cc3c2)c1CO

>  <Name>  (501) 
nan

>  <Pocket>  (501) 
nan

>  <ATP_Site>  (501) 
nan

>  <Peripheral>  (501) 
nan

>  <Num_H_Atoms_ProtBoundConf>  (501) 
nan

>  <Num_Resolved_Atoms>  (501) 
nan

>  <Num_Not_Resolved_Atoms>  (501) 
nan

$$$$
CHEMBL4797092
     RDKit          3D

  0  0  0  0  0  0  0  0  0  0999 V3000
M  V30 BEGIN CTAB
M  V30 COUNTS 66 71 0 0 0
M  V30 BEGIN ATOM
M  V30 1 C 4.404506 -2.985296 5.122095 0
M  V30 2 C 5.498916 -2.836972 4.061577 0
M  V30 3 C 6.160263 -4.181822 3.921032 0
M  V30 4 C 4.835776 -2.357899 2.830101 0
M  V30 5 O 3.671148 -2.331752 3.355198 0
M  V30 6 N 5.286402 -2.039275 1.543055 0
M  V30 7 C 4.150788 -1.622512 0.763907 0
M  V30 8 C 3.543113 -2.693115 0.110299 0
M  V30 9 N 2.456861 -2.436380 -0.660467 0
M  V30 10 C 1.990898 -1.181178 -0.781367 0
M  V30 11 C 2.580700 -0.111147 -0.141292 0
M  V30 12 C 2.136343 1.277986 -0.219266 0
M  V30 13 C 3.022611 2.301438 -0.126121 0
M  V30 14 N 2.565108 3.573431 -0.201843 0
M  V30 15 C 1.249771 3.832075 -0.367404 0
M  V30 16 N 0.512174 4.951854 -0.474241 0
M  V30 17 N -0.761601 4.640455 -0.625372 0
M  V30 18 C -0.957561 3.310477 -0.629683 0
M  V30 19 C -2.243420 2.665816 -0.775902 0
M  V30 20 C -2.714846 1.396039 -0.815027 0
M  V30 21 C -4.081558 1.338202 -0.979372 0
M  V30 22 C -4.961911 0.293552 -1.070520 0
M  V30 23 N -4.509684 -1.052899 -0.999638 0
M  V30 24 C -3.572583 -1.591742 -1.968723 0
M  V30 25 C -2.576693 -2.485820 -1.277885 0
M  V30 26 N -3.308233 -3.476688 -0.501334 0
M  V30 27 C -2.340342 -4.415770 0.026998 0
M  V30 28 C -3.944245 -2.784676 0.600158 0
M  V30 29 C -5.019050 -1.867741 0.075074 0
M  V30 30 N -6.283634 0.511657 -1.232620 0
M  V30 31 C -6.706277 1.801140 -1.301741 0
M  V30 32 C -5.828075 2.866643 -1.211166 0
M  V30 33 C -4.470494 2.656896 -1.044807 0
M  V30 34 N -3.370298 3.398858 -0.922347 0
M  V30 35 C 0.309184 2.810122 -0.467348 0
M  V30 36 C 0.795109 1.547800 -0.388251 0
M  V30 37 C 3.702333 -0.343066 0.660603 0
M  V30 38 H 3.593913 -3.660832 4.778774 0
M  V30 39 H 4.820302 -3.297306 6.099407 0
M  V30 40 H 3.912092 -1.982516 5.277024 0
M  V30 41 H 6.240496 -2.129240 4.449280 0
M  V30 42 H 6.198614 -4.493111 2.856837 0
M  V30 43 H 5.590981 -4.985903 4.452318 0
M  V30 44 H 7.205586 -4.177346 4.318425 0
M  V30 45 H 6.320539 -2.193277 1.509392 0
M  V30 46 H 3.865776 -3.723790 0.164626 0
M  V30 47 H 1.137814 -0.873944 -1.367422 0
M  V30 48 H 4.075774 2.111669 0.006141 0
M  V30 49 H 0.858452 5.934909 -0.446073 0
M  V30 50 H -2.110598 0.519237 -0.729381 0
M  V30 51 H -4.208678 -2.175889 -2.689936 0
M  V30 52 H -3.020592 -0.805105 -2.508293 0
M  V30 53 H -1.977168 -1.868789 -0.593094 0
M  V30 54 H -1.970954 -2.991586 -2.059903 0
M  V30 55 H -1.944862 -4.059414 1.001317 0
M  V30 56 H -1.486453 -4.500929 -0.681524 0
M  V30 57 H -2.756876 -5.450708 0.092408 0
M  V30 58 H -3.216685 -2.221237 1.217876 0
M  V30 59 H -4.430168 -3.557406 1.243683 0
M  V30 60 H -5.437898 -1.272602 0.897165 0
M  V30 61 H -5.843853 -2.508698 -0.349692 0
M  V30 62 H -7.770765 1.952214 -1.431958 0
M  V30 63 H -6.166621 3.891430 -1.266355 0
M  V30 64 H -3.512240 4.440267 -0.953838 0
M  V30 65 H 0.131204 0.724643 -0.457068 0
M  V30 66 H 4.238150 0.402270 1.200742 0
M  V30 END ATOM
M  V30 BEGIN BOND
M  V30 1 1 1 2
M  V30 2 1 2 3
M  V30 3 1 2 4
M  V30 4 2 4 5
M  V30 5 1 4 6
M  V30 6 1 6 7
M  V30 7 2 7 8
M  V30 8 1 8 9
M  V30 9 2 9 10
M  V30 10 1 10 11
M  V30 11 1 11 12
M  V30 12 2 12 13
M  V30 13 1 13 14
M  V30 14 2 14 15
M  V30 15 1 15 16
M  V30 16 1 16 17
M  V30 17 2 17 18
M  V30 18 1 18 19
M  V30 19 2 19 20
M  V30 20 1 20 21
M  V30 21 2 21 22
M  V30 22 1 22 23
M  V30 23 1 23 24
M  V30 24 1 24 25
M  V30 25 1 25 26
M  V30 26 1 26 27
M  V30 27 1 26 28
M  V30 28 1 28 29
M  V30 29 1 22 30
M  V30 30 2 30 31
M  V30 31 1 31 32
M  V30 32 2 32 33
M  V30 33 1 33 34
M  V30 34 1 18 35
M  V30 35 2 35 36
M  V30 36 2 11 37
M  V30 37 1 37 7
M  V30 38 1 36 12
M  V30 39 1 35 15
M  V30 40 1 34 19
M  V30 41 1 33 21
M  V30 42 1 29 23
M  V30 43 1 1 38
M  V30 44 1 1 39
M  V30 45 1 1 40
M  V30 46 1 2 41
M  V30 47 1 3 42
M  V30 48 1 3 43
M  V30 49 1 3 44
M  V30 50 1 6 45
M  V30 51 1 8 46
M  V30 52 1 10 47
M  V30 53 1 13 48
M  V30 54 1 16 49
M  V30 55 1 20 50
M  V30 56 1 24 51
M  V30 57 1 24 52
M  V30 58 1 25 53
M  V30 59 1 25 54
M  V30 60 1 27 55
M  V30 61 1 27 56
M  V30 62 1 27 57
M  V30 63 1 28 58
M  V30 64 1 28 59
M  V30 65 1 29 60
M  V30 66 1 29 61
M  V30 67 1 31 62
M  V30 68 1 32 63
M  V30 69 1 34 64
M  V30 70 1 36 65
M  V30 71 1 37 66
M  V30 END BOND
M  V30 END CTAB
M  END
>  <Dataset>  (502) 
ChEMBL_Kinases

>  <Ligand_Instance>  (502) 
nan

>  <PDB_ID>  (502) 
nan

>  <Standardized_SMILES>  (502) 
CC(C)C(=O)Nc1cncc(-c2cnc3[nH]nc(-c4cc5c(N6CCN(C)CC6)nccc5[nH]4)c3c2)c1

>  <Name>  (502) 
nan

>  <Pocket>  (502) 
nan

>  <ATP_Site>  (502) 
nan

>  <Peripheral>  (502) 
nan

>  <Num_H_Atoms_ProtBoundConf>  (502) 
nan

>  <Num_Resolved_Atoms>  (502) 
nan

>  <Num_Not_Resolved_Atoms>  (502) 
nan

$$$$
CHEMBL4797078
     RDKit          3D

  0  0  0  0  0  0  0  0  0  0999 V3000
M  V30 BEGIN CTAB
M  V30 COUNTS 55 60 0 0 0
M  V30 BEGIN ATOM
M  V30 1 C 6.980928 1.777209 5.205295 0
M  V30 2 C 6.042209 0.749406 4.586734 0
M  V30 3 C 5.523765 -0.098407 5.709826 0
M  V30 4 N 4.971530 1.425519 3.871440 0
M  V30 5 C 3.957010 0.719562 3.169666 0
M  V30 6 C 3.903102 -0.655910 3.100301 0
M  V30 7 N 2.958157 -1.356546 2.447730 0
M  V30 8 C 1.979389 -0.658484 1.805985 0
M  V30 9 C 1.968894 0.720843 1.832026 0
M  V30 10 C 0.885159 1.389222 1.118705 0
M  V30 11 C 0.721887 2.755523 1.041908 0
M  V30 12 C -0.324889 3.341591 0.351597 0
M  V30 13 C -1.235731 2.523085 -0.281223 0
M  V30 14 N -2.327829 2.784656 -1.009931 0
M  V30 15 N -2.857606 1.615773 -1.394821 0
M  V30 16 C -2.124484 0.608919 -0.925779 0
M  V30 17 C -2.330918 -0.822875 -1.099485 0
M  V30 18 N -3.361794 -1.365110 -1.806584 0
M  V30 19 C -3.262046 -2.707312 -1.772064 0
M  V30 20 C -4.004292 -3.747809 -2.297002 0
M  V30 21 C -5.195956 -3.473429 -3.092507 0
M  V30 22 C -5.314902 -4.220035 -4.267578 0
M  V30 23 C -6.391841 -4.077729 -5.136130 0
M  V30 24 C -7.343995 -3.143433 -4.759575 0
M  V30 25 N -7.242622 -2.412751 -3.624510 0
M  V30 26 C -6.193071 -2.560424 -2.790759 0
M  V30 27 C -3.632085 -5.064556 -2.078475 0
M  V30 28 N -2.525111 -5.372017 -1.340802 0
M  V30 29 C -1.782152 -4.357061 -0.815999 0
M  V30 30 C -2.142976 -3.030771 -1.026637 0
M  V30 31 N -1.596515 -1.867287 -0.630518 0
M  V30 32 C -1.074001 1.155365 -0.205497 0
M  V30 33 N -0.025218 0.628899 0.487596 0
M  V30 34 C 2.956003 1.402320 2.512551 0
M  V30 35 H 6.996294 1.725807 6.315535 0
M  V30 36 H 8.030565 1.667525 4.822122 0
M  V30 37 H 6.630195 2.772286 4.931277 0
M  V30 38 H 6.606122 0.113993 3.889427 0
M  V30 39 H 5.821633 0.292159 6.713634 0
M  V30 40 H 5.917654 -1.108394 5.611859 0
M  V30 41 H 4.409739 -0.120147 5.678623 0
M  V30 42 H 4.947577 2.467986 3.873748 0
M  V30 43 H 4.648966 -1.255540 3.585727 0
M  V30 44 H 1.222829 -1.258839 1.282560 0
M  V30 45 H 1.442525 3.387289 1.542220 0
M  V30 46 H -0.418504 4.424938 0.314829 0
M  V30 47 H -2.727411 3.710741 -1.256437 0
M  V30 48 H -4.570350 -4.941904 -4.549705 0
M  V30 49 H -6.470365 -4.663395 -6.043236 0
M  V30 50 H -8.203937 -3.010061 -5.425173 0
M  V30 51 H -6.054559 -2.008848 -1.872325 0
M  V30 52 H -4.167196 -5.916053 -2.459396 0
M  V30 53 H -0.892043 -4.564490 -0.221879 0
M  V30 54 H -0.740307 -1.724996 -0.050719 0
M  V30 55 H 2.957652 2.463061 2.539075 0
M  V30 END ATOM
M  V30 BEGIN BOND
M  V30 1 1 1 2
M  V30 2 1 2 3
M  V30 3 1 2 4
M  V30 4 1 4 5
M  V30 5 2 5 6
M  V30 6 1 6 7
M  V30 7 2 7 8
M  V30 8 1 8 9
M  V30 9 1 9 10
M  V30 10 2 10 11
M  V30 11 1 11 12
M  V30 12 2 12 13
M  V30 13 1 13 14
M  V30 14 1 14 15
M  V30 15 2 15 16
M  V30 16 1 16 17
M  V30 17 2 17 18
M  V30 18 1 18 19
M  V30 19 2 19 20
M  V30 20 1 20 21
M  V30 21 2 21 22
M  V30 22 1 22 23
M  V30 23 2 23 24
M  V30 24 1 24 25
M  V30 25 2 25 26
M  V30 26 1 20 27
M  V30 27 2 27 28
M  V30 28 1 28 29
M  V30 29 2 29 30
M  V30 30 1 30 31
M  V30 31 1 16 32
M  V30 32 2 32 33
M  V30 33 2 9 34
M  V30 34 1 34 5
M  V30 35 1 33 10
M  V30 36 1 32 13
M  V30 37 1 31 17
M  V30 38 1 30 19
M  V30 39 1 26 21
M  V30 40 1 1 35
M  V30 41 1 1 36
M  V30 42 1 1 37
M  V30 43 1 2 38
M  V30 44 1 3 39
M  V30 45 1 3 40
M  V30 46 1 3 41
M  V30 47 1 4 42
M  V30 48 1 6 43
M  V30 49 1 8 44
M  V30 50 1 11 45
M  V30 51 1 12 46
M  V30 52 1 14 47
M  V30 53 1 22 48
M  V30 54 1 23 49
M  V30 55 1 24 50
M  V30 56 1 26 51
M  V30 57 1 27 52
M  V30 58 1 29 53
M  V30 59 1 31 54
M  V30 60 1 34 55
M  V30 END BOND
M  V30 END CTAB
M  END
>  <Dataset>  (503) 
ChEMBL_Kinases

>  <Ligand_Instance>  (503) 
nan

>  <PDB_ID>  (503) 
nan

>  <Standardized_SMILES>  (503) 
CC(C)Nc1cncc(-c2ccc3[nH]nc(-c4nc5c(-c6cccnc6)cncc5[nH]4)c3n2)c1

>  <Name>  (503) 
nan

>  <Pocket>  (503) 
nan

>  <ATP_Site>  (503) 
nan

>  <Peripheral>  (503) 
nan

>  <Num_H_Atoms_ProtBoundConf>  (503) 
nan

>  <Num_Resolved_Atoms>  (503) 
nan

>  <Num_Not_Resolved_Atoms>  (503) 
nan

$$$$
CHEMBL4797436
     RDKit          3D

  0  0  0  0  0  0  0  0  0  0999 V3000
M  V30 BEGIN CTAB
M  V30 COUNTS 47 51 0 0 0
M  V30 BEGIN ATOM
M  V30 1 C -0.427241 -3.509282 4.047074 0
M  V30 2 C 0.590803 -4.055710 2.999939 0
M  V30 3 N 1.659411 -3.131207 2.791822 0
M  V30 4 C 2.511021 -3.580933 1.681476 0
M  V30 5 C 3.472942 -2.401876 1.542631 0
M  V30 6 C 4.811751 -2.208027 1.857486 0
M  V30 7 N 5.419673 -1.021824 1.809631 0
M  V30 8 C 4.696641 0.091100 1.424322 0
M  V30 9 C 3.377638 0.006216 1.093041 0
M  V30 10 C 2.510506 1.151066 0.827860 0
M  V30 11 C 3.053924 2.401473 1.165345 0
M  V30 12 C 2.153691 3.498044 1.088021 0
M  V30 13 C 0.761440 3.407780 0.690049 0
M  V30 14 N -0.354017 4.244550 0.531489 0
M  V30 15 N -0.676230 3.181475 0.278246 0
M  V30 16 C -1.032014 2.096059 0.012718 0
M  V30 17 C -1.923883 1.080079 -0.398298 0
M  V30 18 C -3.200545 1.528222 -0.802246 0
M  V30 19 C -3.930383 0.443223 -1.218091 0
M  V30 20 C -5.231600 0.319416 -1.745205 0
M  V30 21 C -5.751831 -0.898304 -2.132376 0
M  V30 22 C -4.875764 -1.940094 -1.949357 0
M  V30 23 N -3.601279 -1.897485 -1.449639 0
M  V30 24 C -3.121322 -0.666430 -1.073520 0
M  V30 25 N -1.964386 -0.224285 -0.585681 0
M  V30 26 C 0.375526 2.051339 0.377805 0
M  V30 27 N 1.242011 0.984487 0.451629 0
M  V30 28 C 2.758363 -1.248088 1.151325 0
M  V30 29 H 0.135977 -3.109940 4.905034 0
M  V30 30 H -1.148418 -4.292040 4.219832 0
M  V30 31 H -0.947760 -2.685097 3.454283 0
M  V30 32 H 0.047134 -4.167472 2.016993 0
M  V30 33 H 0.982002 -5.016335 3.377901 0
M  V30 34 H 1.272528 -2.177750 2.666151 0
M  V30 35 H 3.060590 -4.472069 2.029139 0
M  V30 36 H 2.003494 -3.839324 0.771899 0
M  V30 37 H 5.217156 -3.180828 2.147949 0
M  V30 38 H 5.186624 1.046804 1.385622 0
M  V30 39 H 4.030582 2.670444 1.456145 0
M  V30 40 H 2.552399 4.489062 1.357679 0
M  V30 41 H -0.209559 5.236638 0.733771 0
M  V30 42 H -3.647183 2.517031 -0.816801 0
M  V30 43 H -5.826034 1.245830 -1.836250 0
M  V30 44 H -6.755577 -0.916597 -2.524848 0
M  V30 45 H -5.253891 -2.935156 -2.240513 0
M  V30 46 H -1.103883 -0.767726 -0.333257 0
M  V30 47 H 1.689061 -1.290730 0.883375 0
M  V30 END ATOM
M  V30 BEGIN BOND
M  V30 1 1 1 2
M  V30 2 1 2 3
M  V30 3 1 3 4
M  V30 4 1 4 5
M  V30 5 2 5 6
M  V30 6 1 6 7
M  V30 7 2 7 8
M  V30 8 1 8 9
M  V30 9 1 9 10
M  V30 10 2 10 11
M  V30 11 1 11 12
M  V30 12 2 12 13
M  V30 13 1 13 14
M  V30 14 1 14 15
M  V30 15 2 15 16
M  V30 16 1 16 17
M  V30 17 2 17 18
M  V30 18 1 18 19
M  V30 19 2 19 20
M  V30 20 1 20 21
M  V30 21 2 21 22
M  V30 22 1 22 23
M  V30 23 2 23 24
M  V30 24 1 24 25
M  V30 25 1 16 26
M  V30 26 2 26 27
M  V30 27 2 9 28
M  V30 28 1 28 5
M  V30 29 1 27 10
M  V30 30 1 26 13
M  V30 31 1 25 17
M  V30 32 1 24 19
M  V30 33 1 1 29
M  V30 34 1 1 30
M  V30 35 1 1 31
M  V30 36 1 2 32
M  V30 37 1 2 33
M  V30 38 1 3 34
M  V30 39 1 4 35
M  V30 40 1 4 36
M  V30 41 1 6 37
M  V30 42 1 8 38
M  V30 43 1 11 39
M  V30 44 1 12 40
M  V30 45 1 14 41
M  V30 46 1 18 42
M  V30 47 1 20 43
M  V30 48 1 21 44
M  V30 49 1 22 45
M  V30 50 1 25 46
M  V30 51 1 28 47
M  V30 END BOND
M  V30 END CTAB
M  END
>  <Dataset>  (504) 
ChEMBL_Kinases

>  <Ligand_Instance>  (504) 
nan

>  <PDB_ID>  (504) 
nan

>  <Standardized_SMILES>  (504) 
CCNCc1cncc(-c2ccc3[nH]nc(-c4cc5cccnc5[nH]4)c3n2)c1

>  <Name>  (504) 
nan

>  <Pocket>  (504) 
nan

>  <ATP_Site>  (504) 
nan

>  <Peripheral>  (504) 
nan

>  <Num_H_Atoms_ProtBoundConf>  (504) 
nan

>  <Num_Resolved_Atoms>  (504) 
nan

>  <Num_Not_Resolved_Atoms>  (504) 
nan

$$$$
CHEMBL3393444
     RDKit          3D

  0  0  0  0  0  0  0  0  0  0999 V3000
M  V30 BEGIN CTAB
M  V30 COUNTS 41 44 0 0 0
M  V30 BEGIN ATOM
M  V30 1 C -2.322858 -3.097858 2.201736 0
M  V30 2 C -0.911552 -3.115287 1.706605 0 CFG=1
M  V30 3 C -0.499994 -1.680222 1.404307 0
M  V30 4 N 0.822618 -1.703805 0.751970 0
M  V30 5 C 1.329541 -1.322627 -0.518726 0
M  V30 6 N 1.706023 -2.436951 -1.214104 0
M  V30 7 C 2.186102 -2.266641 -2.481892 0
M  V30 8 N 2.310085 -1.070527 -3.085102 0
M  V30 9 C 1.948769 0.043829 -2.426567 0
M  V30 10 N 1.902832 1.378071 -2.629889 0
M  V30 11 C 1.420690 2.029418 -1.548747 0
M  V30 12 C 1.124639 1.081744 -0.559448 0
M  V30 13 C 0.625265 1.480466 0.741330 0
M  V30 14 C 1.110304 1.194046 2.022769 0
M  V30 15 C 0.471376 1.677185 3.122178 0
M  V30 16 C -0.659955 2.456014 3.047441 0
M  V30 17 C -1.177488 2.765768 1.785870 0
M  V30 18 C -2.341480 3.568331 1.737583 0
M  V30 19 N -3.279300 4.237761 1.695581 0
M  V30 20 C -0.509292 2.261874 0.674025 0
M  V30 21 C 1.464709 -0.110123 -1.150676 0
M  V30 22 C 1.738220 -2.289490 1.746498 0
M  V30 23 C 1.221306 -3.693512 2.089664 0
M  V30 24 O -0.012536 -3.531709 2.716235 0
M  V30 25 H -2.428444 -2.555267 3.162522 0
M  V30 26 H -2.959434 -2.655975 1.432992 0
M  V30 27 H -2.659092 -4.147200 2.361589 0
M  V30 28 H -0.828701 -3.791107 0.853198 0
M  V30 29 H -1.260693 -1.193136 0.775699 0
M  V30 30 H -0.450378 -1.173511 2.364496 0
M  V30 31 H 2.503571 -3.100840 -3.093617 0
M  V30 32 H 2.219299 1.806049 -3.545556 0
M  V30 33 H 1.291826 3.102523 -1.476855 0
M  V30 34 H 2.002230 0.578410 1.983173 0
M  V30 35 H 0.983975 1.357499 4.031790 0
M  V30 36 H -1.067297 2.773406 3.996446 0
M  V30 37 H -0.997245 2.564283 -0.241634 0
M  V30 38 H 2.768735 -2.352173 1.397042 0
M  V30 39 H 1.711078 -1.718245 2.699100 0
M  V30 40 H 1.903696 -4.117883 2.852844 0
M  V30 41 H 1.151686 -4.328637 1.173210 0
M  V30 END ATOM
M  V30 BEGIN BOND
M  V30 1 1 1 2
M  V30 2 1 2 3
M  V30 3 1 3 4
M  V30 4 1 4 5
M  V30 5 2 5 6
M  V30 6 1 6 7
M  V30 7 2 7 8
M  V30 8 1 8 9
M  V30 9 1 9 10
M  V30 10 1 10 11
M  V30 11 2 11 12
M  V30 12 1 12 13
M  V30 13 2 13 14
M  V30 14 1 14 15
M  V30 15 2 15 16
M  V30 16 1 16 17
M  V30 17 1 17 18
M  V30 18 3 18 19
M  V30 19 2 17 20
M  V30 20 1 12 21
M  V30 21 1 4 22
M  V30 22 1 22 23
M  V30 23 1 23 24
M  V30 24 1 24 2
M  V30 25 1 21 5
M  V30 26 2 21 9
M  V30 27 1 20 13
M  V30 28 1 1 25
M  V30 29 1 1 26
M  V30 30 1 1 27
M  V30 31 1 2 28 CFG=3
M  V30 32 1 3 29
M  V30 33 1 3 30
M  V30 34 1 7 31
M  V30 35 1 10 32
M  V30 36 1 11 33
M  V30 37 1 14 34
M  V30 38 1 15 35
M  V30 39 1 16 36
M  V30 40 1 20 37
M  V30 41 1 22 38
M  V30 42 1 22 39
M  V30 43 1 23 40
M  V30 44 1 23 41
M  V30 END BOND
M  V30 END CTAB
M  END
>  <Dataset>  (505) 
ChEMBL_Kinases

>  <Ligand_Instance>  (505) 
nan

>  <PDB_ID>  (505) 
nan

>  <Standardized_SMILES>  (505) 
C[C@H]1CN(c2ncnc3[nH]cc(-c4cccc(C#N)c4)c23)CCO1

>  <Name>  (505) 
nan

>  <Pocket>  (505) 
nan

>  <ATP_Site>  (505) 
nan

>  <Peripheral>  (505) 
nan

>  <Num_H_Atoms_ProtBoundConf>  (505) 
nan

>  <Num_Resolved_Atoms>  (505) 
nan

>  <Num_Not_Resolved_Atoms>  (505) 
nan

$$$$
CHEMBL3393355
     RDKit          3D

  0  0  0  0  0  0  0  0  0  0999 V3000
M  V30 BEGIN CTAB
M  V30 COUNTS 37 40 0 0 0
M  V30 BEGIN ATOM
M  V30 1 Cl -2.346515 -3.893759 1.044829 0
M  V30 2 C -0.750467 -3.333531 1.476736 0
M  V30 3 C -0.195402 -3.773930 2.650085 0
M  V30 4 C 1.048962 -3.328756 2.965601 0
M  V30 5 C 1.702206 -2.463937 2.111421 0
M  V30 6 C 1.142816 -2.006157 0.906623 0
M  V30 7 C 2.037902 -1.122644 0.178333 0
M  V30 8 C 3.352728 -1.505695 -0.125745 0
M  V30 9 N 3.950808 -0.521130 -0.829781 0
M  V30 10 C 3.102445 0.506475 -1.014082 0
M  V30 11 N 3.117145 1.712601 -1.610594 0
M  V30 12 C 2.006718 2.471031 -1.566616 0
M  V30 13 N 0.841457 2.114182 -0.955029 0
M  V30 14 C 0.804545 0.893851 -0.342842 0
M  V30 15 N -0.461615 0.703994 0.268416 0
M  V30 16 C -0.778733 0.661548 1.700147 0
M  V30 17 C -2.166920 0.198310 1.989534 0
M  V30 18 O -2.693144 -0.572802 0.983436 0
M  V30 19 C -2.831607 0.213381 -0.147271 0
M  V30 20 C -1.500495 0.557513 -0.767965 0
M  V30 21 C 1.939236 0.123296 -0.391605 0
M  V30 22 C -0.099369 -2.470220 0.623377 0
M  V30 23 H -0.719620 -4.453357 3.312059 0
M  V30 24 H 1.487799 -3.674701 3.889540 0
M  V30 25 H 2.702649 -2.171134 2.470159 0
M  V30 26 H 3.832233 -2.435346 0.149016 0
M  V30 27 H 4.936667 -0.530896 -1.193564 0
M  V30 28 H 2.118723 3.434662 -2.081244 0
M  V30 29 H -0.002815 0.180221 2.305295 0
M  V30 30 H -0.758974 1.744279 2.059959 0
M  V30 31 H -2.216016 -0.411522 2.934860 0
M  V30 32 H -2.882841 1.046484 2.209417 0
M  V30 33 H -3.454086 -0.297927 -0.892955 0
M  V30 34 H -3.399008 1.118185 0.154610 0
M  V30 35 H -1.619916 1.586916 -1.183568 0
M  V30 36 H -1.163589 -0.157341 -1.531179 0
M  V30 37 H -0.486260 -2.098568 -0.306441 0
M  V30 END ATOM
M  V30 BEGIN BOND
M  V30 1 1 1 2
M  V30 2 2 2 3
M  V30 3 1 3 4
M  V30 4 2 4 5
M  V30 5 1 5 6
M  V30 6 1 6 7
M  V30 7 2 7 8
M  V30 8 1 8 9
M  V30 9 1 9 10
M  V30 10 2 10 11
M  V30 11 1 11 12
M  V30 12 2 12 13
M  V30 13 1 13 14
M  V30 14 1 14 15
M  V30 15 1 15 16
M  V30 16 1 16 17
M  V30 17 1 17 18
M  V30 18 1 18 19
M  V30 19 1 19 20
M  V30 20 2 14 21
M  V30 21 2 6 22
M  V30 22 1 22 2
M  V30 23 1 21 7
M  V30 24 1 21 10
M  V30 25 1 20 15
M  V30 26 1 3 23
M  V30 27 1 4 24
M  V30 28 1 5 25
M  V30 29 1 8 26
M  V30 30 1 9 27
M  V30 31 1 12 28
M  V30 32 1 16 29
M  V30 33 1 16 30
M  V30 34 1 17 31
M  V30 35 1 17 32
M  V30 36 1 19 33
M  V30 37 1 19 34
M  V30 38 1 20 35
M  V30 39 1 20 36
M  V30 40 1 22 37
M  V30 END BOND
M  V30 END CTAB
M  END
>  <Dataset>  (506) 
ChEMBL_Kinases

>  <Ligand_Instance>  (506) 
nan

>  <PDB_ID>  (506) 
nan

>  <Standardized_SMILES>  (506) 
Clc1cccc(-c2c[nH]c3ncnc(N4CCOCC4)c23)c1

>  <Name>  (506) 
nan

>  <Pocket>  (506) 
nan

>  <ATP_Site>  (506) 
nan

>  <Peripheral>  (506) 
nan

>  <Num_H_Atoms_ProtBoundConf>  (506) 
nan

>  <Num_Resolved_Atoms>  (506) 
nan

>  <Num_Not_Resolved_Atoms>  (506) 
nan

$$$$
CHEMBL3393354
     RDKit          3D

  0  0  0  0  0  0  0  0  0  0999 V3000
M  V30 BEGIN CTAB
M  V30 COUNTS 41 44 0 0 0
M  V30 BEGIN ATOM
M  V30 1 C -0.732819 -4.916728 -1.262080 0
M  V30 2 O -0.314240 -4.807520 0.065515 0
M  V30 3 C 0.288947 -3.700780 0.607352 0
M  V30 4 C 0.647643 -3.739966 1.936803 0
M  V30 5 C 1.245666 -2.644752 2.476525 0
M  V30 6 C 1.503728 -1.513657 1.758120 0
M  V30 7 C 1.169153 -1.412916 0.426228 0
M  V30 8 C 1.329766 -0.331514 -0.531810 0
M  V30 9 C 1.977272 -0.568636 -1.751892 0
M  V30 10 N 2.034366 0.577215 -2.453035 0
M  V30 11 C 1.455258 1.574518 -1.762361 0
M  V30 12 N 1.228920 2.881013 -1.955803 0
M  V30 13 C 0.583613 3.573522 -0.972549 0
M  V30 14 N 0.158858 3.027490 0.180612 0
M  V30 15 C 0.372881 1.697431 0.410534 0
M  V30 16 N -0.166373 1.260280 1.652328 0
M  V30 17 C -1.314640 0.380835 1.728536 0
M  V30 18 C -1.358778 -0.271325 3.078587 0
M  V30 19 O -0.314607 0.046842 3.911623 0
M  V30 20 C -0.036470 1.406335 4.002543 0
M  V30 21 C 0.609798 1.856782 2.694740 0
M  V30 22 C 1.024833 1.008404 -0.584972 0
M  V30 23 C 0.556899 -2.550396 -0.103426 0
M  V30 24 H -0.813760 -6.009663 -1.488840 0
M  V30 25 H -1.709738 -4.418752 -1.393169 0
M  V30 26 H 0.041799 -4.525974 -1.959093 0
M  V30 27 H 0.494692 -4.580419 2.608313 0
M  V30 28 H 1.560391 -2.594742 3.521019 0
M  V30 29 H 1.979049 -0.615965 2.127257 0
M  V30 30 H 2.383822 -1.496412 -2.121737 0
M  V30 31 H 2.447850 0.766457 -3.404780 0
M  V30 32 H 0.399315 4.646411 -1.133679 0
M  V30 33 H -1.404423 -0.328968 0.896588 0
M  V30 34 H -2.203508 1.092194 1.609113 0
M  V30 35 H -1.329455 -1.385143 2.886539 0
M  V30 36 H -2.347166 -0.089674 3.591756 0
M  V30 37 H 0.636485 1.565203 4.862135 0
M  V30 38 H -0.955503 1.999170 4.201008 0
M  V30 39 H 1.684361 1.679155 2.670027 0
M  V30 40 H 0.502041 2.983663 2.676045 0
M  V30 41 H 0.236908 -2.615068 -1.145536 0
M  V30 END ATOM
M  V30 BEGIN BOND
M  V30 1 1 1 2
M  V30 2 1 2 3
M  V30 3 2 3 4
M  V30 4 1 4 5
M  V30 5 2 5 6
M  V30 6 1 6 7
M  V30 7 1 7 8
M  V30 8 2 8 9
M  V30 9 1 9 10
M  V30 10 1 10 11
M  V30 11 2 11 12
M  V30 12 1 12 13
M  V30 13 2 13 14
M  V30 14 1 14 15
M  V30 15 1 15 16
M  V30 16 1 16 17
M  V30 17 1 17 18
M  V30 18 1 18 19
M  V30 19 1 19 20
M  V30 20 1 20 21
M  V30 21 2 15 22
M  V30 22 2 7 23
M  V30 23 1 23 3
M  V30 24 1 22 8
M  V30 25 1 22 11
M  V30 26 1 21 16
M  V30 27 1 1 24
M  V30 28 1 1 25
M  V30 29 1 1 26
M  V30 30 1 4 27
M  V30 31 1 5 28
M  V30 32 1 6 29
M  V30 33 1 9 30
M  V30 34 1 10 31
M  V30 35 1 13 32
M  V30 36 1 17 33
M  V30 37 1 17 34
M  V30 38 1 18 35
M  V30 39 1 18 36
M  V30 40 1 20 37
M  V30 41 1 20 38
M  V30 42 1 21 39
M  V30 43 1 21 40
M  V30 44 1 23 41
M  V30 END BOND
M  V30 END CTAB
M  END
>  <Dataset>  (507) 
ChEMBL_Kinases

>  <Ligand_Instance>  (507) 
nan

>  <PDB_ID>  (507) 
nan

>  <Standardized_SMILES>  (507) 
COc1cccc(-c2c[nH]c3ncnc(N4CCOCC4)c23)c1

>  <Name>  (507) 
nan

>  <Pocket>  (507) 
nan

>  <ATP_Site>  (507) 
nan

>  <Peripheral>  (507) 
nan

>  <Num_H_Atoms_ProtBoundConf>  (507) 
nan

>  <Num_Resolved_Atoms>  (507) 
nan

>  <Num_Not_Resolved_Atoms>  (507) 
nan

$$$$
CHEMBL3393353
     RDKit          3D

  0  0  0  0  0  0  0  0  0  0999 V3000
M  V30 BEGIN CTAB
M  V30 COUNTS 37 40 0 0 0
M  V30 BEGIN ATOM
M  V30 1 C 0.991507 -2.879967 3.729082 0
M  V30 2 C -0.098502 -3.439800 3.119934 0
M  V30 3 C -0.324929 -3.191796 1.782357 0
M  V30 4 C 0.503734 -2.387493 0.986541 0
M  V30 5 C 0.064511 -2.306858 -0.392700 0
M  V30 6 C -0.144588 -3.450155 -1.147268 0
M  V30 7 N -0.511377 -3.062541 -2.401902 0
M  V30 8 C -0.553105 -1.721436 -2.505170 0
M  V30 9 N -0.827812 -0.778147 -3.422007 0
M  V30 10 C -0.761293 0.542635 -3.144695 0
M  V30 11 N -0.403124 0.946122 -1.889070 0
M  V30 12 C -0.115354 0.037523 -0.925436 0
M  V30 13 N 0.190797 0.715776 0.281316 0
M  V30 14 C -0.386380 0.852084 1.633396 0
M  V30 15 C -0.764445 2.305029 1.880819 0
M  V30 16 O 0.264678 3.170697 1.548374 0
M  V30 17 C 1.476622 2.532988 1.350785 0
M  V30 18 C 1.392829 1.530434 0.225614 0
M  V30 19 C -0.195785 -1.271934 -1.255984 0
M  V30 20 C 1.590529 -1.842502 1.637336 0
M  V30 21 C 1.817495 -2.087300 2.965681 0
M  V30 22 H 1.202936 -3.046838 4.763130 0
M  V30 23 H -0.737407 -4.055438 3.718623 0
M  V30 24 H -1.228215 -3.692114 1.398540 0
M  V30 25 H -0.042754 -4.485806 -0.825652 0
M  V30 26 H -0.742294 -3.683485 -3.218083 0
M  V30 27 H -1.001037 1.226980 -3.951366 0
M  V30 28 H 0.350437 0.621219 2.420014 0
M  V30 29 H -1.325437 0.267350 1.686969 0
M  V30 30 H -0.922011 2.396055 2.976158 0
M  V30 31 H -1.718959 2.552944 1.392572 0
M  V30 32 H 2.180316 3.326474 1.003396 0
M  V30 33 H 1.917593 2.109951 2.271676 0
M  V30 34 H 1.249720 2.163266 -0.701540 0
M  V30 35 H 2.318155 0.979154 0.088281 0
M  V30 36 H 2.188922 -1.234850 0.965119 0
M  V30 37 H 2.701671 -1.614648 3.398132 0
M  V30 END ATOM
M  V30 BEGIN BOND
M  V30 1 2 1 2
M  V30 2 1 2 3
M  V30 3 2 3 4
M  V30 4 1 4 5
M  V30 5 2 5 6
M  V30 6 1 6 7
M  V30 7 1 7 8
M  V30 8 2 8 9
M  V30 9 1 9 10
M  V30 10 2 10 11
M  V30 11 1 11 12
M  V30 12 1 12 13
M  V30 13 1 13 14
M  V30 14 1 14 15
M  V30 15 1 15 16
M  V30 16 1 16 17
M  V30 17 1 17 18
M  V30 18 2 12 19
M  V30 19 1 4 20
M  V30 20 2 20 21
M  V30 21 1 21 1
M  V30 22 1 19 5
M  V30 23 1 19 8
M  V30 24 1 18 13
M  V30 25 1 1 22
M  V30 26 1 2 23
M  V30 27 1 3 24
M  V30 28 1 6 25
M  V30 29 1 7 26
M  V30 30 1 10 27
M  V30 31 1 14 28
M  V30 32 1 14 29
M  V30 33 1 15 30
M  V30 34 1 15 31
M  V30 35 1 17 32
M  V30 36 1 17 33
M  V30 37 1 18 34
M  V30 38 1 18 35
M  V30 39 1 20 36
M  V30 40 1 21 37
M  V30 END BOND
M  V30 END CTAB
M  END
>  <Dataset>  (508) 
ChEMBL_Kinases

>  <Ligand_Instance>  (508) 
nan

>  <PDB_ID>  (508) 
nan

>  <Standardized_SMILES>  (508) 
c1ccc(-c2c[nH]c3ncnc(N4CCOCC4)c23)cc1

>  <Name>  (508) 
nan

>  <Pocket>  (508) 
nan

>  <ATP_Site>  (508) 
nan

>  <Peripheral>  (508) 
nan

>  <Num_H_Atoms_ProtBoundConf>  (508) 
nan

>  <Num_Resolved_Atoms>  (508) 
nan

>  <Num_Not_Resolved_Atoms>  (508) 
nan

$$$$
CHEMBL4104505
     RDKit          3D

  0  0  0  0  0  0  0  0  0  0999 V3000
M  V30 BEGIN CTAB
M  V30 COUNTS 54 57 0 0 0
M  V30 BEGIN ATOM
M  V30 1 C 0.353116 -4.019219 2.488006 0
M  V30 2 C 0.473200 -2.701968 3.174957 0
M  V30 3 C -0.880807 -2.112523 3.412280 0
M  V30 4 N 1.342105 -1.789031 2.425867 0
M  V30 5 C 2.608580 -1.419760 2.781658 0
M  V30 6 N 3.064357 -0.562932 1.821020 0
M  V30 7 C 2.066626 -0.431825 0.906142 0
M  V30 8 C 2.062825 0.331312 -0.244275 0
M  V30 9 N 3.131024 1.151144 -0.708022 0
M  V30 10 C 3.278697 2.523864 -0.349698 0
M  V30 11 C 2.329585 3.071909 0.489473 0
M  V30 12 C 2.507238 4.417382 0.817402 0
M  V30 13 C 3.574440 5.119013 0.315202 0
M  V30 14 C 4.508567 4.532358 -0.526558 0
M  V30 15 Cl 5.897456 5.364054 -1.207336 0
M  V30 16 C 4.364255 3.188078 -0.877131 0
M  V30 17 N 0.955980 0.288823 -0.977066 0
M  V30 18 C -0.154810 -0.441880 -0.677526 0
M  V30 19 N -1.320185 -0.461601 -1.490699 0
M  V30 20 C -2.489138 -1.233689 -1.164506 0 CFG=2
M  V30 21 C -3.108387 -0.836886 0.144331 0
M  V30 22 C -4.335169 -1.643989 0.477955 0
M  V30 23 C -4.214727 -3.079206 0.038090 0
M  V30 24 C -2.787465 -3.473522 -0.232559 0
M  V30 25 C -2.139587 -2.680595 -1.305184 0 CFG=1
M  V30 26 N -2.386806 -3.195163 -2.634801 0
M  V30 27 N -0.085425 -1.169824 0.467225 0
M  V30 28 C 0.971043 -1.191687 1.260496 0
M  V30 29 H -0.715480 -4.239662 2.304135 0
M  V30 30 H 0.817707 -4.816017 3.113266 0
M  V30 31 H 0.919502 -3.962098 1.528799 0
M  V30 32 H 0.936128 -2.824224 4.197161 0
M  V30 33 H -1.056766 -1.813909 4.482002 0
M  V30 34 H -1.710452 -2.729971 3.021928 0
M  V30 35 H -0.916729 -1.144864 2.854263 0
M  V30 36 H 3.105338 -1.769552 3.664658 0
M  V30 37 H 3.778656 0.637175 -1.328292 0
M  V30 38 H 1.494119 2.547159 0.890611 0
M  V30 39 H 1.846329 4.976865 1.461523 0
M  V30 40 H 3.769345 6.165194 0.531152 0
M  V30 41 H 5.053660 2.685423 -1.521422 0
M  V30 42 H -1.251514 0.146135 -2.363086 0
M  V30 43 H -3.226581 -1.030272 -2.002516 0
M  V30 44 H -3.433915 0.218658 0.042555 0
M  V30 45 H -2.382428 -0.855066 0.977779 0
M  V30 46 H -4.447002 -1.649752 1.578657 0
M  V30 47 H -5.248974 -1.181659 0.062850 0
M  V30 48 H -4.780015 -3.200249 -0.906773 0
M  V30 49 H -4.641169 -3.796202 0.764580 0
M  V30 50 H -2.704700 -4.570959 -0.362859 0
M  V30 51 H -2.218089 -3.260035 0.714918 0
M  V30 52 H -1.023700 -2.772963 -1.132295 0
M  V30 53 H -3.080339 -2.623633 -3.163110 0
M  V30 54 H -2.578562 -4.201611 -2.626528 0
M  V30 END ATOM
M  V30 BEGIN BOND
M  V30 1 1 1 2
M  V30 2 1 2 3
M  V30 3 1 2 4
M  V30 4 1 4 5
M  V30 5 2 5 6
M  V30 6 1 6 7
M  V30 7 2 7 8
M  V30 8 1 8 9
M  V30 9 1 9 10
M  V30 10 2 10 11
M  V30 11 1 11 12
M  V30 12 2 12 13
M  V30 13 1 13 14
M  V30 14 1 14 15
M  V30 15 2 14 16
M  V30 16 1 8 17
M  V30 17 2 17 18
M  V30 18 1 18 19
M  V30 19 1 19 20
M  V30 20 1 20 21
M  V30 21 1 21 22
M  V30 22 1 22 23
M  V30 23 1 23 24
M  V30 24 1 24 25
M  V30 25 1 25 26
M  V30 26 1 18 27
M  V30 27 2 27 28
M  V30 28 1 28 4
M  V30 29 1 28 7
M  V30 30 1 16 10
M  V30 31 1 25 20
M  V30 32 1 1 29
M  V30 33 1 1 30
M  V30 34 1 1 31
M  V30 35 1 2 32
M  V30 36 1 3 33
M  V30 37 1 3 34
M  V30 38 1 3 35
M  V30 39 1 5 36
M  V30 40 1 9 37
M  V30 41 1 11 38
M  V30 42 1 12 39
M  V30 43 1 13 40
M  V30 44 1 16 41
M  V30 45 1 19 42
M  V30 46 1 20 43 CFG=3
M  V30 47 1 21 44
M  V30 48 1 21 45
M  V30 49 1 22 46
M  V30 50 1 22 47
M  V30 51 1 23 48
M  V30 52 1 23 49
M  V30 53 1 24 50
M  V30 54 1 24 51
M  V30 55 1 25 52 CFG=1
M  V30 56 1 26 53
M  V30 57 1 26 54
M  V30 END BOND
M  V30 END CTAB
M  END
>  <Dataset>  (509) 
ChEMBL_Kinases

>  <Ligand_Instance>  (509) 
nan

>  <PDB_ID>  (509) 
nan

>  <Standardized_SMILES>  (509) 
CC(C)n1cnc2c(Nc3cccc(Cl)c3)nc(N[C@@H]3CCCC[C@H]3N)nc21

>  <Name>  (509) 
nan

>  <Pocket>  (509) 
nan

>  <ATP_Site>  (509) 
nan

>  <Peripheral>  (509) 
nan

>  <Num_H_Atoms_ProtBoundConf>  (509) 
nan

>  <Num_Resolved_Atoms>  (509) 
nan

>  <Num_Not_Resolved_Atoms>  (509) 
nan

$$$$
CHEMBL336242
     RDKit          3D

  0  0  0  0  0  0  0  0  0  0999 V3000
M  V30 BEGIN CTAB
M  V30 COUNTS 59 64 0 0 0
M  V30 BEGIN ATOM
M  V30 1 O 0.133926 -3.545288 0.401371 0
M  V30 2 C -0.501038 -2.754812 1.124120 0
M  V30 3 N 0.054402 -1.842928 2.058363 0
M  V30 4 C 1.471952 -1.829120 2.182014 0
M  V30 5 C 2.310937 -1.027900 1.438449 0
M  V30 6 C 3.655259 -1.225841 1.772845 0
M  V30 7 C 4.906081 -0.619546 1.272759 0
M  V30 8 N 5.375115 0.461823 2.011898 0
M  V30 9 C 4.629916 1.643106 2.195094 0 CFG=1
M  V30 10 C 4.110063 2.298229 0.980255 0
M  V30 11 C 2.679723 2.518192 1.242739 0
M  V30 12 C 1.678142 3.018620 0.445164 0
M  V30 13 C 0.357435 3.154443 0.885238 0
M  V30 14 C 0.040201 2.770376 2.177088 0
M  V30 15 Cl -1.592149 2.893333 2.849118 0
M  V30 16 C 1.049090 2.268749 2.973395 0
M  V30 17 C 2.353168 2.143858 2.512493 0
M  V30 18 C 3.547969 1.636424 3.202067 0
M  V30 19 N 3.569699 -2.180064 2.747124 0
M  V30 20 N 2.317327 -2.515173 2.970573 0
M  V30 21 N -1.922166 -2.746923 1.020931 0
M  V30 22 C -2.747273 -3.543261 0.178737 0
M  V30 23 C -3.204870 -4.767314 0.652238 0
M  V30 24 C -4.016915 -5.561860 -0.163890 0
M  V30 25 C -4.391792 -5.181131 -1.438272 0
M  V30 26 C -3.910360 -3.967528 -1.846093 0
M  V30 27 C -3.094253 -3.119517 -1.087754 0
M  V30 28 C -2.724121 -1.906384 -1.800939 0 CFG=2
M  V30 29 C -3.294100 -0.619474 -1.265404 0
M  V30 30 C -3.646693 0.193519 -2.517122 0
M  V30 31 C -3.055762 -0.742387 -3.583661 0
M  V30 32 N -3.465313 -2.046452 -3.066558 0
M  V30 33 C -4.162402 -3.292056 -3.136057 0
M  V30 34 O -4.811667 -3.595115 -4.163725 0
M  V30 35 H -0.548446 -1.200891 2.638910 0
M  V30 36 H 2.015063 -0.317869 0.678553 0
M  V30 37 H 4.871504 -0.462014 0.164401 0
M  V30 38 H 5.677512 -1.450607 1.367733 0
M  V30 39 H 5.907261 0.228988 2.864141 0
M  V30 40 H 5.406845 2.416963 2.606299 0
M  V30 41 H 4.604427 3.286511 0.724677 0
M  V30 42 H 4.143073 1.652633 0.068881 0
M  V30 43 H 1.800663 3.351242 -0.578358 0
M  V30 44 H -0.437659 3.542028 0.279664 0
M  V30 45 H 0.820688 1.960433 3.994103 0
M  V30 46 H 3.396246 0.576321 3.533313 0
M  V30 47 H 3.796276 2.276033 4.091218 0
M  V30 48 H 1.985241 -3.227527 3.671813 0
M  V30 49 H -2.542016 -2.108952 1.595688 0
M  V30 50 H -2.942101 -5.125990 1.656676 0
M  V30 51 H -4.385433 -6.530672 0.196077 0
M  V30 52 H -5.016252 -5.783534 -2.076261 0
M  V30 53 H -1.642264 -1.819922 -2.020686 0
M  V30 54 H -2.453796 -0.084340 -0.780484 0
M  V30 55 H -4.125153 -0.725294 -0.571881 0
M  V30 56 H -3.143300 1.175058 -2.499014 0
M  V30 57 H -4.725268 0.256224 -2.656739 0
M  V30 58 H -1.969809 -0.703353 -3.593545 0
M  V30 59 H -3.523965 -0.567003 -4.570229 0
M  V30 END ATOM
M  V30 BEGIN BOND
M  V30 1 2 1 2
M  V30 2 1 2 3
M  V30 3 1 3 4
M  V30 4 2 4 5
M  V30 5 1 5 6
M  V30 6 1 6 7
M  V30 7 1 7 8
M  V30 8 1 8 9
M  V30 9 1 9 10
M  V30 10 1 10 11
M  V30 11 2 11 12
M  V30 12 1 12 13
M  V30 13 2 13 14
M  V30 14 1 14 15
M  V30 15 1 14 16
M  V30 16 2 16 17
M  V30 17 1 17 18
M  V30 18 2 6 19
M  V30 19 1 19 20
M  V30 20 1 2 21
M  V30 21 1 21 22
M  V30 22 2 22 23
M  V30 23 1 23 24
M  V30 24 2 24 25
M  V30 25 1 25 26
M  V30 26 2 26 27
M  V30 27 1 27 28
M  V30 28 1 28 29
M  V30 29 1 29 30
M  V30 30 1 30 31
M  V30 31 1 31 32
M  V30 32 1 32 33
M  V30 33 2 33 34
M  V30 34 1 20 4
M  V30 35 1 27 22
M  V30 36 1 32 28
M  V30 37 1 18 9
M  V30 38 1 33 26
M  V30 39 1 17 11
M  V30 40 1 3 35
M  V30 41 1 5 36
M  V30 42 1 7 37
M  V30 43 1 7 38
M  V30 44 1 8 39
M  V30 45 1 9 40 CFG=1
M  V30 46 1 10 41
M  V30 47 1 10 42
M  V30 48 1 12 43
M  V30 49 1 13 44
M  V30 50 1 16 45
M  V30 51 1 18 46
M  V30 52 1 18 47
M  V30 53 1 20 48
M  V30 54 1 21 49
M  V30 55 1 23 50
M  V30 56 1 24 51
M  V30 57 1 25 52
M  V30 58 1 28 53 CFG=3
M  V30 59 1 29 54
M  V30 60 1 29 55
M  V30 61 1 30 56
M  V30 62 1 30 57
M  V30 63 1 31 58
M  V30 64 1 31 59
M  V30 END BOND
M  V30 END CTAB
M  END
>  <Dataset>  (510) 
ChEMBL_Kinases

>  <Ligand_Instance>  (510) 
nan

>  <PDB_ID>  (510) 
nan

>  <Standardized_SMILES>  (510) 
O=C(Nc1cc(CN[C@H]2Cc3ccc(Cl)cc3C2)n[nH]1)Nc1cccc2c1[C@@H]1CCCN1C2=O

>  <Name>  (510) 
nan

>  <Pocket>  (510) 
nan

>  <ATP_Site>  (510) 
nan

>  <Peripheral>  (510) 
nan

>  <Num_H_Atoms_ProtBoundConf>  (510) 
nan

>  <Num_Resolved_Atoms>  (510) 
nan

>  <Num_Not_Resolved_Atoms>  (510) 
nan

$$$$
CHEMBL4104657
     RDKit          3D

  0  0  0  0  0  0  0  0  0  0999 V3000
M  V30 BEGIN CTAB
M  V30 COUNTS 56 59 0 0 0
M  V30 BEGIN ATOM
M  V30 1 C -0.768551 -3.017792 4.322804 0
M  V30 2 C 0.588776 -2.948144 3.642516 0
M  V30 3 C 1.673937 -3.530447 4.514910 0
M  V30 4 N 0.914889 -1.616128 3.182820 0
M  V30 5 C 1.693365 -0.677699 3.773820 0
M  V30 6 N 1.732638 0.430267 3.011902 0
M  V30 7 C 0.974043 0.236374 1.897858 0
M  V30 8 C 0.697668 1.077387 0.812825 0
M  V30 9 N 1.259237 2.377266 0.764290 0
M  V30 10 C 2.354888 3.034283 0.147380 0
M  V30 11 C 3.095182 2.415286 -0.828288 0
M  V30 12 C 4.136805 3.108354 -1.379287 0
M  V30 13 N 4.973323 2.550269 -2.412863 0
M  V30 14 C 4.395765 4.402192 -0.926146 0
M  V30 15 C 3.632426 5.011066 0.064543 0
M  V30 16 Cl 3.999736 6.642147 0.599982 0
M  V30 17 C 2.582665 4.309866 0.617903 0
M  V30 18 N -0.114144 0.557386 -0.146441 0
M  V30 19 C -0.612808 -0.686527 -0.047296 0
M  V30 20 N -1.445248 -1.203438 -1.079965 0
M  V30 21 C -2.036971 -2.525578 -1.046639 0 CFG=1
M  V30 22 C -2.992747 -2.573665 0.108290 0
M  V30 23 C -4.322017 -2.026802 -0.426592 0
M  V30 24 C -4.861305 -3.155878 -1.293337 0
M  V30 25 C -3.932739 -3.539743 -2.374107 0
M  V30 26 C -2.571539 -2.937410 -2.372787 0 CFG=1
M  V30 27 N -2.514881 -1.808649 -3.289435 0
M  V30 28 N -0.312937 -1.447335 1.018144 0
M  V30 29 C 0.473129 -1.065020 2.037699 0
M  V30 30 H -0.729085 -2.760036 5.385251 0
M  V30 31 H -1.412078 -2.237658 3.821419 0
M  V30 32 H -1.273982 -4.003082 4.116016 0
M  V30 33 H 0.501175 -3.581989 2.726435 0
M  V30 34 H 1.187169 -4.353225 5.103313 0
M  V30 35 H 2.089304 -2.844178 5.249864 0
M  V30 36 H 2.471892 -4.014622 3.900501 0
M  V30 37 H 2.187664 -0.864139 4.734894 0
M  V30 38 H 0.557627 2.811524 1.396175 0
M  V30 39 H 2.882003 1.409428 -1.172214 0
M  V30 40 H 5.218905 3.199539 -3.213619 0
M  V30 41 H 5.394347 1.614495 -2.532484 0
M  V30 42 H 5.231002 4.961565 -1.366023 0
M  V30 43 H 2.016311 4.818824 1.381999 0
M  V30 44 H -1.656278 -0.606924 -1.928002 0
M  V30 45 H -1.192687 -3.209551 -0.731765 0
M  V30 46 H -2.611671 -1.958990 0.930354 0
M  V30 47 H -3.105257 -3.614633 0.410644 0
M  V30 48 H -4.964004 -1.855283 0.445224 0
M  V30 49 H -4.181735 -1.139817 -1.059002 0
M  V30 50 H -4.983243 -4.017871 -0.569255 0
M  V30 51 H -5.898623 -2.913918 -1.655505 0
M  V30 52 H -4.406406 -3.280485 -3.356741 0
M  V30 53 H -3.855732 -4.666861 -2.402746 0
M  V30 54 H -1.874791 -3.688800 -2.816379 0
M  V30 55 H -3.358617 -1.230232 -3.302311 0
M  V30 56 H -2.302290 -2.170836 -4.267702 0
M  V30 END ATOM
M  V30 BEGIN BOND
M  V30 1 1 1 2
M  V30 2 1 2 3
M  V30 3 1 2 4
M  V30 4 1 4 5
M  V30 5 2 5 6
M  V30 6 1 6 7
M  V30 7 2 7 8
M  V30 8 1 8 9
M  V30 9 1 9 10
M  V30 10 2 10 11
M  V30 11 1 11 12
M  V30 12 1 12 13
M  V30 13 2 12 14
M  V30 14 1 14 15
M  V30 15 1 15 16
M  V30 16 2 15 17
M  V30 17 1 8 18
M  V30 18 2 18 19
M  V30 19 1 19 20
M  V30 20 1 20 21
M  V30 21 1 21 22
M  V30 22 1 22 23
M  V30 23 1 23 24
M  V30 24 1 24 25
M  V30 25 1 25 26
M  V30 26 1 26 27
M  V30 27 1 19 28
M  V30 28 2 28 29
M  V30 29 1 29 4
M  V30 30 1 29 7
M  V30 31 1 17 10
M  V30 32 1 26 21
M  V30 33 1 1 30
M  V30 34 1 1 31
M  V30 35 1 1 32
M  V30 36 1 2 33
M  V30 37 1 3 34
M  V30 38 1 3 35
M  V30 39 1 3 36
M  V30 40 1 5 37
M  V30 41 1 9 38
M  V30 42 1 11 39
M  V30 43 1 13 40
M  V30 44 1 13 41
M  V30 45 1 14 42
M  V30 46 1 17 43
M  V30 47 1 20 44
M  V30 48 1 21 45 CFG=1
M  V30 49 1 22 46
M  V30 50 1 22 47
M  V30 51 1 23 48
M  V30 52 1 23 49
M  V30 53 1 24 50
M  V30 54 1 24 51
M  V30 55 1 25 52
M  V30 56 1 25 53
M  V30 57 1 26 54 CFG=3
M  V30 58 1 27 55
M  V30 59 1 27 56
M  V30 END BOND
M  V30 END CTAB
M  END
>  <Dataset>  (511) 
ChEMBL_Kinases

>  <Ligand_Instance>  (511) 
nan

>  <PDB_ID>  (511) 
nan

>  <Standardized_SMILES>  (511) 
CC(C)n1cnc2c(Nc3cc(N)cc(Cl)c3)nc(N[C@H]3CCCC[C@H]3N)nc21

>  <Name>  (511) 
nan

>  <Pocket>  (511) 
nan

>  <ATP_Site>  (511) 
nan

>  <Peripheral>  (511) 
nan

>  <Num_H_Atoms_ProtBoundConf>  (511) 
nan

>  <Num_Resolved_Atoms>  (511) 
nan

>  <Num_Not_Resolved_Atoms>  (511) 
nan

$$$$
CHEMBL4794291
     RDKit          3D

  0  0  0  0  0  0  0  0  0  0999 V3000
M  V30 BEGIN CTAB
M  V30 COUNTS 43 46 0 0 0
M  V30 BEGIN ATOM
M  V30 1 C -2.653996 -4.264275 5.261908 0
M  V30 2 C -1.243147 -3.799193 5.355393 0
M  V30 3 N -0.270543 -4.053644 6.236883 0
M  V30 4 N 0.840705 -3.407078 5.912340 0
M  V30 5 C 0.604944 -2.702560 4.785332 0
M  V30 6 C 1.458375 -1.881922 4.075616 0
M  V30 7 C 0.937423 -1.272358 2.931016 0
M  V30 8 C -0.364332 -1.479445 2.529294 0
M  V30 9 C -0.800433 -0.791987 1.319354 0
M  V30 10 C -2.063665 -0.886419 0.778135 0
M  V30 11 N -2.428245 -0.236614 -0.340095 0
M  V30 12 C -1.523880 0.541446 -0.962117 0
M  V30 13 C -0.244581 0.670021 -0.460807 0
M  V30 14 N 0.819084 1.450066 -1.000273 0
M  V30 15 C 2.159634 1.537956 -0.412997 0
M  V30 16 C 3.234290 1.345593 -1.434483 0
M  V30 17 C 2.813352 1.032659 -2.823547 0
M  V30 18 C 1.431273 1.370904 -3.227567 0 CFG=2
M  V30 19 N 1.360803 2.002129 -4.523825 0
M  V30 20 C 0.713059 2.261092 -2.204469 0
M  V30 21 N 0.068096 -0.010400 0.673173 0
M  V30 22 C -1.173617 -2.308934 3.275192 0
M  V30 23 C -0.703712 -2.936476 4.418047 0
M  V30 24 H -2.825056 -5.172720 5.864730 0
M  V30 25 H -3.292796 -3.426034 5.615619 0
M  V30 26 H -2.956578 -4.417558 4.191096 0
M  V30 27 H 1.707935 -3.502649 6.511744 0
M  V30 28 H 2.468741 -1.745914 4.422524 0
M  V30 29 H 1.684184 -0.639598 2.431226 0
M  V30 30 H -2.792943 -1.510821 1.275441 0
M  V30 31 H -1.724382 1.101287 -1.864950 0
M  V30 32 H 2.190462 0.817162 0.425983 0
M  V30 33 H 2.191682 2.548973 0.045203 0
M  V30 34 H 3.923184 0.563986 -1.019351 0
M  V30 35 H 3.847784 2.271851 -1.459333 0
M  V30 36 H 2.978607 -0.054100 -2.994792 0
M  V30 37 H 3.501173 1.518198 -3.575570 0
M  V30 38 H 0.796867 0.447855 -3.260247 0
M  V30 39 H 0.437600 1.874705 -4.992282 0
M  V30 40 H 2.083615 1.625551 -5.177966 0
M  V30 41 H -0.314003 2.406426 -2.539717 0
M  V30 42 H 1.289751 3.207144 -2.137049 0
M  V30 43 H -2.191751 -2.473688 2.964977 0
M  V30 END ATOM
M  V30 BEGIN BOND
M  V30 1 1 1 2
M  V30 2 2 2 3
M  V30 3 1 3 4
M  V30 4 1 4 5
M  V30 5 2 5 6
M  V30 6 1 6 7
M  V30 7 2 7 8
M  V30 8 1 8 9
M  V30 9 2 9 10
M  V30 10 1 10 11
M  V30 11 2 11 12
M  V30 12 1 12 13
M  V30 13 1 13 14
M  V30 14 1 14 15
M  V30 15 1 15 16
M  V30 16 1 16 17
M  V30 17 1 17 18
M  V30 18 1 18 19
M  V30 19 1 18 20
M  V30 20 2 13 21
M  V30 21 1 8 22
M  V30 22 2 22 23
M  V30 23 1 23 2
M  V30 24 1 23 5
M  V30 25 1 21 9
M  V30 26 1 20 14
M  V30 27 1 1 24
M  V30 28 1 1 25
M  V30 29 1 1 26
M  V30 30 1 4 27
M  V30 31 1 6 28
M  V30 32 1 7 29
M  V30 33 1 10 30
M  V30 34 1 12 31
M  V30 35 1 15 32
M  V30 36 1 15 33
M  V30 37 1 16 34
M  V30 38 1 16 35
M  V30 39 1 17 36
M  V30 40 1 17 37
M  V30 41 1 18 38 CFG=3
M  V30 42 1 19 39
M  V30 43 1 19 40
M  V30 44 1 20 41
M  V30 45 1 20 42
M  V30 46 1 22 43
M  V30 END BOND
M  V30 END CTAB
M  END
>  <Dataset>  (512) 
ChEMBL_Kinases

>  <Ligand_Instance>  (512) 
nan

>  <PDB_ID>  (512) 
nan

>  <Standardized_SMILES>  (512) 
Cc1n[nH]c2ccc(-c3cncc(N4CCC[C@H](N)C4)n3)cc12

>  <Name>  (512) 
nan

>  <Pocket>  (512) 
nan

>  <ATP_Site>  (512) 
nan

>  <Peripheral>  (512) 
nan

>  <Num_H_Atoms_ProtBoundConf>  (512) 
nan

>  <Num_Resolved_Atoms>  (512) 
nan

>  <Num_Not_Resolved_Atoms>  (512) 
nan

$$$$
CHEMBL4105239
     RDKit          3D

  0  0  0  0  0  0  0  0  0  0999 V3000
M  V30 BEGIN CTAB
M  V30 COUNTS 41 44 0 0 0
M  V30 BEGIN ATOM
M  V30 1 O 0.493718 -2.225880 0.034685 0
M  V30 2 C 0.065340 -1.499917 -0.926652 0
M  V30 3 N -0.047471 -2.211677 -2.140666 0
M  V30 4 C 0.355779 -3.583225 -1.967977 0
M  V30 5 C -0.498921 -4.607104 -1.609394 0
M  V30 6 C -0.016027 -5.893422 -1.468225 0
M  V30 7 C 1.319293 -6.163791 -1.683725 0
M  V30 8 C 2.230096 -5.188676 -2.044467 0
M  V30 9 O 3.569557 -5.422949 -2.267444 0
M  V30 10 C 1.699266 -3.904990 -2.175625 0
M  V30 11 C -0.266008 -0.084820 -0.761900 0
M  V30 12 C -0.733154 0.717698 -1.797645 0
M  V30 13 N -1.020284 2.017325 -1.576505 0
M  V30 14 C -0.876895 2.603128 -0.373428 0
M  V30 15 N -1.056654 3.812833 0.186483 0
M  V30 16 C -0.740909 3.827971 1.479669 0
M  V30 17 C -0.319888 2.542060 1.814510 0
M  V30 18 C 0.106535 2.202404 3.177402 0
M  V30 19 C -0.609050 2.609425 4.284860 0
M  V30 20 C -0.267013 2.326898 5.589633 0
M  V30 21 C 0.881121 1.582645 5.714045 0
M  V30 22 O 1.299597 1.251150 7.015018 0
M  V30 23 C 1.681164 1.118188 4.671823 0
M  V30 24 C 1.247638 1.458242 3.394230 0
M  V30 25 C -0.412515 1.788620 0.638337 0
M  V30 26 C -0.094888 0.450033 0.499120 0
M  V30 27 H -0.391006 -1.703186 -2.990094 0
M  V30 28 H -1.523449 -4.320371 -1.458670 0
M  V30 29 H -0.732011 -6.663111 -1.184056 0
M  V30 30 H 1.703206 -7.168852 -1.574730 0
M  V30 31 H 4.183953 -5.318171 -1.447195 0
M  V30 32 H 2.367750 -3.096039 -2.457589 0
M  V30 33 H -0.857531 0.271246 -2.775636 0
M  V30 34 H -1.414475 4.626669 -0.394898 0
M  V30 35 H -0.797854 4.682917 2.158960 0
M  V30 36 H -1.516589 3.201666 4.104087 0
M  V30 37 H -0.821693 2.642339 6.449160 0
M  V30 38 H 0.664709 0.743616 7.645994 0
M  V30 39 H 2.568862 0.537811 4.871454 0
M  V30 40 H 1.864009 1.100567 2.588885 0
M  V30 41 H 0.265527 -0.155319 1.313250 0
M  V30 END ATOM
M  V30 BEGIN BOND
M  V30 1 2 1 2
M  V30 2 1 2 3
M  V30 3 1 3 4
M  V30 4 2 4 5
M  V30 5 1 5 6
M  V30 6 2 6 7
M  V30 7 1 7 8
M  V30 8 1 8 9
M  V30 9 2 8 10
M  V30 10 1 2 11
M  V30 11 2 11 12
M  V30 12 1 12 13
M  V30 13 2 13 14
M  V30 14 1 14 15
M  V30 15 1 15 16
M  V30 16 2 16 17
M  V30 17 1 17 18
M  V30 18 2 18 19
M  V30 19 1 19 20
M  V30 20 2 20 21
M  V30 21 1 21 22
M  V30 22 1 21 23
M  V30 23 2 23 24
M  V30 24 1 17 25
M  V30 25 2 25 26
M  V30 26 1 10 4
M  V30 27 1 26 11
M  V30 28 1 25 14
M  V30 29 1 24 18
M  V30 30 1 3 27
M  V30 31 1 5 28
M  V30 32 1 6 29
M  V30 33 1 7 30
M  V30 34 1 9 31
M  V30 35 1 10 32
M  V30 36 1 12 33
M  V30 37 1 15 34
M  V30 38 1 16 35
M  V30 39 1 19 36
M  V30 40 1 20 37
M  V30 41 1 22 38
M  V30 42 1 23 39
M  V30 43 1 24 40
M  V30 44 1 26 41
M  V30 END BOND
M  V30 END CTAB
M  END
>  <Dataset>  (513) 
ChEMBL_Kinases

>  <Ligand_Instance>  (513) 
nan

>  <PDB_ID>  (513) 
nan

>  <Standardized_SMILES>  (513) 
O=C(Nc1cccc(O)c1)c1cnc2[nH]cc(-c3ccc(O)cc3)c2c1

>  <Name>  (513) 
nan

>  <Pocket>  (513) 
nan

>  <ATP_Site>  (513) 
nan

>  <Peripheral>  (513) 
nan

>  <Num_H_Atoms_ProtBoundConf>  (513) 
nan

>  <Num_Resolved_Atoms>  (513) 
nan

>  <Num_Not_Resolved_Atoms>  (513) 
nan

$$$$
CHEMBL4794127
     RDKit          3D

  0  0  0  0  0  0  0  0  0  0999 V3000
M  V30 BEGIN CTAB
M  V30 COUNTS 44 48 0 0 0
M  V30 BEGIN ATOM
M  V30 1 C -0.816239 -6.751747 -2.882542 0
M  V30 2 N 0.425204 -5.985287 -2.763278 0
M  V30 3 C 0.495065 -4.729108 -2.234673 0
M  V30 4 C 1.836607 -4.431299 -2.334010 0
M  V30 5 C 2.379235 -3.146496 -1.873245 0
M  V30 6 C 3.716709 -2.822175 -1.960455 0
M  V30 7 C 4.185297 -1.587283 -1.508599 0
M  V30 8 C 3.312607 -0.650929 -0.957794 0
M  V30 9 C 3.742636 0.583543 -0.499587 0
M  V30 10 N 2.818513 1.431101 0.021727 0
M  V30 11 C 1.514081 1.080869 0.092186 0
M  V30 12 N 0.490425 1.919149 0.626370 0
M  V30 13 C 0.283835 1.740516 2.033537 0
M  V30 14 O 1.047397 0.873568 2.537900 0
M  V30 15 C -0.717931 2.507739 2.754767 0
M  V30 16 C -1.547297 3.446759 2.216734 0
M  V30 17 C -2.470839 4.125695 2.987650 0
M  V30 18 C -2.547824 3.836511 4.343748 0
M  V30 19 N -3.435023 4.471581 5.148383 0
M  V30 20 C -3.535438 4.215419 6.465002 0
M  V30 21 C -2.708331 3.269660 7.036298 0
M  V30 22 N -1.817246 2.625342 6.252300 0
M  V30 23 C -1.730792 2.897349 4.926481 0
M  V30 24 C -0.824053 2.245827 4.113322 0
M  V30 25 C 1.065175 -0.145445 -0.359310 0
M  V30 26 C 2.002911 -1.026413 -0.897306 0
M  V30 27 N 1.546606 -2.234338 -1.339643 0
M  V30 28 C 2.565720 -5.456908 -2.898886 0
M  V30 29 N 1.618301 -6.382606 -3.136512 0
M  V30 30 H -1.613571 -6.269406 -2.263230 0
M  V30 31 H -1.165513 -6.710126 -3.929521 0
M  V30 32 H -0.678119 -7.821671 -2.632198 0
M  V30 33 H -0.312478 -4.156054 -1.851206 0
M  V30 34 H 4.389998 -3.538634 -2.382850 0
M  V30 35 H 5.233916 -1.350630 -1.584558 0
M  V30 36 H 4.781746 0.849549 -0.561302 0
M  V30 37 H -0.068270 2.601058 0.079630 0
M  V30 38 H -1.456563 3.643504 1.156757 0
M  V30 39 H -3.117413 4.865118 2.540697 0
M  V30 40 H -4.239821 4.715227 7.120293 0
M  V30 41 H -2.730102 3.009431 8.086476 0
M  V30 42 H -0.186336 1.505625 4.594917 0
M  V30 43 H 0.034280 -0.457327 -0.318725 0
M  V30 44 H 3.630820 -5.477078 -3.088158 0
M  V30 END ATOM
M  V30 BEGIN BOND
M  V30 1 1 1 2
M  V30 2 1 2 3
M  V30 3 2 3 4
M  V30 4 1 4 5
M  V30 5 2 5 6
M  V30 6 1 6 7
M  V30 7 2 7 8
M  V30 8 1 8 9
M  V30 9 2 9 10
M  V30 10 1 10 11
M  V30 11 1 11 12
M  V30 12 1 12 13
M  V30 13 2 13 14
M  V30 14 1 13 15
M  V30 15 2 15 16
M  V30 16 1 16 17
M  V30 17 2 17 18
M  V30 18 1 18 19
M  V30 19 2 19 20
M  V30 20 1 20 21
M  V30 21 2 21 22
M  V30 22 1 22 23
M  V30 23 2 23 24
M  V30 24 2 11 25
M  V30 25 1 25 26
M  V30 26 2 26 27
M  V30 27 1 4 28
M  V30 28 2 28 29
M  V30 29 1 29 2
M  V30 30 1 27 5
M  V30 31 1 26 8
M  V30 32 1 24 15
M  V30 33 1 23 18
M  V30 34 1 1 30
M  V30 35 1 1 31
M  V30 36 1 1 32
M  V30 37 1 3 33
M  V30 38 1 6 34
M  V30 39 1 7 35
M  V30 40 1 9 36
M  V30 41 1 12 37
M  V30 42 1 16 38
M  V30 43 1 17 39
M  V30 44 1 20 40
M  V30 45 1 21 41
M  V30 46 1 24 42
M  V30 47 1 25 43
M  V30 48 1 28 44
M  V30 END BOND
M  V30 END CTAB
M  END
>  <Dataset>  (514) 
ChEMBL_Kinases

>  <Ligand_Instance>  (514) 
nan

>  <PDB_ID>  (514) 
nan

>  <Standardized_SMILES>  (514) 
Cn1cc(-c2ccc3cnc(NC(=O)c4ccc5nccnc5c4)cc3n2)cn1

>  <Name>  (514) 
nan

>  <Pocket>  (514) 
nan

>  <ATP_Site>  (514) 
nan

>  <Peripheral>  (514) 
nan

>  <Num_H_Atoms_ProtBoundConf>  (514) 
nan

>  <Num_Resolved_Atoms>  (514) 
nan

>  <Num_Not_Resolved_Atoms>  (514) 
nan

$$$$
CHEMBL4794100
     RDKit          3D

  0  0  0  0  0  0  0  0  0  0999 V3000
M  V30 BEGIN CTAB
M  V30 COUNTS 51 54 0 0 0
M  V30 BEGIN ATOM
M  V30 1 C -0.304834 -3.183570 3.068604 0
M  V30 2 C 1.062600 -2.914910 3.560828 0
M  V30 3 N 1.702785 -3.652417 4.494304 0
M  V30 4 N 2.915042 -3.134178 4.702906 0
M  V30 5 C 3.028786 -2.066573 3.892824 0
M  V30 6 C 4.074149 -1.175038 3.710937 0
M  V30 7 C 3.905503 -0.157837 2.795269 0
M  V30 8 C 2.801518 0.065392 2.039270 0
M  V30 9 C 2.661198 1.153108 1.083242 0
M  V30 10 C 3.682337 2.055304 0.886607 0
M  V30 11 N 3.518222 3.049397 -0.003097 0
M  V30 12 C 2.376040 3.171385 -0.698037 0
M  V30 13 C 1.315444 2.278465 -0.529581 0
M  V30 14 N 0.113230 2.418073 -1.270699 0
M  V30 15 C -1.050855 1.556458 -1.185994 0 CFG=2
M  V30 16 C -1.532160 1.637033 0.244107 0
M  V30 17 O -2.659036 0.858996 0.480732 0
M  V30 18 C -0.615408 0.181175 -1.604354 0
M  V30 19 C -1.641868 -0.853574 -1.594413 0
M  V30 20 C -2.385497 -1.038735 -2.743030 0
M  V30 21 C -3.396620 -1.962171 -2.934978 0
M  V30 22 C -3.686210 -2.780746 -1.859901 0
M  V30 23 C -2.978210 -2.639664 -0.694590 0
M  V30 24 C -3.315071 -3.540842 0.451515 0
M  V30 25 F -3.399659 -2.871653 1.636377 0
M  V30 26 F -4.471889 -4.273146 0.168663 0
M  V30 27 F -2.290778 -4.476595 0.557341 0
M  V30 28 C -1.990501 -1.717896 -0.547349 0
M  V30 29 N 1.555021 1.316989 0.373116 0
M  V30 30 C 1.768301 -0.831184 2.231491 0
M  V30 31 C 1.877126 -1.883846 3.144953 0
M  V30 32 H -0.317807 -4.033620 2.344229 0
M  V30 33 H -0.970867 -3.406800 3.927996 0
M  V30 34 H -0.688237 -2.291724 2.538345 0
M  V30 35 H 3.589733 -3.542806 5.386533 0
M  V30 36 H 4.973146 -1.313811 4.291599 0
M  V30 37 H 4.763757 0.487344 2.716555 0
M  V30 38 H 4.626707 2.019737 1.408469 0
M  V30 39 H 2.294815 3.988491 -1.401213 0
M  V30 40 H 0.072317 3.219742 -1.937617 0
M  V30 41 H -1.862695 1.954586 -1.829614 0
M  V30 42 H -0.741772 1.279700 0.927827 0
M  V30 43 H -1.681323 2.711921 0.460730 0
M  V30 44 H -3.317762 1.449342 0.928454 0
M  V30 45 H 0.197752 -0.141465 -0.918690 0
M  V30 46 H -0.181320 0.227298 -2.622921 0
M  V30 47 H -2.190197 -0.412498 -3.619337 0
M  V30 48 H -3.930105 -2.049364 -3.852296 0
M  V30 49 H -4.466241 -3.529427 -1.934146 0
M  V30 50 H -1.399804 -1.573139 0.364889 0
M  V30 51 H 0.838900 -0.757414 1.687803 0
M  V30 END ATOM
M  V30 BEGIN BOND
M  V30 1 1 1 2
M  V30 2 2 2 3
M  V30 3 1 3 4
M  V30 4 1 4 5
M  V30 5 2 5 6
M  V30 6 1 6 7
M  V30 7 2 7 8
M  V30 8 1 8 9
M  V30 9 2 9 10
M  V30 10 1 10 11
M  V30 11 2 11 12
M  V30 12 1 12 13
M  V30 13 1 13 14
M  V30 14 1 14 15
M  V30 15 1 15 16
M  V30 16 1 16 17
M  V30 17 1 15 18
M  V30 18 1 18 19
M  V30 19 2 19 20
M  V30 20 1 20 21
M  V30 21 2 21 22
M  V30 22 1 22 23
M  V30 23 1 23 24
M  V30 24 1 24 25
M  V30 25 1 24 26
M  V30 26 1 24 27
M  V30 27 2 23 28
M  V30 28 2 13 29
M  V30 29 1 8 30
M  V30 30 2 30 31
M  V30 31 1 31 2
M  V30 32 1 31 5
M  V30 33 1 29 9
M  V30 34 1 28 19
M  V30 35 1 1 32
M  V30 36 1 1 33
M  V30 37 1 1 34
M  V30 38 1 4 35
M  V30 39 1 6 36
M  V30 40 1 7 37
M  V30 41 1 10 38
M  V30 42 1 12 39
M  V30 43 1 14 40
M  V30 44 1 15 41 CFG=3
M  V30 45 1 16 42
M  V30 46 1 16 43
M  V30 47 1 17 44
M  V30 48 1 18 45
M  V30 49 1 18 46
M  V30 50 1 20 47
M  V30 51 1 21 48
M  V30 52 1 22 49
M  V30 53 1 28 50
M  V30 54 1 30 51
M  V30 END BOND
M  V30 END CTAB
M  END
>  <Dataset>  (515) 
ChEMBL_Kinases

>  <Ligand_Instance>  (515) 
nan

>  <PDB_ID>  (515) 
nan

>  <Standardized_SMILES>  (515) 
Cc1n[nH]c2ccc(-c3cncc(N[C@H](CO)Cc4cccc(C(F)(F)F)c4)n3)cc12

>  <Name>  (515) 
nan

>  <Pocket>  (515) 
nan

>  <ATP_Site>  (515) 
nan

>  <Peripheral>  (515) 
nan

>  <Num_H_Atoms_ProtBoundConf>  (515) 
nan

>  <Num_Resolved_Atoms>  (515) 
nan

>  <Num_Not_Resolved_Atoms>  (515) 
nan

$$$$
CHEMBL4794020
     RDKit          3D

  0  0  0  0  0  0  0  0  0  0999 V3000
M  V30 BEGIN CTAB
M  V30 COUNTS 58 62 0 0 0
M  V30 BEGIN ATOM
M  V30 1 C 5.504588 -3.959079 2.468935 0
M  V30 2 N 5.805390 -3.657860 1.084539 0
M  V30 3 C 6.657806 -2.494628 0.949658 0
M  V30 4 C 5.903736 -1.302413 1.469864 0
M  V30 5 C 4.751611 -1.050698 0.489116 0
M  V30 6 N 4.026047 0.141577 0.825154 0
M  V30 7 C 2.891607 0.705968 0.152707 0
M  V30 8 C 2.258712 1.881078 0.570583 0
M  V30 9 C 1.174574 2.315323 -0.168877 0
M  V30 10 C 0.744412 1.608622 -1.272568 0
M  V30 11 N -0.397255 2.171629 -1.953399 0
M  V30 12 C -1.581010 1.611703 -1.367816 0
M  V30 13 O -1.292423 0.792126 -0.430938 0
M  V30 14 C -2.941613 1.930772 -1.781895 0
M  V30 15 N -3.421933 2.750879 -2.724931 0
M  V30 16 N -4.750996 2.713922 -2.736852 0
M  V30 17 C -5.160169 1.857259 -1.788505 0
M  V30 18 C -6.417282 1.470507 -1.403613 0
M  V30 19 C -6.597606 0.561535 -0.387166 0
M  V30 20 F -7.794021 0.102219 0.081895 0
M  V30 21 C -5.500065 0.027857 0.258130 0
M  V30 22 C -5.549818 -0.954511 1.362555 0
M  V30 23 C -6.342783 -1.000039 2.501750 0
M  V30 24 N -5.954849 -2.112299 3.140994 0
M  V30 25 N -4.999247 -2.729432 2.476912 0
M  V30 26 C -4.353586 -3.975725 2.902990 0
M  V30 27 C -4.692525 -2.060850 1.349708 0
M  V30 28 C -4.245322 0.457258 -0.174887 0
M  V30 29 C -4.027253 1.367811 -1.191597 0
M  V30 30 C 1.387617 0.450735 -1.663738 0
M  V30 31 N 2.440987 0.044269 -0.931016 0
M  V30 32 C 3.848983 -2.252155 0.535695 0
M  V30 33 C 4.615298 -3.525075 0.293710 0
M  V30 34 H 5.320687 -5.057819 2.509031 0
M  V30 35 H 4.547299 -3.474830 2.758260 0
M  V30 36 H 6.344630 -3.745607 3.140613 0
M  V30 37 H 6.844586 -2.337929 -0.122363 0
M  V30 38 H 7.607436 -2.682589 1.484057 0
M  V30 39 H 6.528238 -0.398390 1.607809 0
M  V30 40 H 5.412904 -1.567810 2.426038 0
M  V30 41 H 5.224797 -0.919102 -0.503703 0
M  V30 42 H 4.352590 0.687914 1.671888 0
M  V30 43 H 2.671650 2.361387 1.447420 0
M  V30 44 H 0.729299 3.223631 0.200321 0
M  V30 45 H -0.534380 2.863771 -2.740562 0
M  V30 46 H -5.391573 3.259498 -3.377142 0
M  V30 47 H -7.338227 1.821607 -1.836222 0
M  V30 48 H -7.087875 -0.241828 2.727408 0
M  V30 49 H -4.819294 -4.359465 3.813347 0
M  V30 50 H -4.323559 -4.671994 2.048730 0
M  V30 51 H -3.275250 -3.771799 3.167157 0
M  V30 52 H -3.936609 -2.382379 0.648508 0
M  V30 53 H -3.371228 0.040980 0.329235 0
M  V30 54 H 1.011284 -0.065695 -2.535513 0
M  V30 55 H 3.396485 -2.320391 1.532185 0
M  V30 56 H 3.101368 -2.149466 -0.276973 0
M  V30 57 H 4.802531 -3.681232 -0.782304 0
M  V30 58 H 3.935210 -4.356601 0.612944 0
M  V30 END ATOM
M  V30 BEGIN BOND
M  V30 1 1 1 2
M  V30 2 1 2 3
M  V30 3 1 3 4
M  V30 4 1 4 5
M  V30 5 1 5 6
M  V30 6 1 6 7
M  V30 7 2 7 8
M  V30 8 1 8 9
M  V30 9 2 9 10
M  V30 10 1 10 11
M  V30 11 1 11 12
M  V30 12 2 12 13
M  V30 13 1 12 14
M  V30 14 2 14 15
M  V30 15 1 15 16
M  V30 16 1 16 17
M  V30 17 2 17 18
M  V30 18 1 18 19
M  V30 19 1 19 20
M  V30 20 2 19 21
M  V30 21 1 21 22
M  V30 22 1 22 23
M  V30 23 2 23 24
M  V30 24 1 24 25
M  V30 25 1 25 26
M  V30 26 1 25 27
M  V30 27 1 21 28
M  V30 28 2 28 29
M  V30 29 1 10 30
M  V30 30 2 30 31
M  V30 31 1 5 32
M  V30 32 1 32 33
M  V30 33 1 33 2
M  V30 34 1 31 7
M  V30 35 1 29 14
M  V30 36 1 29 17
M  V30 37 2 27 22
M  V30 38 1 1 34
M  V30 39 1 1 35
M  V30 40 1 1 36
M  V30 41 1 3 37
M  V30 42 1 3 38
M  V30 43 1 4 39
M  V30 44 1 4 40
M  V30 45 1 5 41
M  V30 46 1 6 42
M  V30 47 1 8 43
M  V30 48 1 9 44
M  V30 49 1 11 45
M  V30 50 1 16 46
M  V30 51 1 18 47
M  V30 52 1 23 48
M  V30 53 1 26 49
M  V30 54 1 26 50
M  V30 55 1 26 51
M  V30 56 1 27 52
M  V30 57 1 28 53
M  V30 58 1 30 54
M  V30 59 1 32 55
M  V30 60 1 32 56
M  V30 61 1 33 57
M  V30 62 1 33 58
M  V30 END BOND
M  V30 END CTAB
M  END
>  <Dataset>  (516) 
ChEMBL_Kinases

>  <Ligand_Instance>  (516) 
nan

>  <PDB_ID>  (516) 
nan

>  <Standardized_SMILES>  (516) 
CN1CCC(Nc2ccc(NC(=O)c3n[nH]c4cc(F)c(-c5cnn(C)c5)cc34)cn2)CC1

>  <Name>  (516) 
nan

>  <Pocket>  (516) 
nan

>  <ATP_Site>  (516) 
nan

>  <Peripheral>  (516) 
nan

>  <Num_H_Atoms_ProtBoundConf>  (516) 
nan

>  <Num_Resolved_Atoms>  (516) 
nan

>  <Num_Not_Resolved_Atoms>  (516) 
nan

$$$$
CHEMBL3393608
     RDKit          3D

  0  0  0  0  0  0  0  0  0  0999 V3000
M  V30 BEGIN CTAB
M  V30 COUNTS 78 83 0 0 0
M  V30 BEGIN ATOM
M  V30 1 C 3.304591 -4.870657 -6.002319 0
M  V30 2 N 3.255459 -3.565592 -5.418571 0
M  V30 3 C 3.642443 -3.538934 -4.032520 0
M  V30 4 C 3.868837 -2.522080 -6.200931 0
M  V30 5 C 3.724052 -1.263993 -5.425056 0
M  V30 6 C 3.067157 -0.241079 -5.929633 0
M  V30 7 C 3.018287 0.925204 -5.030825 0
M  V30 8 O 3.570608 0.893958 -3.892340 0
M  V30 9 N 2.385583 2.198406 -5.271548 0
M  V30 10 C 2.682374 2.899303 -4.042543 0
M  V30 11 C 3.823442 3.656018 -3.900966 0
M  V30 12 C 4.004053 4.266867 -2.679884 0
M  V30 13 C 3.056732 4.088382 -1.699601 0
M  V30 14 C 1.917114 3.330826 -1.846335 0
M  V30 15 C 0.916689 3.134157 -0.803747 0
M  V30 16 O -0.145758 2.484412 -1.009632 0
M  V30 17 N 1.049211 3.648228 0.513355 0
M  V30 18 C -0.108578 3.275863 1.288839 0
M  V30 19 C -0.055011 2.051853 1.941495 0
M  V30 20 C -1.155753 1.694642 2.689019 0
M  V30 21 C -2.299631 2.442869 2.844302 0
M  V30 22 N -3.435768 2.073420 3.607108 0
M  V30 23 C -3.719533 0.830488 4.228898 0
M  V30 24 N -4.829962 0.706489 4.977162 0
M  V30 25 C -5.174529 -0.435240 5.589743 0
M  V30 26 C -4.389918 -1.561877 5.479729 0
M  V30 27 C -3.267611 -1.393127 4.708112 0
M  V30 28 C -2.330179 -2.486972 4.486945 0
M  V30 29 C -2.308687 -3.092511 3.223981 0
M  V30 30 C -3.042219 -2.910436 1.953936 0
M  V30 31 C -3.785967 -4.023875 1.610315 0
M  V30 32 C -4.565297 -4.090762 0.452870 0
M  V30 33 C -4.585449 -2.988143 -0.377778 0
M  V30 34 C -3.840216 -1.877036 -0.029460 0
M  V30 35 C -3.073742 -1.817850 1.113400 0
M  V30 36 N -1.367766 -4.057706 3.279903 0
M  V30 37 N -0.818264 -4.079741 4.486496 0
M  V30 38 C 0.140711 -4.847002 5.014838 0
M  V30 39 C 0.508338 -4.636354 6.313161 0
M  V30 40 C -0.065162 -3.667568 7.103498 0
M  V30 41 C -1.072333 -2.849149 6.575845 0
M  V30 42 C -1.381136 -3.131814 5.256139 0
M  V30 43 N -2.934917 -0.247071 4.101758 0
M  V30 44 C -2.281704 3.638082 2.172005 0
M  V30 45 C -1.217808 4.057833 1.408371 0
M  V30 46 C 1.726795 2.718327 -3.056756 0
M  V30 47 H 3.595840 -4.746815 -7.064664 0
M  V30 48 H 2.288397 -5.315066 -5.988773 0
M  V30 49 H 4.011443 -5.554998 -5.487967 0
M  V30 50 H 3.065761 -2.745671 -3.515307 0
M  V30 51 H 4.717817 -3.197065 -3.999026 0
M  V30 52 H 3.511121 -4.501261 -3.522704 0
M  V30 53 H 3.335370 -2.413795 -7.161392 0
M  V30 54 H 4.946461 -2.722944 -6.430427 0
M  V30 55 H 4.192759 -1.285107 -4.456426 0
M  V30 56 H 2.604386 -0.235901 -6.899174 0
M  V30 57 H 1.909510 2.262203 -6.219650 0
M  V30 58 H 4.505469 3.740749 -4.717243 0
M  V30 59 H 4.862919 4.868507 -2.494282 0
M  V30 60 H 3.221306 4.584231 -0.733790 0
M  V30 61 H 1.892022 4.192341 0.762066 0
M  V30 62 H 0.815423 1.426549 1.853703 0
M  V30 63 H -1.067154 0.746945 3.174659 0
M  V30 64 H -4.168177 2.836766 3.724988 0
M  V30 65 H -6.083077 -0.490797 6.185180 0
M  V30 66 H -4.603184 -2.514689 5.943750 0
M  V30 67 H -3.837716 -4.934771 2.192456 0
M  V30 68 H -5.148137 -4.937876 0.165611 0
M  V30 69 H -5.178580 -2.982195 -1.299660 0
M  V30 70 H -3.841301 -1.010962 -0.659992 0
M  V30 71 H -2.470053 -1.003147 1.455868 0
M  V30 72 H 0.582104 -5.600683 4.390825 0
M  V30 73 H 1.291136 -5.277265 6.713099 0
M  V30 74 H 0.239723 -3.523050 8.116349 0
M  V30 75 H -1.565831 -2.072846 7.130847 0
M  V30 76 H -3.113675 4.329937 2.203877 0
M  V30 77 H -1.222694 4.994722 0.891444 0
M  V30 78 H 0.835888 2.114425 -3.203103 0
M  V30 END ATOM
M  V30 BEGIN BOND
M  V30 1 1 1 2
M  V30 2 1 2 3
M  V30 3 1 2 4
M  V30 4 1 4 5
M  V30 5 2 5 6
M  V30 6 1 6 7
M  V30 7 2 7 8
M  V30 8 1 7 9
M  V30 9 1 9 10
M  V30 10 2 10 11
M  V30 11 1 11 12
M  V30 12 2 12 13
M  V30 13 1 13 14
M  V30 14 1 14 15
M  V30 15 2 15 16
M  V30 16 1 15 17
M  V30 17 1 17 18
M  V30 18 2 18 19
M  V30 19 1 19 20
M  V30 20 2 20 21
M  V30 21 1 21 22
M  V30 22 1 22 23
M  V30 23 2 23 24
M  V30 24 1 24 25
M  V30 25 2 25 26
M  V30 26 1 26 27
M  V30 27 1 27 28
M  V30 28 1 28 29
M  V30 29 1 29 30
M  V30 30 2 30 31
M  V30 31 1 31 32
M  V30 32 2 32 33
M  V30 33 1 33 34
M  V30 34 2 34 35
M  V30 35 2 29 36
M  V30 36 1 36 37
M  V30 37 1 37 38
M  V30 38 2 38 39
M  V30 39 1 39 40
M  V30 40 2 40 41
M  V30 41 1 41 42
M  V30 42 2 27 43
M  V30 43 1 21 44
M  V30 44 2 44 45
M  V30 45 2 14 46
M  V30 46 1 46 10
M  V30 47 1 45 18
M  V30 48 1 43 23
M  V30 49 2 42 28
M  V30 50 1 35 30
M  V30 51 1 42 37
M  V30 52 1 1 47
M  V30 53 1 1 48
M  V30 54 1 1 49
M  V30 55 1 3 50
M  V30 56 1 3 51
M  V30 57 1 3 52
M  V30 58 1 4 53
M  V30 59 1 4 54
M  V30 60 1 5 55
M  V30 61 1 6 56
M  V30 62 1 9 57
M  V30 63 1 11 58
M  V30 64 1 12 59
M  V30 65 1 13 60
M  V30 66 1 17 61
M  V30 67 1 19 62
M  V30 68 1 20 63
M  V30 69 1 22 64
M  V30 70 1 25 65
M  V30 71 1 26 66
M  V30 72 1 31 67
M  V30 73 1 32 68
M  V30 74 1 33 69
M  V30 75 1 34 70
M  V30 76 1 35 71
M  V30 77 1 38 72
M  V30 78 1 39 73
M  V30 79 1 40 74
M  V30 80 1 41 75
M  V30 81 1 44 76
M  V30 82 1 45 77
M  V30 83 1 46 78
M  V30 END BOND
M  V30 END CTAB
M  END
>  <Dataset>  (517) 
ChEMBL_Kinases

>  <Ligand_Instance>  (517) 
nan

>  <PDB_ID>  (517) 
nan

>  <Standardized_SMILES>  (517) 
CN(C)C/C=C/C(=O)Nc1cccc(C(=O)Nc2ccc(Nc3nccc(-c4c(-c5ccccc5)nn5ccccc45)n3)cc2)c1

>  <Name>  (517) 
nan

>  <Pocket>  (517) 
nan

>  <ATP_Site>  (517) 
nan

>  <Peripheral>  (517) 
nan

>  <Num_H_Atoms_ProtBoundConf>  (517) 
nan

>  <Num_Resolved_Atoms>  (517) 
nan

>  <Num_Not_Resolved_Atoms>  (517) 
nan

$$$$
CHEMBL4105466
     RDKit          3D

  0  0  0  0  0  0  0  0  0  0999 V3000
M  V30 BEGIN CTAB
M  V30 COUNTS 49 52 0 0 0
M  V30 BEGIN ATOM
M  V30 1 O 0.818266 -1.554420 0.700964 0
M  V30 2 C 0.870215 -1.326025 1.958658 0
M  V30 3 N 1.112064 -2.442352 2.793853 0
M  V30 4 C 1.312044 -3.816527 2.441752 0
M  V30 5 C 2.689088 -3.987487 1.912253 0
M  V30 6 C 3.099144 -3.895944 0.604787 0
M  V30 7 C 4.401788 -4.068732 0.213959 0
M  V30 8 C 5.375806 -4.352091 1.173372 0
M  V30 9 C 4.999035 -4.451938 2.500619 0
M  V30 10 C 3.673497 -4.270478 2.852699 0
M  V30 11 C 0.682951 0.033558 2.449463 0
M  V30 12 C 0.699242 0.430336 3.769607 0
M  V30 13 C 0.511319 1.745597 4.130807 0
M  V30 14 C 0.301953 2.703460 3.193236 0
M  V30 15 C 0.271627 2.381118 1.839579 0
M  V30 16 N 0.065300 3.378532 0.854136 0
M  V30 17 C -0.045861 3.354141 -0.588161 0
M  V30 18 C -1.290584 2.630352 -0.948870 0
M  V30 19 C -1.736371 1.374449 -1.287764 0
M  V30 20 C -3.097303 1.412522 -1.505483 0
M  V30 21 C -3.785801 0.198295 -1.876265 0
M  V30 22 C -3.275496 -1.065933 -2.058750 0
M  V30 23 C -4.077022 -2.121801 -2.414809 0
M  V30 24 N -5.412009 -1.925128 -2.594603 0
M  V30 25 C -5.964759 -0.689644 -2.425218 0
M  V30 26 C -5.148816 0.358164 -2.068501 0
M  V30 27 N -3.427824 2.685737 -1.291958 0
M  V30 28 O -2.383839 3.382248 -0.972042 0
M  V30 29 C 0.466241 1.050736 1.545156 0
M  V30 30 H 1.144941 -2.199794 3.809245 0
M  V30 31 H 0.641623 -4.155512 1.617717 0
M  V30 32 H 1.172022 -4.468119 3.308467 0
M  V30 33 H 2.332619 -3.679544 -0.117639 0
M  V30 34 H 4.614022 -3.974256 -0.843178 0
M  V30 35 H 6.373291 -4.477837 0.818267 0
M  V30 36 H 5.791683 -4.671378 3.191319 0
M  V30 37 H 3.488979 -4.371298 3.927271 0
M  V30 38 H 0.865575 -0.331921 4.516025 0
M  V30 39 H 0.524618 2.052929 5.167000 0
M  V30 40 H 0.155657 3.736721 3.496823 0
M  V30 41 H -0.032007 4.368040 1.242364 0
M  V30 42 H 0.798673 2.690608 -0.957637 0
M  V30 43 H 0.025626 4.349018 -1.035057 0
M  V30 44 H -1.002050 0.594465 -1.334821 0
M  V30 45 H -2.193112 -1.117166 -1.890333 0
M  V30 46 H -3.552433 -3.042714 -2.522351 0
M  V30 47 H -7.032429 -0.652454 -2.594673 0
M  V30 48 H -5.681897 1.302899 -1.956878 0
M  V30 49 H 0.453605 0.789117 0.501195 0
M  V30 END ATOM
M  V30 BEGIN BOND
M  V30 1 2 1 2
M  V30 2 1 2 3
M  V30 3 1 3 4
M  V30 4 1 4 5
M  V30 5 2 5 6
M  V30 6 1 6 7
M  V30 7 2 7 8
M  V30 8 1 8 9
M  V30 9 2 9 10
M  V30 10 1 2 11
M  V30 11 2 11 12
M  V30 12 1 12 13
M  V30 13 2 13 14
M  V30 14 1 14 15
M  V30 15 1 15 16
M  V30 16 1 16 17
M  V30 17 1 17 18
M  V30 18 2 18 19
M  V30 19 1 19 20
M  V30 20 1 20 21
M  V30 21 2 21 22
M  V30 22 1 22 23
M  V30 23 2 23 24
M  V30 24 1 24 25
M  V30 25 2 25 26
M  V30 26 2 20 27
M  V30 27 1 27 28
M  V30 28 2 15 29
M  V30 29 1 10 5
M  V30 30 1 29 11
M  V30 31 1 28 18
M  V30 32 1 26 21
M  V30 33 1 3 30
M  V30 34 1 4 31
M  V30 35 1 4 32
M  V30 36 1 6 33
M  V30 37 1 7 34
M  V30 38 1 8 35
M  V30 39 1 9 36
M  V30 40 1 10 37
M  V30 41 1 12 38
M  V30 42 1 13 39
M  V30 43 1 14 40
M  V30 44 1 16 41
M  V30 45 1 17 42
M  V30 46 1 17 43
M  V30 47 1 19 44
M  V30 48 1 22 45
M  V30 49 1 23 46
M  V30 50 1 25 47
M  V30 51 1 26 48
M  V30 52 1 29 49
M  V30 END BOND
M  V30 END CTAB
M  END
>  <Dataset>  (518) 
ChEMBL_Kinases

>  <Ligand_Instance>  (518) 
nan

>  <PDB_ID>  (518) 
nan

>  <Standardized_SMILES>  (518) 
O=C(NCc1ccccc1)c1cccc(NCc2cc(-c3ccncc3)no2)c1

>  <Name>  (518) 
nan

>  <Pocket>  (518) 
nan

>  <ATP_Site>  (518) 
nan

>  <Peripheral>  (518) 
nan

>  <Num_H_Atoms_ProtBoundConf>  (518) 
nan

>  <Num_Resolved_Atoms>  (518) 
nan

>  <Num_Not_Resolved_Atoms>  (518) 
nan

$$$$
CHEMBL4793999
     RDKit          3D

  0  0  0  0  0  0  0  0  0  0999 V3000
M  V30 BEGIN CTAB
M  V30 COUNTS 66 72 0 0 0
M  V30 BEGIN ATOM
M  V30 1 F 4.467770 -0.841187 5.728191 0
M  V30 2 C 4.323838 -1.381761 4.476367 0
M  V30 3 F 3.399598 -2.415264 4.500557 0
M  V30 4 C 5.679824 -1.905250 4.027787 0
M  V30 5 C 6.117770 -0.807481 3.049800 0
M  V30 6 N 4.879483 -0.611887 2.323297 0
M  V30 7 C 4.920138 0.517104 1.413575 0
M  V30 8 C 3.580862 0.556779 0.766341 0
M  V30 9 C 3.471129 -0.178801 -0.402572 0
M  V30 10 N 2.285916 -0.191160 -1.046207 0
M  V30 11 C 1.201763 0.488071 -0.591977 0
M  V30 12 C 1.334203 1.221510 0.585652 0
M  V30 13 C 0.153374 1.944085 1.054695 0
M  V30 14 C 0.201205 3.133742 1.759468 0
M  V30 15 C -0.963812 3.772055 2.177964 0
M  V30 16 C -2.194226 3.218381 1.890882 0
M  V30 17 N -3.482845 3.580890 2.149471 0
M  V30 18 N -4.310824 2.659603 1.630312 0
M  V30 19 C -3.613965 1.700161 1.037255 0
M  V30 20 C -4.155014 0.528698 0.359673 0
M  V30 21 N -3.484617 -0.464123 -0.251570 0
M  V30 22 C -4.357141 -1.358437 -0.753302 0
M  V30 23 C -4.127981 -2.525275 -1.453369 0
M  V30 24 N -2.849274 -3.031286 -1.794560 0
M  V30 25 C -2.565212 -4.247558 -2.532040 0
M  V30 26 C -1.602312 -3.847411 -3.657816 0
M  V30 27 C -0.298447 -3.369202 -3.054749 0
M  V30 28 C -0.468808 -2.988785 -1.598302 0
M  V30 29 C -1.735391 -2.233808 -1.348180 0
M  V30 30 C -5.307834 -3.185217 -1.806150 0
M  V30 31 N -6.551103 -2.792321 -1.531962 0
M  V30 32 C -6.755212 -1.646549 -0.845174 0
M  V30 33 C -5.633531 -0.940262 -0.462970 0
M  V30 34 N -5.455979 0.218284 0.218550 0
M  V30 35 C -2.278990 2.016013 1.179838 0
M  V30 36 C -1.107964 1.406473 0.778235 0
M  V30 37 C 2.524585 1.266932 1.281965 0
M  V30 38 C 3.953334 -0.347472 3.421732 0
M  V30 39 H 6.383331 -2.019892 4.863503 0
M  V30 40 H 5.572997 -2.845654 3.440579 0
M  V30 41 H 6.368986 0.075346 3.648906 0
M  V30 42 H 6.948322 -1.183495 2.415230 0
M  V30 43 H 5.761018 0.491782 0.726852 0
M  V30 44 H 4.949150 1.422512 2.073721 0
M  V30 45 H 4.294667 -0.745791 -0.824734 0
M  V30 46 H 0.305152 0.407752 -1.186166 0
M  V30 47 H 1.173087 3.557906 1.978391 0
M  V30 48 H -0.907775 4.701481 2.727946 0
M  V30 49 H -3.781050 4.441361 2.670397 0
M  V30 50 H -1.944313 -4.921951 -1.872466 0
M  V30 51 H -3.438551 -4.763825 -2.924682 0
M  V30 52 H -1.482088 -4.657376 -4.379964 0
M  V30 53 H -2.082562 -2.987399 -4.170093 0
M  V30 54 H 0.189785 -2.570158 -3.646201 0
M  V30 55 H 0.385683 -4.243089 -3.081281 0
M  V30 56 H -0.392312 -3.907395 -0.992646 0
M  V30 57 H 0.376986 -2.294789 -1.377766 0
M  V30 58 H -1.722104 -1.201838 -1.686854 0
M  V30 59 H -1.833874 -2.176308 -0.223926 0
M  V30 60 H -5.276629 -4.113565 -2.358074 0
M  V30 61 H -7.716055 -1.235248 -0.569391 0
M  V30 62 H -6.268737 0.785617 0.582077 0
M  V30 63 H -1.162403 0.477863 0.228775 0
M  V30 64 H 2.634215 1.828794 2.188353 0
M  V30 65 H 2.904268 -0.504795 3.164809 0
M  V30 66 H 4.123275 0.689571 3.821234 0
M  V30 END ATOM
M  V30 BEGIN BOND
M  V30 1 1 1 2
M  V30 2 1 2 3
M  V30 3 1 2 4
M  V30 4 1 4 5
M  V30 5 1 5 6
M  V30 6 1 6 7
M  V30 7 1 7 8
M  V30 8 2 8 9
M  V30 9 1 9 10
M  V30 10 2 10 11
M  V30 11 1 11 12
M  V30 12 1 12 13
M  V30 13 2 13 14
M  V30 14 1 14 15
M  V30 15 2 15 16
M  V30 16 1 16 17
M  V30 17 1 17 18
M  V30 18 2 18 19
M  V30 19 1 19 20
M  V30 20 2 20 21
M  V30 21 1 21 22
M  V30 22 2 22 23
M  V30 23 1 23 24
M  V30 24 1 24 25
M  V30 25 1 25 26
M  V30 26 1 26 27
M  V30 27 1 27 28
M  V30 28 1 28 29
M  V30 29 1 23 30
M  V30 30 2 30 31
M  V30 31 1 31 32
M  V30 32 2 32 33
M  V30 33 1 33 34
M  V30 34 1 19 35
M  V30 35 2 35 36
M  V30 36 2 12 37
M  V30 37 1 6 38
M  V30 38 1 38 2
M  V30 39 1 37 8
M  V30 40 1 36 13
M  V30 41 1 35 16
M  V30 42 1 34 20
M  V30 43 1 33 22
M  V30 44 1 29 24
M  V30 45 1 4 39
M  V30 46 1 4 40
M  V30 47 1 5 41
M  V30 48 1 5 42
M  V30 49 1 7 43
M  V30 50 1 7 44
M  V30 51 1 9 45
M  V30 52 1 11 46
M  V30 53 1 14 47
M  V30 54 1 15 48
M  V30 55 1 17 49
M  V30 56 1 25 50
M  V30 57 1 25 51
M  V30 58 1 26 52
M  V30 59 1 26 53
M  V30 60 1 27 54
M  V30 61 1 27 55
M  V30 62 1 28 56
M  V30 63 1 28 57
M  V30 64 1 29 58
M  V30 65 1 29 59
M  V30 66 1 30 60
M  V30 67 1 32 61
M  V30 68 1 34 62
M  V30 69 1 36 63
M  V30 70 1 37 64
M  V30 71 1 38 65
M  V30 72 1 38 66
M  V30 END BOND
M  V30 END CTAB
M  END
>  <Dataset>  (519) 
ChEMBL_Kinases

>  <Ligand_Instance>  (519) 
nan

>  <PDB_ID>  (519) 
nan

>  <Standardized_SMILES>  (519) 
FC1(F)CCN(Cc2cncc(-c3ccc4[nH]nc(-c5nc6c(N7CCCCC7)cncc6[nH]5)c4c3)c2)C1

>  <Name>  (519) 
nan

>  <Pocket>  (519) 
nan

>  <ATP_Site>  (519) 
nan

>  <Peripheral>  (519) 
nan

>  <Num_H_Atoms_ProtBoundConf>  (519) 
nan

>  <Num_Resolved_Atoms>  (519) 
nan

>  <Num_Not_Resolved_Atoms>  (519) 
nan

$$$$
CHEMBL4793989
     RDKit          3D

  0  0  0  0  0  0  0  0  0  0999 V3000
M  V30 BEGIN CTAB
M  V30 COUNTS 44 49 0 0 0
M  V30 BEGIN ATOM
M  V30 1 C -3.018659 3.742692 0.793932 0
M  V30 2 C -3.369198 2.671610 1.617915 0
M  V30 3 N -2.627997 1.555533 1.709569 0
M  V30 4 C -1.493637 1.448828 0.981173 0
M  V30 5 C -1.089926 2.467260 0.148896 0
M  V30 6 C 0.145750 2.265814 -0.598329 0
M  V30 7 C 0.686610 3.184191 -1.471411 0
M  V30 8 C 1.862358 2.919898 -2.143020 0
M  V30 9 C 2.556687 1.737907 -1.983119 0
M  V30 10 N 3.678233 1.144599 -2.438686 0
M  V30 11 N 3.815755 -0.065839 -1.877400 0
M  V30 12 C 2.782173 -0.283026 -1.043147 0
M  V30 13 C 2.561118 -1.484053 -0.238419 0
M  V30 14 N 1.519052 -1.680737 0.590618 0
M  V30 15 C 1.622205 -2.899783 1.180407 0
M  V30 16 C 0.892198 -3.640926 2.088482 0
M  V30 17 C -0.331706 -2.992111 2.584912 0
M  V30 18 C -1.560089 -3.619775 2.702378 0
M  V30 19 C -2.642459 -2.886537 3.188868 0
M  V30 20 C -2.525035 -1.554631 3.556345 0
M  V30 21 N -1.329354 -0.989480 3.428370 0
M  V30 22 C -0.243926 -1.648345 2.963264 0
M  V30 23 N 1.310073 -4.880160 2.471063 0
M  V30 24 C 2.457108 -5.371078 1.942263 0
M  V30 25 C 3.213137 -4.655267 1.029890 0
M  V30 26 C 2.796152 -3.407073 0.641832 0
M  V30 27 N 3.377243 -2.552931 -0.224317 0
M  V30 28 C 1.972915 0.835837 -1.089137 0
M  V30 29 N 0.816199 1.127344 -0.445484 0
M  V30 30 C -1.857134 3.604605 0.063732 0
M  V30 31 H -3.664451 4.590402 0.781721 0
M  V30 32 H -4.262349 2.679404 2.232761 0
M  V30 33 H -0.931978 0.533946 1.088129 0
M  V30 34 H 0.169910 4.120621 -1.621230 0
M  V30 35 H 2.306191 3.633134 -2.837567 0
M  V30 36 H 4.286081 1.657359 -3.138174 0
M  V30 37 H -1.602536 -4.649172 2.406399 0
M  V30 38 H -3.592394 -3.419898 3.265423 0
M  V30 39 H -3.391283 -1.011274 3.932755 0
M  V30 40 H 0.661667 -1.056872 2.914997 0
M  V30 41 H 2.649914 -6.364668 2.347608 0
M  V30 42 H 4.094366 -5.174505 0.700709 0
M  V30 43 H 4.256454 -2.703118 -0.752298 0
M  V30 44 H -1.557552 4.399457 -0.575085 0
M  V30 END ATOM
M  V30 BEGIN BOND
M  V30 1 2 1 2
M  V30 2 1 2 3
M  V30 3 2 3 4
M  V30 4 1 4 5
M  V30 5 1 5 6
M  V30 6 2 6 7
M  V30 7 1 7 8
M  V30 8 2 8 9
M  V30 9 1 9 10
M  V30 10 1 10 11
M  V30 11 2 11 12
M  V30 12 1 12 13
M  V30 13 2 13 14
M  V30 14 1 14 15
M  V30 15 2 15 16
M  V30 16 1 16 17
M  V30 17 2 17 18
M  V30 18 1 18 19
M  V30 19 2 19 20
M  V30 20 1 20 21
M  V30 21 2 21 22
M  V30 22 1 16 23
M  V30 23 2 23 24
M  V30 24 1 24 25
M  V30 25 2 25 26
M  V30 26 1 26 27
M  V30 27 1 12 28
M  V30 28 2 28 29
M  V30 29 2 5 30
M  V30 30 1 30 1
M  V30 31 1 29 6
M  V30 32 1 28 9
M  V30 33 1 27 13
M  V30 34 1 26 15
M  V30 35 1 22 17
M  V30 36 1 1 31
M  V30 37 1 2 32
M  V30 38 1 4 33
M  V30 39 1 7 34
M  V30 40 1 8 35
M  V30 41 1 10 36
M  V30 42 1 18 37
M  V30 43 1 19 38
M  V30 44 1 20 39
M  V30 45 1 22 40
M  V30 46 1 24 41
M  V30 47 1 25 42
M  V30 48 1 27 43
M  V30 49 1 30 44
M  V30 END BOND
M  V30 END CTAB
M  END
>  <Dataset>  (520) 
ChEMBL_Kinases

>  <Ligand_Instance>  (520) 
nan

>  <PDB_ID>  (520) 
nan

>  <Standardized_SMILES>  (520) 
c1cncc(-c2ccc3[nH]nc(-c4nc5c(-c6cccnc6)nccc5[nH]4)c3n2)c1

>  <Name>  (520) 
nan

>  <Pocket>  (520) 
nan

>  <ATP_Site>  (520) 
nan

>  <Peripheral>  (520) 
nan

>  <Num_H_Atoms_ProtBoundConf>  (520) 
nan

>  <Num_Resolved_Atoms>  (520) 
nan

>  <Num_Not_Resolved_Atoms>  (520) 
nan

$$$$
CHEMBL4793867
     RDKit          3D

  0  0  0  0  0  0  0  0  0  0999 V3000
M  V30 BEGIN CTAB
M  V30 COUNTS 59 63 0 0 0
M  V30 BEGIN ATOM
M  V30 1 C 6.186526 -1.398994 4.115559 0
M  V30 2 N 6.417347 -2.731949 3.622839 0
M  V30 3 C 7.339338 -2.794213 2.518155 0
M  V30 4 C 6.777023 -2.357267 1.206625 0
M  V30 5 N 5.344471 -2.190635 1.316405 0
M  V30 6 C 4.623898 -1.038085 0.897439 0
M  V30 7 C 3.273988 -0.904741 0.995015 0
M  V30 8 C 2.713388 0.273398 0.545974 0
M  V30 9 C 1.276786 0.516298 0.605625 0
M  V30 10 O 0.737161 1.584993 0.205522 0
M  V30 11 N 0.338317 -0.410450 1.114070 0
M  V30 12 C -1.015906 0.026497 1.080206 0
M  V30 13 C -1.917547 -0.151019 0.057446 0
M  V30 14 C -3.213773 0.341528 0.182809 0
M  V30 15 C -4.101284 0.149553 -0.859317 0
M  V30 16 C -5.380543 0.664276 -0.673042 0
M  V30 17 C -6.327441 0.469263 -1.765831 0
M  V30 18 C -7.201547 1.382873 -2.318578 0
M  V30 19 N -7.881724 0.767569 -3.301346 0
M  V30 20 N -7.521371 -0.490622 -3.440814 0
M  V30 21 C -8.042963 -1.447661 -4.395610 0
M  V30 22 C -6.585026 -0.660406 -2.511591 0
M  V30 23 N -5.944566 -1.897394 -2.345963 0
M  V30 24 C -5.791718 1.333439 0.462095 0
M  V30 25 C -4.850743 1.491926 1.470755 0
M  V30 26 C -3.552434 1.008324 1.363943 0
M  V30 27 C -2.617653 1.170774 2.378411 0
M  V30 28 N -1.358962 0.680005 2.229899 0
M  V30 29 C 3.491359 1.290657 0.012535 0
M  V30 30 C 4.856557 1.103325 -0.063365 0
M  V30 31 N 5.377608 -0.054907 0.381568 0
M  V30 32 C 4.782796 -3.383700 1.917383 0
M  V30 33 C 5.196808 -3.468735 3.352351 0
M  V30 34 H 5.096028 -1.173990 3.973773 0
M  V30 35 H 6.348068 -1.417664 5.215402 0
M  V30 36 H 6.739424 -0.609051 3.597852 0
M  V30 37 H 7.749223 -3.807025 2.450755 0
M  V30 38 H 8.189996 -2.121671 2.752467 0
M  V30 39 H 6.955259 -3.140523 0.450068 0
M  V30 40 H 7.231245 -1.415831 0.833270 0
M  V30 41 H 2.678039 -1.693567 1.408524 0
M  V30 42 H 0.675364 -1.343068 1.478714 0
M  V30 43 H -1.550656 -0.679977 -0.809382 0
M  V30 44 H -3.809009 -0.368498 -1.757639 0
M  V30 45 H -7.321178 2.427165 -2.011121 0
M  V30 46 H -9.130012 -1.296643 -4.499899 0
M  V30 47 H -7.903067 -2.458388 -3.911528 0
M  V30 48 H -7.473024 -1.395192 -5.323539 0
M  V30 49 H -5.245822 -2.652040 -2.241222 0
M  V30 50 H -6.189871 -2.914993 -2.219199 0
M  V30 51 H -6.791194 1.722633 0.579323 0
M  V30 52 H -5.129839 2.009211 2.374514 0
M  V30 53 H -2.895280 1.694404 3.299040 0
M  V30 54 H 3.025270 2.212480 -0.336025 0
M  V30 55 H 5.490308 1.899484 -0.483281 0
M  V30 56 H 5.084242 -4.304186 1.338150 0
M  V30 57 H 3.666964 -3.410719 1.879075 0
M  V30 58 H 5.392302 -4.535646 3.620438 0
M  V30 59 H 4.357920 -3.115562 3.993849 0
M  V30 END ATOM
M  V30 BEGIN BOND
M  V30 1 1 1 2
M  V30 2 1 2 3
M  V30 3 1 3 4
M  V30 4 1 4 5
M  V30 5 1 5 6
M  V30 6 2 6 7
M  V30 7 1 7 8
M  V30 8 1 8 9
M  V30 9 2 9 10
M  V30 10 1 9 11
M  V30 11 1 11 12
M  V30 12 2 12 13
M  V30 13 1 13 14
M  V30 14 2 14 15
M  V30 15 1 15 16
M  V30 16 1 16 17
M  V30 17 1 17 18
M  V30 18 2 18 19
M  V30 19 1 19 20
M  V30 20 1 20 21
M  V30 21 1 20 22
M  V30 22 1 22 23
M  V30 23 2 16 24
M  V30 24 1 24 25
M  V30 25 2 25 26
M  V30 26 1 26 27
M  V30 27 2 27 28
M  V30 28 2 8 29
M  V30 29 1 29 30
M  V30 30 2 30 31
M  V30 31 1 5 32
M  V30 32 1 32 33
M  V30 33 1 33 2
M  V30 34 1 31 6
M  V30 35 1 28 12
M  V30 36 1 26 14
M  V30 37 2 22 17
M  V30 38 1 1 34
M  V30 39 1 1 35
M  V30 40 1 1 36
M  V30 41 1 3 37
M  V30 42 1 3 38
M  V30 43 1 4 39
M  V30 44 1 4 40
M  V30 45 1 7 41
M  V30 46 1 11 42
M  V30 47 1 13 43
M  V30 48 1 15 44
M  V30 49 1 18 45
M  V30 50 1 21 46
M  V30 51 1 21 47
M  V30 52 1 21 48
M  V30 53 1 23 49
M  V30 54 1 23 50
M  V30 55 1 24 51
M  V30 56 1 25 52
M  V30 57 1 27 53
M  V30 58 1 29 54
M  V30 59 1 30 55
M  V30 60 1 32 56
M  V30 61 1 32 57
M  V30 62 1 33 58
M  V30 63 1 33 59
M  V30 END BOND
M  V30 END CTAB
M  END
>  <Dataset>  (521) 
ChEMBL_Kinases

>  <Ligand_Instance>  (521) 
nan

>  <PDB_ID>  (521) 
nan

>  <Standardized_SMILES>  (521) 
CN1CCN(c2cc(C(=O)Nc3cc4cc(-c5cnn(C)c5N)ccc4cn3)ccn2)CC1

>  <Name>  (521) 
nan

>  <Pocket>  (521) 
nan

>  <ATP_Site>  (521) 
nan

>  <Peripheral>  (521) 
nan

>  <Num_H_Atoms_ProtBoundConf>  (521) 
nan

>  <Num_Resolved_Atoms>  (521) 
nan

>  <Num_Not_Resolved_Atoms>  (521) 
nan

$$$$
CHEMBL4793856
     RDKit          3D

  0  0  0  0  0  0  0  0  0  0999 V3000
M  V30 BEGIN CTAB
M  V30 COUNTS 48 53 0 0 0
M  V30 BEGIN ATOM
M  V30 1 N 1.979386 -3.467557 -1.433889 0
M  V30 2 C 2.885357 -2.367554 -1.445962 0
M  V30 3 C 4.111387 -2.473853 -2.072247 0
M  V30 4 N 4.934400 -1.391507 -2.051447 0
M  V30 5 C 4.569929 -0.240040 -1.436996 0
M  V30 6 C 3.351229 -0.109321 -0.804878 0
M  V30 7 C 2.905424 1.104282 -0.127822 0
M  V30 8 C 3.653258 2.249014 -0.047280 0
M  V30 9 C 3.247564 3.405258 0.588659 0
M  V30 10 C 2.010997 3.439026 1.192232 0
M  V30 11 N 1.260748 4.307648 1.882757 0
M  V30 12 N 0.106612 3.732703 2.214177 0
M  V30 13 C 0.067105 2.478914 1.753597 0
M  V30 14 C -1.066430 1.580109 1.951360 0
M  V30 15 N -1.220735 0.304359 1.537227 0
M  V30 16 C -2.425831 -0.160654 1.935064 0
M  V30 17 C -3.134308 -1.340203 1.822450 0
M  V30 18 C -2.518737 -2.453982 1.102494 0
M  V30 19 C -2.593147 -2.761081 -0.238914 0
M  V30 20 C -1.931326 -3.868506 -0.721728 0
M  V30 21 C -1.180790 -4.709654 0.071818 0
M  V30 22 C -1.114776 -4.385238 1.429917 0
M  V30 23 C -1.768106 -3.281170 1.941642 0
M  V30 24 F -1.612418 -3.094077 3.275462 0
M  V30 25 C -4.394163 -1.517258 2.356568 0
M  V30 26 C -5.007534 -0.472409 3.049107 0
M  V30 27 C -4.282446 0.705109 3.153012 0
M  V30 28 C -3.025261 0.864639 2.613471 0
M  V30 29 N -2.167088 1.926952 2.609758 0
M  V30 30 C 1.271518 2.288447 1.105463 0
M  V30 31 N 1.693383 1.175515 0.478360 0
M  V30 32 C 2.500829 -1.195894 -0.814208 0
M  V30 33 H 1.005351 -3.478338 -1.821765 0
M  V30 34 H 1.898276 -4.443952 -1.132504 0
M  V30 35 H 4.389231 -3.403220 -2.560387 0
M  V30 36 H 5.248592 0.601604 -1.439294 0
M  V30 37 H 4.617758 2.290988 -0.491940 0
M  V30 38 H 3.858689 4.298378 0.638281 0
M  V30 39 H 1.585660 5.285029 2.101307 0
M  V30 40 H -3.188962 -2.071929 -0.799687 0
M  V30 41 H -2.017002 -4.072671 -1.782969 0
M  V30 42 H -0.670969 -5.566258 -0.311543 0
M  V30 43 H -0.519404 -5.053640 2.055683 0
M  V30 44 H -4.915576 -2.458694 2.245664 0
M  V30 45 H -5.986710 -0.548513 3.487742 0
M  V30 46 H -4.757874 1.514152 3.689494 0
M  V30 47 H -2.423190 2.839512 3.081055 0
M  V30 48 H 1.514124 -1.171674 -0.333635 0
M  V30 END ATOM
M  V30 BEGIN BOND
M  V30 1 1 1 2
M  V30 2 2 2 3
M  V30 3 1 3 4
M  V30 4 2 4 5
M  V30 5 1 5 6
M  V30 6 1 6 7
M  V30 7 2 7 8
M  V30 8 1 8 9
M  V30 9 2 9 10
M  V30 10 1 10 11
M  V30 11 1 11 12
M  V30 12 2 12 13
M  V30 13 1 13 14
M  V30 14 2 14 15
M  V30 15 1 15 16
M  V30 16 2 16 17
M  V30 17 1 17 18
M  V30 18 2 18 19
M  V30 19 1 19 20
M  V30 20 2 20 21
M  V30 21 1 21 22
M  V30 22 2 22 23
M  V30 23 1 23 24
M  V30 24 1 17 25
M  V30 25 2 25 26
M  V30 26 1 26 27
M  V30 27 2 27 28
M  V30 28 1 28 29
M  V30 29 1 13 30
M  V30 30 2 30 31
M  V30 31 2 6 32
M  V30 32 1 32 2
M  V30 33 1 31 7
M  V30 34 1 30 10
M  V30 35 1 29 14
M  V30 36 1 28 16
M  V30 37 1 23 18
M  V30 38 1 1 33
M  V30 39 1 1 34
M  V30 40 1 3 35
M  V30 41 1 5 36
M  V30 42 1 8 37
M  V30 43 1 9 38
M  V30 44 1 11 39
M  V30 45 1 19 40
M  V30 46 1 20 41
M  V30 47 1 21 42
M  V30 48 1 22 43
M  V30 49 1 25 44
M  V30 50 1 26 45
M  V30 51 1 27 46
M  V30 52 1 29 47
M  V30 53 1 32 48
M  V30 END BOND
M  V30 END CTAB
M  END
>  <Dataset>  (522) 
ChEMBL_Kinases

>  <Ligand_Instance>  (522) 
nan

>  <PDB_ID>  (522) 
nan

>  <Standardized_SMILES>  (522) 
Nc1cncc(-c2ccc3[nH]nc(-c4nc5c(-c6ccccc6F)cccc5[nH]4)c3n2)c1

>  <Name>  (522) 
nan

>  <Pocket>  (522) 
nan

>  <ATP_Site>  (522) 
nan

>  <Peripheral>  (522) 
nan

>  <Num_H_Atoms_ProtBoundConf>  (522) 
nan

>  <Num_Resolved_Atoms>  (522) 
nan

>  <Num_Not_Resolved_Atoms>  (522) 
nan

$$$$
CHEMBL4793809
     RDKit          3D

  0  0  0  0  0  0  0  0  0  0999 V3000
M  V30 BEGIN CTAB
M  V30 COUNTS 43 46 0 0 0
M  V30 BEGIN ATOM
M  V30 1 O 0.379135 -3.458058 1.659011 0
M  V30 2 C 1.345984 -4.141764 1.244081 0
M  V30 3 N 2.598119 -3.473826 1.309540 0
M  V30 4 C 2.401380 -2.150460 1.854499 0
M  V30 5 C 2.480481 -1.983437 3.221162 0
M  V30 6 N 2.262403 -0.694179 3.444047 0
M  V30 7 N 2.051788 -0.038162 2.316833 0
M  V30 8 C 1.776937 1.369235 2.126572 0
M  V30 9 C 2.323164 2.263840 3.029590 0
M  V30 10 S 1.695344 3.910991 2.378144 0
M  V30 11 C 0.832410 3.192687 1.051711 0
M  V30 12 C 0.029212 3.949583 0.023325 0
M  V30 13 O -0.554216 3.316719 -0.894838 0
M  V30 14 N -0.020033 5.363762 0.157890 0
M  V30 15 C -0.783289 6.115623 -0.817362 0
M  V30 16 C -1.431466 7.394076 -0.446142 0
M  V30 17 C -0.165667 7.396360 -1.285431 0
M  V30 18 C 1.008972 1.888099 1.113362 0
M  V30 19 C 2.129680 -0.912177 1.293843 0
M  V30 20 N 1.130905 -5.442523 0.772721 0
M  V30 21 C -0.077409 -6.169681 0.678712 0
M  V30 22 C -1.328099 -5.737564 1.041023 0
M  V30 23 C -2.474209 -6.493097 0.927213 0
M  V30 24 C -2.404607 -7.770431 0.421833 0
M  V30 25 C -1.161026 -8.232638 0.048982 0
M  V30 26 C -0.037154 -7.447517 0.177672 0
M  V30 27 Cl 1.516360 -8.130064 -0.328997 0
M  V30 28 H 3.444953 -3.992876 0.976429 0
M  V30 29 H 2.674356 -2.699038 4.007822 0
M  V30 30 H 2.960213 2.063941 3.902800 0
M  V30 31 H 0.477266 5.884410 0.939227 0
M  V30 32 H -1.262769 5.505650 -1.607945 0
M  V30 33 H -1.324925 7.786840 0.578627 0
M  V30 34 H -2.374402 7.633430 -0.971333 0
M  V30 35 H 0.745285 7.807521 -0.813477 0
M  V30 36 H -0.264462 7.689829 -2.347836 0
M  V30 37 H 0.550640 1.217355 0.367223 0
M  V30 38 H 2.025585 -0.807826 0.238151 0
M  V30 39 H 2.023638 -5.880965 0.463421 0
M  V30 40 H -1.458987 -4.761769 1.439433 0
M  V30 41 H -3.439239 -6.099681 1.230203 0
M  V30 42 H -3.277385 -8.387373 0.319075 0
M  V30 43 H -1.049899 -9.224226 -0.352027 0
M  V30 END ATOM
M  V30 BEGIN BOND
M  V30 1 2 1 2
M  V30 2 1 2 3
M  V30 3 1 3 4
M  V30 4 1 4 5
M  V30 5 2 5 6
M  V30 6 1 6 7
M  V30 7 1 7 8
M  V30 8 2 8 9
M  V30 9 1 9 10
M  V30 10 1 10 11
M  V30 11 1 11 12
M  V30 12 2 12 13
M  V30 13 1 12 14
M  V30 14 1 14 15
M  V30 15 1 15 16
M  V30 16 1 16 17
M  V30 17 2 11 18
M  V30 18 1 7 19
M  V30 19 1 2 20
M  V30 20 1 20 21
M  V30 21 2 21 22
M  V30 22 1 22 23
M  V30 23 2 23 24
M  V30 24 1 24 25
M  V30 25 2 25 26
M  V30 26 1 26 27
M  V30 27 2 19 4
M  V30 28 1 26 21
M  V30 29 1 18 8
M  V30 30 1 17 15
M  V30 31 1 3 28
M  V30 32 1 5 29
M  V30 33 1 9 30
M  V30 34 1 14 31
M  V30 35 1 15 32
M  V30 36 1 16 33
M  V30 37 1 16 34
M  V30 38 1 17 35
M  V30 39 1 17 36
M  V30 40 1 18 37
M  V30 41 1 19 38
M  V30 42 1 20 39
M  V30 43 1 22 40
M  V30 44 1 23 41
M  V30 45 1 24 42
M  V30 46 1 25 43
M  V30 END BOND
M  V30 END CTAB
M  END
>  <Dataset>  (523) 
ChEMBL_Kinases

>  <Ligand_Instance>  (523) 
nan

>  <PDB_ID>  (523) 
nan

>  <Standardized_SMILES>  (523) 
O=C(Nc1cnn(-c2csc(C(=O)NC3CC3)c2)c1)Nc1ccccc1Cl

>  <Name>  (523) 
nan

>  <Pocket>  (523) 
nan

>  <ATP_Site>  (523) 
nan

>  <Peripheral>  (523) 
nan

>  <Num_H_Atoms_ProtBoundConf>  (523) 
nan

>  <Num_Resolved_Atoms>  (523) 
nan

>  <Num_Not_Resolved_Atoms>  (523) 
nan

$$$$
CHEMBL4793803
     RDKit          3D

  0  0  0  0  0  0  0  0  0  0999 V3000
M  V30 BEGIN CTAB
M  V30 COUNTS 54 58 0 0 0
M  V30 BEGIN ATOM
M  V30 1 O 5.325070 2.367968 1.154664 0
M  V30 2 C 4.202677 1.865201 0.794046 0
M  V30 3 N 4.336294 1.622624 -0.567775 0
M  V30 4 C 5.647570 2.029474 -0.985142 0
M  V30 5 C 6.611338 1.047392 -0.902206 0
M  V30 6 C 7.906439 1.342837 -1.281879 0
M  V30 7 C 8.135480 2.625052 -1.723173 0
M  V30 8 N 7.159718 3.550159 -1.786166 0
M  V30 9 C 5.884422 3.315213 -1.429240 0
M  V30 10 C 3.192112 1.700535 1.808308 0
M  V30 11 N 3.514182 2.087577 3.061331 0
M  V30 12 N 2.466204 1.863605 3.861896 0
M  V30 13 C 1.428406 1.332921 3.199340 0
M  V30 14 C 0.148316 0.906488 3.455032 0
M  V30 15 N -0.602840 0.413676 2.461508 0
M  V30 16 C -0.143192 0.315360 1.184321 0
M  V30 17 C -1.018031 -0.229228 0.157168 0
M  V30 18 C -0.696167 -0.390719 -1.170352 0
M  V30 19 N -1.514152 -0.891802 -2.103664 0
M  V30 20 C -2.757817 -1.278116 -1.748501 0
M  V30 21 C -3.185619 -1.155971 -0.421768 0
M  V30 22 C -4.564761 -1.586351 -0.084618 0
M  V30 23 N -4.565506 -2.974729 0.258066 0
M  V30 24 C -5.926534 -3.366146 0.578861 0
M  V30 25 C -6.024134 -4.852279 0.540973 0
M  V30 26 C -4.678616 -5.537175 0.566417 0
M  V30 27 C -3.701748 -4.844957 1.481633 0
M  V30 28 C -3.689032 -3.340306 1.322428 0
M  V30 29 C -2.289424 -0.630066 0.492250 0
M  V30 30 C 1.135914 0.737233 0.908829 0
M  V30 31 C 1.906204 1.239487 1.913034 0
M  V30 32 H 3.479398 1.208450 -0.981576 0
M  V30 33 H 6.385449 0.040447 -0.545530 0
M  V30 34 H 8.640833 0.553287 -1.206623 0
M  V30 35 H 9.153806 2.871301 -2.026007 0
M  V30 36 H 5.098750 4.056381 -1.478790 0
M  V30 37 H 2.458813 2.076862 4.881184 0
M  V30 38 H -0.203089 0.990764 4.473552 0
M  V30 39 H 0.277574 -0.099847 -1.504345 0
M  V30 40 H -3.470444 -1.694944 -2.466873 0
M  V30 41 H -4.842022 -0.982318 0.828745 0
M  V30 42 H -5.295139 -1.316986 -0.854103 0
M  V30 43 H -6.569479 -2.896059 -0.220139 0
M  V30 44 H -6.256185 -2.921133 1.541317 0
M  V30 45 H -6.525559 -5.146791 -0.403495 0
M  V30 46 H -6.693374 -5.232589 1.353556 0
M  V30 47 H -4.264575 -5.650168 -0.458980 0
M  V30 48 H -4.835233 -6.561842 0.959449 0
M  V30 49 H -3.798279 -5.153290 2.540957 0
M  V30 50 H -2.691457 -5.212202 1.167517 0
M  V30 51 H -3.940500 -2.865286 2.311456 0
M  V30 52 H -2.670158 -2.969336 1.090345 0
M  V30 53 H -2.686847 -0.561817 1.509156 0
M  V30 54 H 1.495907 0.658704 -0.097698 0
M  V30 END ATOM
M  V30 BEGIN BOND
M  V30 1 2 1 2
M  V30 2 1 2 3
M  V30 3 1 3 4
M  V30 4 2 4 5
M  V30 5 1 5 6
M  V30 6 2 6 7
M  V30 7 1 7 8
M  V30 8 2 8 9
M  V30 9 1 2 10
M  V30 10 2 10 11
M  V30 11 1 11 12
M  V30 12 1 12 13
M  V30 13 2 13 14
M  V30 14 1 14 15
M  V30 15 2 15 16
M  V30 16 1 16 17
M  V30 17 2 17 18
M  V30 18 1 18 19
M  V30 19 2 19 20
M  V30 20 1 20 21
M  V30 21 1 21 22
M  V30 22 1 22 23
M  V30 23 1 23 24
M  V30 24 1 24 25
M  V30 25 1 25 26
M  V30 26 1 26 27
M  V30 27 1 27 28
M  V30 28 2 21 29
M  V30 29 1 16 30
M  V30 30 2 30 31
M  V30 31 1 9 4
M  V30 32 1 31 10
M  V30 33 1 31 13
M  V30 34 1 29 17
M  V30 35 1 28 23
M  V30 36 1 3 32
M  V30 37 1 5 33
M  V30 38 1 6 34
M  V30 39 1 7 35
M  V30 40 1 9 36
M  V30 41 1 12 37
M  V30 42 1 14 38
M  V30 43 1 18 39
M  V30 44 1 20 40
M  V30 45 1 22 41
M  V30 46 1 22 42
M  V30 47 1 24 43
M  V30 48 1 24 44
M  V30 49 1 25 45
M  V30 50 1 25 46
M  V30 51 1 26 47
M  V30 52 1 26 48
M  V30 53 1 27 49
M  V30 54 1 27 50
M  V30 55 1 28 51
M  V30 56 1 28 52
M  V30 57 1 29 53
M  V30 58 1 30 54
M  V30 END BOND
M  V30 END CTAB
M  END
>  <Dataset>  (524) 
ChEMBL_Kinases

>  <Ligand_Instance>  (524) 
nan

>  <PDB_ID>  (524) 
nan

>  <Standardized_SMILES>  (524) 
O=C(Nc1cccnc1)c1n[nH]c2cnc(-c3cncc(CN4CCCCC4)c3)cc12

>  <Name>  (524) 
nan

>  <Pocket>  (524) 
nan

>  <ATP_Site>  (524) 
nan

>  <Peripheral>  (524) 
nan

>  <Num_H_Atoms_ProtBoundConf>  (524) 
nan

>  <Num_Resolved_Atoms>  (524) 
nan

>  <Num_Not_Resolved_Atoms>  (524) 
nan

$$$$
CHEMBL4793740
     RDKit          3D

  0  0  0  0  0  0  0  0  0  0999 V3000
M  V30 BEGIN CTAB
M  V30 COUNTS 52 57 0 0 0
M  V30 BEGIN ATOM
M  V30 1 C 1.395036 -5.644838 5.004239 0
M  V30 2 C 2.693681 -6.139913 5.010206 0
M  V30 3 C 3.647345 -5.511273 4.249055 0
M  V30 4 C 3.366417 -4.404072 3.476159 0
M  V30 5 N 4.034495 -3.597663 2.660727 0
M  V30 6 C 3.277522 -2.612734 2.120065 0
M  V30 7 C 3.866938 -1.654888 1.210373 0
M  V30 8 N 5.132001 -1.626201 0.821889 0
M  V30 9 N 5.380080 -0.642672 -0.008261 0
M  V30 10 C 4.260445 0.065735 -0.230352 0
M  V30 11 N 3.981797 1.144580 -0.981420 0
M  V30 12 C 2.720473 1.661428 -1.014586 0
M  V30 13 C 1.730561 1.047626 -0.254582 0
M  V30 14 C 0.407321 1.654113 -0.338393 0
M  V30 15 C 0.369625 3.037151 -0.537271 0
M  V30 16 N -0.823923 3.687410 -0.627508 0
M  V30 17 C -1.986731 2.998285 -0.525137 0
M  V30 18 C -2.006716 1.643840 -0.330370 0
M  V30 19 C -3.202703 0.788019 -0.208677 0
M  V30 20 N -3.567311 0.281225 -1.515641 0
M  V30 21 C -3.866646 1.340786 -2.454714 0
M  V30 22 C -5.229988 1.832849 -1.949709 0
M  V30 23 C -5.829197 0.625161 -1.252533 0
M  V30 24 C -4.810933 -0.434359 -1.507663 0
M  V30 25 C -0.803205 0.998435 -0.240795 0
M  V30 26 C 2.056817 -0.056999 0.502595 0
M  V30 27 C 3.328279 -0.584176 0.540751 0
M  V30 28 C 2.058027 -2.866923 2.669170 0
M  V30 29 C 2.062258 -3.958638 3.510096 0
M  V30 30 C 1.039026 -4.538870 4.254057 0
M  V30 31 H 0.648281 -6.148421 5.608809 0
M  V30 32 H 2.923996 -7.006730 5.612356 0
M  V30 33 H 4.645744 -5.886481 4.249632 0
M  V30 34 H 5.062532 -3.809493 2.526399 0
M  V30 35 H 6.334587 -0.486771 -0.404888 0
M  V30 36 H 2.615739 2.527112 -1.651564 0
M  V30 37 H 1.250767 3.679163 -0.632072 0
M  V30 38 H -2.934116 3.503117 -0.591878 0
M  V30 39 H -3.047468 -0.052805 0.509143 0
M  V30 40 H -4.006291 1.435675 0.218673 0
M  V30 41 H -4.018446 0.830415 -3.438324 0
M  V30 42 H -3.119610 2.124693 -2.527455 0
M  V30 43 H -5.087424 2.694258 -1.272354 0
M  V30 44 H -5.871347 2.138386 -2.798097 0
M  V30 45 H -6.820239 0.358640 -1.696786 0
M  V30 46 H -5.904952 0.821659 -0.167684 0
M  V30 47 H -4.839291 -1.266859 -0.780147 0
M  V30 48 H -4.932803 -0.879789 -2.528846 0
M  V30 49 H -0.708304 -0.077427 -0.086320 0
M  V30 50 H 1.276149 -0.510060 1.078058 0
M  V30 51 H 1.178188 -2.287329 2.476833 0
M  V30 52 H 0.037856 -4.129921 4.228432 0
M  V30 END ATOM
M  V30 BEGIN BOND
M  V30 1 2 1 2
M  V30 2 1 2 3
M  V30 3 2 3 4
M  V30 4 1 4 5
M  V30 5 1 5 6
M  V30 6 1 6 7
M  V30 7 2 7 8
M  V30 8 1 8 9
M  V30 9 1 9 10
M  V30 10 2 10 11
M  V30 11 1 11 12
M  V30 12 2 12 13
M  V30 13 1 13 14
M  V30 14 2 14 15
M  V30 15 1 15 16
M  V30 16 2 16 17
M  V30 17 1 17 18
M  V30 18 1 18 19
M  V30 19 1 19 20
M  V30 20 1 20 21
M  V30 21 1 21 22
M  V30 22 1 22 23
M  V30 23 1 23 24
M  V30 24 2 18 25
M  V30 25 1 13 26
M  V30 26 2 26 27
M  V30 27 2 6 28
M  V30 28 1 28 29
M  V30 29 2 29 30
M  V30 30 1 30 1
M  V30 31 1 29 4
M  V30 32 1 27 7
M  V30 33 1 27 10
M  V30 34 1 25 14
M  V30 35 1 24 20
M  V30 36 1 1 31
M  V30 37 1 2 32
M  V30 38 1 3 33
M  V30 39 1 5 34
M  V30 40 1 9 35
M  V30 41 1 12 36
M  V30 42 1 15 37
M  V30 43 1 17 38
M  V30 44 1 19 39
M  V30 45 1 19 40
M  V30 46 1 21 41
M  V30 47 1 21 42
M  V30 48 1 22 43
M  V30 49 1 22 44
M  V30 50 1 23 45
M  V30 51 1 23 46
M  V30 52 1 24 47
M  V30 53 1 24 48
M  V30 54 1 25 49
M  V30 55 1 26 50
M  V30 56 1 28 51
M  V30 57 1 30 52
M  V30 END BOND
M  V30 END CTAB
M  END
>  <Dataset>  (525) 
ChEMBL_Kinases

>  <Ligand_Instance>  (525) 
nan

>  <PDB_ID>  (525) 
nan

>  <Standardized_SMILES>  (525) 
c1ccc2[nH]c(-c3n[nH]c4ncc(-c5cncc(CN6CCCC6)c5)cc34)cc2c1

>  <Name>  (525) 
nan

>  <Pocket>  (525) 
nan

>  <ATP_Site>  (525) 
nan

>  <Peripheral>  (525) 
nan

>  <Num_H_Atoms_ProtBoundConf>  (525) 
nan

>  <Num_Resolved_Atoms>  (525) 
nan

>  <Num_Not_Resolved_Atoms>  (525) 
nan

$$$$
CHEMBL4793656
     RDKit          3D

  0  0  0  0  0  0  0  0  0  0999 V3000
M  V30 BEGIN CTAB
M  V30 COUNTS 69 75 0 0 0
M  V30 BEGIN ATOM
M  V30 1 C 5.598132 2.341712 0.928300 0
M  V30 2 N 4.351862 1.936213 0.345025 0
M  V30 3 C 3.866512 0.663318 0.809593 0
M  V30 4 C 3.532277 0.841902 2.283417 0
M  V30 5 N 2.411917 1.776001 2.345925 0
M  V30 6 C 1.833632 1.617708 3.607690 0
M  V30 7 N 1.941777 2.578266 4.569619 0
M  V30 8 C 1.429161 2.441230 5.798286 0
M  V30 9 C 0.772897 1.282885 6.077385 0
M  V30 10 C 0.572147 0.222484 5.233610 0
M  V30 11 N 0.004356 -1.018924 5.100561 0
M  V30 12 C 0.187205 -1.558039 3.839229 0
M  V30 13 C -0.455292 -2.836800 3.987061 0
M  V30 14 N -0.969678 -3.878735 4.075616 0
M  V30 15 N -1.509868 -4.862568 3.591685 0
M  V30 16 C -1.375334 -4.373178 2.363011 0
M  V30 17 C -1.778160 -4.949788 1.152080 0
M  V30 18 C -1.561309 -4.296053 -0.021925 0
M  V30 19 C -0.952942 -3.076203 -0.014242 0
M  V30 20 C -0.696240 -2.307306 -1.216258 0
M  V30 21 C 0.373164 -1.458186 -1.360983 0
M  V30 22 N 0.513043 -0.779290 -2.551972 0
M  V30 23 C -0.403173 -0.968496 -3.540331 0
M  V30 24 C -1.481906 -1.826740 -3.389595 0
M  V30 25 C -2.513914 -2.073590 -4.467113 0
M  V30 26 N -3.513206 -1.133750 -4.373758 0
M  V30 27 C -4.748698 -1.231878 -5.031729 0
M  V30 28 C -5.672181 -1.400822 -3.808901 0
M  V30 29 C -5.014944 -0.465440 -2.798224 0
M  V30 30 C -3.618709 -0.153662 -3.387194 0
M  V30 31 C -1.646465 -2.528824 -2.186877 0
M  V30 32 C -0.595524 -2.594539 1.215430 0
M  V30 33 C -0.726236 -3.117277 2.561744 0
M  V30 34 C 0.885299 -0.620133 3.204150 0
M  V30 35 C 1.146121 0.474562 3.989964 0
M  V30 36 C 2.131640 2.622222 1.194385 0
M  V30 37 C 3.379121 2.974264 0.432409 0
M  V30 38 H 6.019314 1.561164 1.587469 0
M  V30 39 H 6.374171 2.594852 0.147012 0
M  V30 40 H 5.496206 3.253304 1.574787 0
M  V30 41 H 4.611488 -0.108250 0.616839 0
M  V30 42 H 2.882853 0.492689 0.304162 0
M  V30 43 H 4.385448 1.333141 2.811628 0
M  V30 44 H 3.363702 -0.125814 2.724864 0
M  V30 45 H 1.491361 3.188418 6.567998 0
M  V30 46 H 0.334365 1.124598 7.067464 0
M  V30 47 H -0.433025 -1.236078 6.044201 0
M  V30 48 H -1.898522 -5.709941 4.025650 0
M  V30 49 H -2.263444 -5.933057 1.166818 0
M  V30 50 H -1.897908 -4.782318 -0.898426 0
M  V30 51 H 1.068294 -1.329755 -0.565169 0
M  V30 52 H -0.389555 -0.489216 -4.512262 0
M  V30 53 H -1.915993 -2.105414 -5.423010 0
M  V30 54 H -2.828466 -3.158341 -4.310733 0
M  V30 55 H -4.865634 -2.076099 -5.735594 0
M  V30 56 H -5.034540 -0.238854 -5.487724 0
M  V30 57 H -6.709434 -1.194992 -4.011541 0
M  V30 58 H -5.467317 -2.451120 -3.440444 0
M  V30 59 H -4.774461 -1.000273 -1.842416 0
M  V30 60 H -5.613941 0.426395 -2.649832 0
M  V30 61 H -3.666128 0.849594 -3.882815 0
M  V30 62 H -2.822607 -0.209743 -2.630776 0
M  V30 63 H -2.513742 -3.194820 -2.092335 0
M  V30 64 H -0.163657 -1.616962 1.055243 0
M  V30 65 H 1.203140 -0.790635 2.209601 0
M  V30 66 H 1.725280 3.584250 1.599144 0
M  V30 67 H 1.360704 2.177039 0.548700 0
M  V30 68 H 3.035606 3.179163 -0.619956 0
M  V30 69 H 3.818797 3.918749 0.798708 0
M  V30 END ATOM
M  V30 BEGIN BOND
M  V30 1 1 1 2
M  V30 2 1 2 3
M  V30 3 1 3 4
M  V30 4 1 4 5
M  V30 5 1 5 6
M  V30 6 2 6 7
M  V30 7 1 7 8
M  V30 8 2 8 9
M  V30 9 1 9 10
M  V30 10 1 10 11
M  V30 11 1 11 12
M  V30 12 1 12 13
M  V30 13 2 13 14
M  V30 14 1 14 15
M  V30 15 1 15 16
M  V30 16 2 16 17
M  V30 17 1 17 18
M  V30 18 2 18 19
M  V30 19 1 19 20
M  V30 20 2 20 21
M  V30 21 1 21 22
M  V30 22 2 22 23
M  V30 23 1 23 24
M  V30 24 1 24 25
M  V30 25 1 25 26
M  V30 26 1 26 27
M  V30 27 1 27 28
M  V30 28 1 28 29
M  V30 29 1 29 30
M  V30 30 2 24 31
M  V30 31 1 19 32
M  V30 32 2 32 33
M  V30 33 2 12 34
M  V30 34 1 34 35
M  V30 35 1 5 36
M  V30 36 1 36 37
M  V30 37 1 37 2
M  V30 38 1 35 6
M  V30 39 2 35 10
M  V30 40 1 33 13
M  V30 41 1 33 16
M  V30 42 1 31 20
M  V30 43 1 30 26
M  V30 44 1 1 38
M  V30 45 1 1 39
M  V30 46 1 1 40
M  V30 47 1 3 41
M  V30 48 1 3 42
M  V30 49 1 4 43
M  V30 50 1 4 44
M  V30 51 1 8 45
M  V30 52 1 9 46
M  V30 53 1 11 47
M  V30 54 1 15 48
M  V30 55 1 17 49
M  V30 56 1 18 50
M  V30 57 1 21 51
M  V30 58 1 23 52
M  V30 59 1 25 53
M  V30 60 1 25 54
M  V30 61 1 27 55
M  V30 62 1 27 56
M  V30 63 1 28 57
M  V30 64 1 28 58
M  V30 65 1 29 59
M  V30 66 1 29 60
M  V30 67 1 30 61
M  V30 68 1 30 62
M  V30 69 1 31 63
M  V30 70 1 32 64
M  V30 71 1 34 65
M  V30 72 1 36 66
M  V30 73 1 36 67
M  V30 74 1 37 68
M  V30 75 1 37 69
M  V30 END BOND
M  V30 END CTAB
M  END
>  <Dataset>  (526) 
ChEMBL_Kinases

>  <Ligand_Instance>  (526) 
nan

>  <PDB_ID>  (526) 
nan

>  <Standardized_SMILES>  (526) 
CN1CCN(c2nccc3[nH]c(-c4n[nH]c5ccc(-c6cncc(CN7CCCC7)c6)cc45)cc23)CC1

>  <Name>  (526) 
nan

>  <Pocket>  (526) 
nan

>  <ATP_Site>  (526) 
nan

>  <Peripheral>  (526) 
nan

>  <Num_H_Atoms_ProtBoundConf>  (526) 
nan

>  <Num_Resolved_Atoms>  (526) 
nan

>  <Num_Not_Resolved_Atoms>  (526) 
nan

$$$$
CHEMBL4793616
     RDKit          3D

  0  0  0  0  0  0  0  0  0  0999 V3000
M  V30 BEGIN CTAB
M  V30 COUNTS 79 84 0 0 0
M  V30 BEGIN ATOM
M  V30 1 C -1.380811 -3.556389 0.855140 0
M  V30 2 N -0.517275 -3.654258 -0.331590 0
M  V30 3 C 0.591240 -2.762770 -0.050826 0
M  V30 4 C -1.345746 -3.231456 -1.438682 0
M  V30 5 C -0.692281 -3.316714 -2.763611 0
M  V30 6 N 0.448413 -2.490504 -2.880149 0
M  V30 7 C 0.536992 -1.071889 -2.991647 0
M  V30 8 C 1.763657 -0.398232 -3.075411 0
M  V30 9 C 1.835072 0.960061 -3.224801 0
M  V30 10 F 3.001411 1.605262 -3.305008 0
M  V30 11 C 0.710965 1.745865 -3.301627 0
M  V30 12 C -0.528812 1.155169 -3.226191 0
M  V30 13 C -1.886511 1.668395 -3.325231 0
M  V30 14 C -2.292611 2.203673 -4.527198 0
M  V30 15 C -3.618534 2.606076 -4.591167 0
M  V30 16 C -4.465889 2.475631 -3.518093 0
M  V30 17 C -4.053143 1.940364 -2.316053 0
M  V30 18 N -4.593826 1.697436 -1.110356 0
M  V30 19 C -3.717932 1.158043 -0.228571 0
M  V30 20 C -4.168143 0.833029 1.104620 0
M  V30 21 N -5.415056 0.993680 1.571461 0
M  V30 22 N -5.509304 0.640312 2.838916 0
M  V30 23 C -4.313248 0.222543 3.283430 0
M  V30 24 C -3.938956 -0.217459 4.533672 0
M  V30 25 N -2.632994 -0.541791 4.654930 0
M  V30 26 C -1.754625 -0.445758 3.636433 0
M  V30 27 C -0.375118 -0.804484 3.930480 0
M  V30 28 C -0.061815 -1.218349 5.204082 0
M  V30 29 N 1.198207 -1.558824 5.600766 0
M  V30 30 C 2.208036 -1.486552 4.686944 0
M  V30 31 C 1.967902 -1.079059 3.387878 0
M  V30 32 N 3.068229 -1.018191 2.500765 0
M  V30 33 C 3.729487 -1.880429 1.622881 0
M  V30 34 O 3.520220 -3.073131 1.340815 0
M  V30 35 C 4.862884 -1.204719 0.940954 0
M  V30 36 C 4.323390 -0.021710 0.149016 0
M  V30 37 C 5.557741 -2.111580 -0.023658 0
M  V30 38 C 5.820932 -0.754386 1.991945 0
M  V30 39 C 0.676467 -0.748839 3.047476 0
M  V30 40 C -2.176227 -0.002064 2.402154 0
M  V30 41 C -3.485442 0.348587 2.190292 0
M  V30 42 C -2.571605 1.071747 -0.965900 0
M  V30 43 C -2.739772 1.541309 -2.250334 0
M  V30 44 C -0.576495 -0.227738 -3.074039 0
M  V30 45 H -2.390062 -3.881692 0.535132 0
M  V30 46 H -0.992840 -4.142039 1.701816 0
M  V30 47 H -1.408675 -2.493941 1.127675 0
M  V30 48 H 1.525127 -3.021501 -0.553622 0
M  V30 49 H 0.820176 -2.800759 1.058536 0
M  V30 50 H 0.246143 -1.713730 -0.204664 0
M  V30 51 H -1.735925 -2.211330 -1.171163 0
M  V30 52 H -2.278402 -3.861545 -1.471868 0
M  V30 53 H -1.413026 -3.108837 -3.598115 0
M  V30 54 H -0.366152 -4.390095 -2.899155 0
M  V30 55 H 1.410360 -2.951292 -2.901184 0
M  V30 56 H 2.689075 -0.976043 -3.019454 0
M  V30 57 H 0.612197 2.816222 -3.418426 0
M  V30 58 H -1.600938 2.290081 -5.344649 0
M  V30 59 H -3.925751 3.027516 -5.548615 0
M  V30 60 H -5.475174 2.793969 -3.604094 0
M  V30 61 H -5.611168 1.954648 -1.012375 0
M  V30 62 H -6.411738 0.708696 3.335352 0
M  V30 63 H -4.639986 -0.295945 5.353524 0
M  V30 64 H -0.774420 -1.314221 6.009200 0
M  V30 65 H 3.223122 -1.757644 4.995056 0
M  V30 66 H 3.295705 -0.020807 2.694112 0
M  V30 67 H 4.987695 0.206068 -0.686126 0
M  V30 68 H 3.312613 -0.230828 -0.246585 0
M  V30 69 H 4.308082 0.870596 0.809846 0
M  V30 70 H 5.515652 -1.736216 -1.080765 0
M  V30 71 H 5.205480 -3.160078 0.032163 0
M  V30 72 H 6.637320 -2.138445 0.217868 0
M  V30 73 H 5.439987 0.206390 2.406492 0
M  V30 74 H 6.866218 -0.648842 1.607888 0
M  V30 75 H 5.817991 -1.502226 2.805150 0
M  V30 76 H 0.462709 -0.427192 2.036574 0
M  V30 77 H -1.480121 0.075202 1.588760 0
M  V30 78 H -1.663473 0.687624 -0.592709 0
M  V30 79 H -1.496421 -0.817954 -3.012679 0
M  V30 END ATOM
M  V30 BEGIN BOND
M  V30 1 1 1 2
M  V30 2 1 2 3
M  V30 3 1 2 4
M  V30 4 1 4 5
M  V30 5 1 5 6
M  V30 6 1 6 7
M  V30 7 2 7 8
M  V30 8 1 8 9
M  V30 9 1 9 10
M  V30 10 2 9 11
M  V30 11 1 11 12
M  V30 12 1 12 13
M  V30 13 2 13 14
M  V30 14 1 14 15
M  V30 15 2 15 16
M  V30 16 1 16 17
M  V30 17 1 17 18
M  V30 18 1 18 19
M  V30 19 1 19 20
M  V30 20 2 20 21
M  V30 21 1 21 22
M  V30 22 1 22 23
M  V30 23 2 23 24
M  V30 24 1 24 25
M  V30 25 2 25 26
M  V30 26 1 26 27
M  V30 27 2 27 28
M  V30 28 1 28 29
M  V30 29 2 29 30
M  V30 30 1 30 31
M  V30 31 1 31 32
M  V30 32 1 32 33
M  V30 33 2 33 34
M  V30 34 1 33 35
M  V30 35 1 35 36
M  V30 36 1 35 37
M  V30 37 1 35 38
M  V30 38 2 31 39
M  V30 39 1 26 40
M  V30 40 2 40 41
M  V30 41 2 19 42
M  V30 42 1 42 43
M  V30 43 2 12 44
M  V30 44 1 44 7
M  V30 45 1 43 13
M  V30 46 2 43 17
M  V30 47 1 41 20
M  V30 48 1 41 23
M  V30 49 1 39 27
M  V30 50 1 1 45
M  V30 51 1 1 46
M  V30 52 1 1 47
M  V30 53 1 3 48
M  V30 54 1 3 49
M  V30 55 1 3 50
M  V30 56 1 4 51
M  V30 57 1 4 52
M  V30 58 1 5 53
M  V30 59 1 5 54
M  V30 60 1 6 55
M  V30 61 1 8 56
M  V30 62 1 11 57
M  V30 63 1 14 58
M  V30 64 1 15 59
M  V30 65 1 16 60
M  V30 66 1 18 61
M  V30 67 1 22 62
M  V30 68 1 24 63
M  V30 69 1 28 64
M  V30 70 1 30 65
M  V30 71 1 32 66
M  V30 72 1 36 67
M  V30 73 1 36 68
M  V30 74 1 36 69
M  V30 75 1 37 70
M  V30 76 1 37 71
M  V30 77 1 37 72
M  V30 78 1 38 73
M  V30 79 1 38 74
M  V30 80 1 38 75
M  V30 81 1 39 76
M  V30 82 1 40 77
M  V30 83 1 42 78
M  V30 84 1 44 79
M  V30 END BOND
M  V30 END CTAB
M  END
>  <Dataset>  (527) 
ChEMBL_Kinases

>  <Ligand_Instance>  (527) 
nan

>  <PDB_ID>  (527) 
nan

>  <Standardized_SMILES>  (527) 
CN(C)CCNc1cc(F)cc(-c2cccc3[nH]c(-c4n[nH]c5cnc(-c6cncc(NC(=O)C(C)(C)C)c6)cc45)cc23)c1

>  <Name>  (527) 
nan

>  <Pocket>  (527) 
nan

>  <ATP_Site>  (527) 
nan

>  <Peripheral>  (527) 
nan

>  <Num_H_Atoms_ProtBoundConf>  (527) 
nan

>  <Num_Resolved_Atoms>  (527) 
nan

>  <Num_Not_Resolved_Atoms>  (527) 
nan

$$$$
CHEMBL4793606
     RDKit          3D

  0  0  0  0  0  0  0  0  0  0999 V3000
M  V30 BEGIN CTAB
M  V30 COUNTS 43 48 0 0 0
M  V30 BEGIN ATOM
M  V30 1 C 3.558353 -3.739569 4.039501 0
M  V30 2 C 2.335335 -4.352421 3.818261 0
M  V30 3 N 1.484560 -4.030307 2.829502 0
M  V30 4 C 1.771594 -3.048770 1.947023 0
M  V30 5 C 2.993828 -2.409218 2.137901 0
M  V30 6 C 3.348272 -1.334583 1.201604 0
M  V30 7 C 4.639581 -1.022615 0.825176 0
M  V30 8 N 4.904919 -0.025027 -0.038287 0
M  V30 9 C 3.939091 0.733516 -0.592037 0
M  V30 10 N 3.855859 1.768168 -1.456043 0
M  V30 11 N 2.568333 2.102813 -1.624490 0
M  V30 12 C 1.792098 1.304987 -0.884224 0
M  V30 13 C 0.337442 1.397240 -0.833553 0
M  V30 14 N -0.501508 0.628829 -0.111835 0
M  V30 15 C -1.758421 1.040785 -0.347430 0
M  V30 16 C -2.938186 0.562582 0.160001 0
M  V30 17 C -3.077193 -0.555243 1.114678 0
M  V30 18 C -2.092659 -1.279092 1.638908 0
M  V30 19 C -2.338441 -2.292335 2.515283 0
M  V30 20 C -3.758797 -2.490504 2.807122 0
M  V30 21 S -4.569524 -1.151196 1.748441 0
M  V30 22 C -4.094188 1.181430 -0.258830 0
M  V30 23 C -4.069537 2.233651 -1.147482 0
M  V30 24 C -2.878065 2.708502 -1.653211 0
M  V30 25 C -1.717384 2.092100 -1.236827 0
M  V30 26 N -0.403279 2.268862 -1.502228 0
M  V30 27 C 2.632014 0.432513 -0.223462 0
M  V30 28 C 2.318064 -0.581082 0.657770 0
M  V30 29 C 3.873898 -2.734436 3.151778 0
M  V30 30 H 4.168652 -4.072471 4.862487 0
M  V30 31 H 2.039556 -5.161801 4.502218 0
M  V30 32 H 1.079234 -2.808460 1.166729 0
M  V30 33 H 5.426348 -1.623584 1.261899 0
M  V30 34 H 4.749682 2.154105 -1.859723 0
M  V30 35 H -1.042271 -1.102622 1.397787 0
M  V30 36 H -1.659420 -2.961661 3.020358 0
M  V30 37 H -4.129520 -3.326105 3.544629 0
M  V30 38 H -5.063447 0.854137 0.102999 0
M  V30 39 H -4.983879 2.710184 -1.467975 0
M  V30 40 H -2.832993 3.539008 -2.356827 0
M  V30 41 H -0.038398 3.016521 -2.164438 0
M  V30 42 H 1.290733 -0.783602 0.918818 0
M  V30 43 H 4.814631 -2.222614 3.276821 0
M  V30 END ATOM
M  V30 BEGIN BOND
M  V30 1 2 1 2
M  V30 2 1 2 3
M  V30 3 2 3 4
M  V30 4 1 4 5
M  V30 5 1 5 6
M  V30 6 2 6 7
M  V30 7 1 7 8
M  V30 8 2 8 9
M  V30 9 1 9 10
M  V30 10 1 10 11
M  V30 11 2 11 12
M  V30 12 1 12 13
M  V30 13 2 13 14
M  V30 14 1 14 15
M  V30 15 2 15 16
M  V30 16 1 16 17
M  V30 17 2 17 18
M  V30 18 1 18 19
M  V30 19 2 19 20
M  V30 20 1 20 21
M  V30 21 1 16 22
M  V30 22 2 22 23
M  V30 23 1 23 24
M  V30 24 2 24 25
M  V30 25 1 25 26
M  V30 26 1 12 27
M  V30 27 2 27 28
M  V30 28 2 5 29
M  V30 29 1 29 1
M  V30 30 1 28 6
M  V30 31 1 27 9
M  V30 32 1 26 13
M  V30 33 1 25 15
M  V30 34 1 21 17
M  V30 35 1 1 30
M  V30 36 1 2 31
M  V30 37 1 4 32
M  V30 38 1 7 33
M  V30 39 1 10 34
M  V30 40 1 18 35
M  V30 41 1 19 36
M  V30 42 1 20 37
M  V30 43 1 22 38
M  V30 44 1 23 39
M  V30 45 1 24 40
M  V30 46 1 26 41
M  V30 47 1 28 42
M  V30 48 1 29 43
M  V30 END BOND
M  V30 END CTAB
M  END
>  <Dataset>  (528) 
ChEMBL_Kinases

>  <Ligand_Instance>  (528) 
nan

>  <PDB_ID>  (528) 
nan

>  <Standardized_SMILES>  (528) 
c1cncc(-c2cnc3[nH]nc(-c4nc5c(-c6cccs6)cccc5[nH]4)c3c2)c1

>  <Name>  (528) 
nan

>  <Pocket>  (528) 
nan

>  <ATP_Site>  (528) 
nan

>  <Peripheral>  (528) 
nan

>  <Num_H_Atoms_ProtBoundConf>  (528) 
nan

>  <Num_Resolved_Atoms>  (528) 
nan

>  <Num_Not_Resolved_Atoms>  (528) 
nan

$$$$
CHEMBL412142
     RDKit          3D

  0  0  0  0  0  0  0  0  0  0999 V3000
M  V30 BEGIN CTAB
M  V30 COUNTS 50 53 0 0 0
M  V30 BEGIN ATOM
M  V30 1 C 4.996717 -3.712744 -2.470690 0
M  V30 2 C 3.754653 -3.578921 -1.632447 0
M  V30 3 C 2.708491 -4.442068 -1.408601 0
M  V30 4 N 1.844576 -3.838888 -0.597734 0
M  V30 5 C 2.263631 -2.610254 -0.269573 0
M  V30 6 C 1.675013 -1.588725 0.576339 0
M  V30 7 C 2.386752 -0.428684 0.755712 0
M  V30 8 N 1.824278 0.548162 1.530118 0
M  V30 9 C 0.618845 0.359889 2.087039 0
M  V30 10 N 0.101529 1.463799 2.841271 0
M  V30 11 C 0.967717 2.608062 3.013705 0
M  V30 12 C 0.206800 3.842329 3.433539 0
M  V30 13 N -0.772068 4.227267 2.433555 0
M  V30 14 C -1.847774 3.553014 1.774327 0
M  V30 15 C -1.702759 3.254964 0.410902 0
M  V30 16 C -2.715669 2.582102 -0.268668 0
M  V30 17 C -3.850754 2.220343 0.423762 0
M  V30 18 C -4.911357 1.535576 -0.253633 0
M  V30 19 N -5.784207 0.975360 -0.800756 0
M  V30 20 C -3.945921 2.538234 1.779557 0
M  V30 21 N -2.964130 3.188685 2.429317 0
M  V30 22 N -0.105075 -0.781072 1.928883 0
M  V30 23 C 0.411980 -1.791995 1.161223 0
M  V30 24 C -0.325999 -3.034285 0.903040 0
M  V30 25 C -0.627233 -4.165432 1.622690 0
M  V30 26 C -1.380266 -5.141482 1.030527 0
M  V30 27 C -1.856122 -5.056276 -0.251347 0
M  V30 28 Cl -2.806708 -6.421555 -0.823525 0
M  V30 29 C -1.562343 -3.930890 -0.982068 0
M  V30 30 C -0.792802 -2.909611 -0.406269 0
M  V30 31 Cl -0.555236 -1.576355 -1.551082 0
M  V30 32 N 3.439198 -2.467702 -0.913855 0
M  V30 33 H 5.193515 -2.676454 -2.884238 0
M  V30 34 H 4.769897 -4.323596 -3.365955 0
M  V30 35 H 5.878585 -4.021071 -1.913374 0
M  V30 36 H 2.660339 -5.439060 -1.850009 0
M  V30 37 H 3.342348 -0.186684 0.353908 0
M  V30 38 H -0.871059 1.380878 3.229861 0
M  V30 39 H 1.612340 2.359763 3.910831 0
M  V30 40 H 1.632111 2.771199 2.168912 0
M  V30 41 H 0.951676 4.660988 3.448899 0
M  V30 42 H -0.207569 3.733755 4.436392 0
M  V30 43 H -0.820682 5.192957 1.986701 0
M  V30 44 H -0.822496 3.524049 -0.183153 0
M  V30 45 H -2.592125 2.359100 -1.332744 0
M  V30 46 H -4.870801 2.225842 2.291300 0
M  V30 47 H -0.188720 -4.073831 2.595274 0
M  V30 48 H -1.566621 -5.997944 1.672640 0
M  V30 49 H -1.975096 -3.927067 -2.000694 0
M  V30 50 H 4.082124 -1.625106 -0.900544 0
M  V30 END ATOM
M  V30 BEGIN BOND
M  V30 1 1 1 2
M  V30 2 2 2 3
M  V30 3 1 3 4
M  V30 4 2 4 5
M  V30 5 1 5 6
M  V30 6 2 6 7
M  V30 7 1 7 8
M  V30 8 2 8 9
M  V30 9 1 9 10
M  V30 10 1 10 11
M  V30 11 1 11 12
M  V30 12 1 12 13
M  V30 13 1 13 14
M  V30 14 2 14 15
M  V30 15 1 15 16
M  V30 16 2 16 17
M  V30 17 1 17 18
M  V30 18 3 18 19
M  V30 19 1 17 20
M  V30 20 2 20 21
M  V30 21 1 9 22
M  V30 22 2 22 23
M  V30 23 1 23 24
M  V30 24 2 24 25
M  V30 25 1 25 26
M  V30 26 2 26 27
M  V30 27 1 27 28
M  V30 28 1 27 29
M  V30 29 2 29 30
M  V30 30 1 30 31
M  V30 31 1 5 32
M  V30 32 1 32 2
M  V30 33 1 23 6
M  V30 34 1 30 24
M  V30 35 1 21 14
M  V30 36 1 1 33
M  V30 37 1 1 34
M  V30 38 1 1 35
M  V30 39 1 3 36
M  V30 40 1 7 37
M  V30 41 1 10 38
M  V30 42 1 11 39
M  V30 43 1 11 40
M  V30 44 1 12 41
M  V30 45 1 12 42
M  V30 46 1 13 43
M  V30 47 1 15 44
M  V30 48 1 16 45
M  V30 49 1 20 46
M  V30 50 1 25 47
M  V30 51 1 26 48
M  V30 52 1 29 49
M  V30 53 1 32 50
M  V30 END BOND
M  V30 END CTAB
M  END
>  <Dataset>  (529) 
ChEMBL_Kinases

>  <Ligand_Instance>  (529) 
nan

>  <PDB_ID>  (529) 
nan

>  <Standardized_SMILES>  (529) 
Cc1cnc(-c2cnc(NCCNc3ccc(C#N)cn3)nc2-c2ccc(Cl)cc2Cl)[nH]1

>  <Name>  (529) 
LADUVIGLUSIB

>  <Pocket>  (529) 
nan

>  <ATP_Site>  (529) 
nan

>  <Peripheral>  (529) 
nan

>  <Num_H_Atoms_ProtBoundConf>  (529) 
nan

>  <Num_Resolved_Atoms>  (529) 
nan

>  <Num_Not_Resolved_Atoms>  (529) 
nan

$$$$
CHEMBL4105379
     RDKit          3D

  0  0  0  0  0  0  0  0  0  0999 V3000
M  V30 BEGIN CTAB
M  V30 COUNTS 38 41 0 0 0
M  V30 BEGIN ATOM
M  V30 1 N 0.640024 -4.178980 2.717952 0
M  V30 2 C 1.136843 -4.587685 1.448954 0
M  V30 3 O 1.366191 -5.791806 1.260326 0
M  V30 4 C 1.345817 -3.551952 0.442838 0
M  V30 5 C 1.827798 -3.962612 -0.782736 0
M  V30 6 C 2.025561 -2.982515 -1.734867 0
M  V30 7 Cl 2.636358 -3.431545 -3.315954 0
M  V30 8 C 1.742862 -1.642735 -1.445854 0
M  V30 9 C 1.855316 -0.523868 -2.206591 0
M  V30 10 Cl 2.421651 -0.451991 -3.863343 0
M  V30 11 C 1.430726 0.506899 -1.388435 0
M  V30 12 I 1.391890 2.485722 -2.044384 0
M  V30 13 N 1.067287 0.078635 -0.176045 0
M  V30 14 C 0.576834 0.730672 0.980475 0
M  V30 15 C -0.433597 -0.230888 1.637606 0
M  V30 16 N -1.576426 0.432690 2.178364 0
M  V30 17 C -2.341475 1.042841 1.107069 0
M  V30 18 C -1.420951 1.808915 0.155259 0
M  V30 19 C -0.113288 2.011426 0.868537 0
M  V30 20 C -0.420915 2.475123 2.308614 0
M  V30 21 C -1.228848 1.501495 3.084020 0
M  V30 22 C 1.270571 -1.273550 -0.231938 0
M  V30 23 N 1.092088 -2.260189 0.667315 0
M  V30 24 H -0.400304 -4.318216 2.548669 0
M  V30 25 H 0.890124 -3.826963 3.663486 0
M  V30 26 H 2.034246 -5.022447 -0.961969 0
M  V30 27 H 1.370189 0.854129 1.779692 0
M  V30 28 H 0.054052 -0.849214 2.426631 0
M  V30 29 H -0.857074 -0.906022 0.834350 0
M  V30 30 H -2.958042 0.306131 0.574864 0
M  V30 31 H -3.058868 1.790300 1.519465 0
M  V30 32 H -1.250397 1.067354 -0.679929 0
M  V30 33 H -1.887418 2.741929 -0.205638 0
M  V30 34 H 0.469760 2.890449 0.523165 0
M  V30 35 H 0.583158 2.628378 2.773379 0
M  V30 36 H -0.884597 3.478931 2.219923 0
M  V30 37 H -0.737589 1.147219 4.016536 0
M  V30 38 H -2.184834 1.992803 3.382374 0
M  V30 END ATOM
M  V30 BEGIN BOND
M  V30 1 1 1 2
M  V30 2 2 2 3
M  V30 3 1 2 4
M  V30 4 2 4 5
M  V30 5 1 5 6
M  V30 6 1 6 7
M  V30 7 2 6 8
M  V30 8 1 8 9
M  V30 9 1 9 10
M  V30 10 2 9 11
M  V30 11 1 11 12
M  V30 12 1 11 13
M  V30 13 1 13 14
M  V30 14 1 14 15
M  V30 15 1 15 16
M  V30 16 1 16 17
M  V30 17 1 17 18
M  V30 18 1 18 19
M  V30 19 1 19 20
M  V30 20 1 20 21
M  V30 21 1 13 22
M  V30 22 2 22 23
M  V30 23 1 23 4
M  V30 24 1 22 8
M  V30 25 1 19 14
M  V30 26 1 21 16
M  V30 27 1 1 24
M  V30 28 1 1 25
M  V30 29 1 5 26
M  V30 30 1 14 27
M  V30 31 1 15 28
M  V30 32 1 15 29
M  V30 33 1 17 30
M  V30 34 1 17 31
M  V30 35 1 18 32
M  V30 36 1 18 33
M  V30 37 1 19 34
M  V30 38 1 20 35
M  V30 39 1 20 36
M  V30 40 1 21 37
M  V30 41 1 21 38
M  V30 END BOND
M  V30 END CTAB
M  END
>  <Dataset>  (530) 
ChEMBL_Kinases

>  <Ligand_Instance>  (530) 
nan

>  <PDB_ID>  (530) 
nan

>  <Standardized_SMILES>  (530) 
NC(=O)c1cc(Cl)c2c(Cl)c(I)n(C3CN4CCC3CC4)c2n1

>  <Name>  (530) 
nan

>  <Pocket>  (530) 
nan

>  <ATP_Site>  (530) 
nan

>  <Peripheral>  (530) 
nan

>  <Num_H_Atoms_ProtBoundConf>  (530) 
nan

>  <Num_Resolved_Atoms>  (530) 
nan

>  <Num_Not_Resolved_Atoms>  (530) 
nan

$$$$
CHEMBL3393606
     RDKit          3D

  0  0  0  0  0  0  0  0  0  0999 V3000
M  V30 BEGIN CTAB
M  V30 COUNTS 64 67 0 0 0
M  V30 BEGIN ATOM
M  V30 1 C 6.582380 -4.077110 6.328308 0
M  V30 2 N 6.327563 -3.738283 4.914521 0
M  V30 3 C 7.630241 -3.939195 4.258528 0
M  V30 4 C 6.098986 -2.307490 4.936656 0
M  V30 5 C 5.753486 -1.714374 3.643002 0
M  V30 6 C 4.558754 -1.109099 3.613193 0
M  V30 7 C 3.730607 -0.376490 2.630488 0
M  V30 8 O 2.579838 0.184176 2.683021 0
M  V30 9 N 4.178831 -0.163622 1.274871 0
M  V30 10 C 3.081598 0.576857 0.689354 0
M  V30 11 C 2.080770 -0.224678 0.137705 0
M  V30 12 C 1.028965 0.472384 -0.414162 0
M  V30 13 C 0.891962 1.844940 -0.461210 0
M  V30 14 C -0.234676 2.572726 -1.041395 0
M  V30 15 O -0.231055 3.827047 -1.032783 0
M  V30 16 N -1.363930 1.945072 -1.628571 0
M  V30 17 C -2.503511 2.515112 -2.209055 0
M  V30 18 C -2.788673 3.836975 -2.399598 0
M  V30 19 C -3.948462 4.311188 -2.961229 0
M  V30 20 C -4.928419 3.434091 -3.380838 0
M  V30 21 C -4.673380 2.116576 -3.204674 0
M  V30 22 N -5.660326 1.143108 -3.600841 0
M  V30 23 C -5.379085 -0.247673 -3.505196 0
M  V30 24 N -5.017063 -0.965415 -4.591558 0
M  V30 25 C -4.735566 -2.290935 -4.493200 0
M  V30 26 C -4.844790 -2.830774 -3.234083 0
M  V30 27 C -5.210623 -2.131835 -2.100782 0
M  V30 28 C -5.311677 -2.690023 -0.778153 0
M  V30 29 C -5.668798 -1.889772 0.278883 0
M  V30 30 C -5.773377 -2.387840 1.579629 0
M  V30 31 C -5.504661 -3.730023 1.779570 0
M  V30 32 N -5.158660 -4.500382 0.746765 0
M  V30 33 C -5.052701 -4.036579 -0.512872 0
M  V30 34 N -5.464088 -0.844738 -2.307846 0
M  V30 35 C -3.505368 1.662073 -2.640125 0
M  V30 36 C 1.932939 2.590901 0.110492 0
M  V30 37 C 3.018399 1.954658 0.680545 0
M  V30 38 H 7.375633 -3.404080 6.707958 0
M  V30 39 H 6.884698 -5.119747 6.452755 0
M  V30 40 H 5.667490 -3.819912 6.923028 0
M  V30 41 H 8.256583 -3.083516 4.536037 0
M  V30 42 H 7.431652 -3.918572 3.171751 0
M  V30 43 H 8.060735 -4.917200 4.563282 0
M  V30 44 H 5.385084 -2.116178 5.732333 0
M  V30 45 H 7.080887 -1.872968 5.288687 0
M  V30 46 H 6.132146 -1.578692 2.648241 0
M  V30 47 H 3.909304 -1.078370 4.513941 0
M  V30 48 H 5.104180 -0.519739 0.938381 0
M  V30 49 H 2.107676 -1.303931 0.131209 0
M  V30 50 H 0.245859 -0.137076 -0.843852 0
M  V30 51 H -1.277379 0.905433 -1.594721 0
M  V30 52 H -2.085239 4.569079 -2.104465 0
M  V30 53 H -4.132593 5.384464 -3.091905 0
M  V30 54 H -5.856196 3.712725 -3.825069 0
M  V30 55 H -6.591562 1.394951 -3.962244 0
M  V30 56 H -4.437228 -2.918184 -5.329871 0
M  V30 57 H -4.623529 -3.886654 -3.145989 0
M  V30 58 H -5.867881 -0.863168 0.076412 0
M  V30 59 H -6.060870 -1.708460 2.393444 0
M  V30 60 H -5.575760 -4.147121 2.777335 0
M  V30 61 H -4.766505 -4.716788 -1.301038 0
M  V30 62 H -3.385555 0.578919 -2.536686 0
M  V30 63 H 1.869526 3.675165 0.094185 0
M  V30 64 H 3.842882 2.512689 1.133219 0
M  V30 END ATOM
M  V30 BEGIN BOND
M  V30 1 1 1 2
M  V30 2 1 2 3
M  V30 3 1 2 4
M  V30 4 1 4 5
M  V30 5 2 5 6
M  V30 6 1 6 7
M  V30 7 2 7 8
M  V30 8 1 7 9
M  V30 9 1 9 10
M  V30 10 2 10 11
M  V30 11 1 11 12
M  V30 12 2 12 13
M  V30 13 1 13 14
M  V30 14 2 14 15
M  V30 15 1 14 16
M  V30 16 1 16 17
M  V30 17 2 17 18
M  V30 18 1 18 19
M  V30 19 2 19 20
M  V30 20 1 20 21
M  V30 21 1 21 22
M  V30 22 1 22 23
M  V30 23 2 23 24
M  V30 24 1 24 25
M  V30 25 2 25 26
M  V30 26 1 26 27
M  V30 27 1 27 28
M  V30 28 2 28 29
M  V30 29 1 29 30
M  V30 30 2 30 31
M  V30 31 1 31 32
M  V30 32 2 32 33
M  V30 33 2 27 34
M  V30 34 2 21 35
M  V30 35 1 13 36
M  V30 36 2 36 37
M  V30 37 1 37 10
M  V30 38 1 35 17
M  V30 39 1 34 23
M  V30 40 1 33 28
M  V30 41 1 1 38
M  V30 42 1 1 39
M  V30 43 1 1 40
M  V30 44 1 3 41
M  V30 45 1 3 42
M  V30 46 1 3 43
M  V30 47 1 4 44
M  V30 48 1 4 45
M  V30 49 1 5 46
M  V30 50 1 6 47
M  V30 51 1 9 48
M  V30 52 1 11 49
M  V30 53 1 12 50
M  V30 54 1 16 51
M  V30 55 1 18 52
M  V30 56 1 19 53
M  V30 57 1 20 54
M  V30 58 1 22 55
M  V30 59 1 25 56
M  V30 60 1 26 57
M  V30 61 1 29 58
M  V30 62 1 30 59
M  V30 63 1 31 60
M  V30 64 1 33 61
M  V30 65 1 35 62
M  V30 66 1 36 63
M  V30 67 1 37 64
M  V30 END BOND
M  V30 END CTAB
M  END
>  <Dataset>  (531) 
ChEMBL_Kinases

>  <Ligand_Instance>  (531) 
nan

>  <PDB_ID>  (531) 
nan

>  <Standardized_SMILES>  (531) 
CN(C)C/C=C/C(=O)Nc1ccc(C(=O)Nc2cccc(Nc3nccc(-c4cccnc4)n3)c2)cc1

>  <Name>  (531) 
nan

>  <Pocket>  (531) 
nan

>  <ATP_Site>  (531) 
nan

>  <Peripheral>  (531) 
nan

>  <Num_H_Atoms_ProtBoundConf>  (531) 
nan

>  <Num_Resolved_Atoms>  (531) 
nan

>  <Num_Not_Resolved_Atoms>  (531) 
nan

$$$$
CHEMBL3393605
     RDKit          3D

  0  0  0  0  0  0  0  0  0  0999 V3000
M  V30 BEGIN CTAB
M  V30 COUNTS 67 70 0 0 0
M  V30 BEGIN ATOM
M  V30 1 C 7.320535 -2.798778 0.654816 0
M  V30 2 C 6.020056 -2.469419 0.045247 0
M  V30 3 C 5.936242 -2.429583 -1.347671 0
M  V30 4 C 4.702853 -2.125569 -1.893620 0
M  V30 5 C 3.589469 -1.873533 -1.130087 0
M  V30 6 N 2.238727 -1.504853 -1.459095 0
M  V30 7 C 1.706117 -0.167060 -1.358919 0
M  V30 8 O 2.365382 0.833077 -0.965692 0
M  V30 9 C 0.299795 0.086030 -1.723223 0
M  V30 10 C -0.407945 -0.680631 -2.624733 0
M  V30 11 C -1.722506 -0.446244 -2.894876 0
M  V30 12 C -2.411459 0.571338 -2.277988 0
M  V30 13 N -3.762883 1.010411 -2.414548 0
M  V30 14 C -4.505437 0.060937 -1.648621 0
M  V30 15 O -3.773443 -0.802281 -1.150569 0
M  V30 16 C -5.973002 0.257428 -1.578981 0
M  V30 17 C -6.472747 -0.777775 -0.851894 0
M  V30 18 C -7.767619 -1.310727 -0.336197 0
M  V30 19 N -8.092694 -2.623866 -0.790391 0
M  V30 20 C -7.234387 -3.667970 -0.294313 0
M  V30 21 C -9.450069 -2.922934 -0.393796 0
M  V30 22 C -1.715991 1.359563 -1.364615 0
M  V30 23 C -0.371613 1.109674 -1.097584 0
M  V30 24 C 3.665376 -1.913272 0.277019 0
M  V30 25 C 4.899955 -2.214790 0.826921 0
M  V30 26 N 5.138161 -2.246762 2.232534 0
M  V30 27 C 4.027780 -1.873579 3.074513 0
M  V30 28 N 3.026232 -2.474145 3.795380 0
M  V30 29 C 2.163585 -1.691063 4.453673 0
M  V30 30 C 2.232870 -0.324138 4.436330 0
M  V30 31 C 3.226862 0.291121 3.713598 0
M  V30 32 C 3.262888 1.751204 3.744462 0
M  V30 33 C 2.397439 2.600663 4.385674 0
M  V30 34 C 2.642634 3.985350 4.296704 0
M  V30 35 C 3.714403 4.434463 3.587295 0
M  V30 36 N 4.558738 3.597435 2.959019 0
M  V30 37 C 4.355711 2.246994 3.020818 0
M  V30 38 N 4.072135 -0.536195 3.071782 0
M  V30 39 H 7.141910 -3.582404 1.427577 0
M  V30 40 H 7.712454 -1.897501 1.213100 0
M  V30 41 H 8.022433 -3.155132 -0.082194 0
M  V30 42 H 6.761854 -2.610664 -2.052560 0
M  V30 43 H 4.465521 -2.061375 -2.952434 0
M  V30 44 H 1.570209 -2.231828 -1.793474 0
M  V30 45 H 0.082724 -1.485377 -3.125937 0
M  V30 46 H -2.340426 -1.002431 -3.580003 0
M  V30 47 H -4.298069 1.772166 -2.882613 0
M  V30 48 H -6.955870 0.675193 -1.706344 0
M  V30 49 H -5.827494 -1.599321 -0.424072 0
M  V30 50 H -7.711741 -1.315412 0.771253 0
M  V30 51 H -8.578380 -0.594788 -0.634569 0
M  V30 52 H -7.832171 -4.628537 -0.155750 0
M  V30 53 H -6.448188 -3.958402 -1.044215 0
M  V30 54 H -6.774661 -3.488428 0.685501 0
M  V30 55 H -9.564333 -4.030775 -0.436583 0
M  V30 56 H -9.631939 -2.658535 0.677291 0
M  V30 57 H -10.208498 -2.403069 -0.986385 0
M  V30 58 H -2.112150 2.191888 -0.810263 0
M  V30 59 H 0.214503 1.715191 -0.372667 0
M  V30 60 H 2.889709 -1.734076 1.012024 0
M  V30 61 H 6.022307 -2.506991 2.706690 0
M  V30 62 H 1.458551 -2.334971 4.960709 0
M  V30 63 H 1.462119 0.127703 5.027040 0
M  V30 64 H 1.601176 2.138014 4.910795 0
M  V30 65 H 1.945266 4.619114 4.807113 0
M  V30 66 H 3.922704 5.510408 3.499471 0
M  V30 67 H 5.119086 1.709602 2.467904 0
M  V30 END ATOM
M  V30 BEGIN BOND
M  V30 1 1 1 2
M  V30 2 2 2 3
M  V30 3 1 3 4
M  V30 4 2 4 5
M  V30 5 1 5 6
M  V30 6 1 6 7
M  V30 7 2 7 8
M  V30 8 1 7 9
M  V30 9 2 9 10
M  V30 10 1 10 11
M  V30 11 2 11 12
M  V30 12 1 12 13
M  V30 13 1 13 14
M  V30 14 2 14 15
M  V30 15 1 14 16
M  V30 16 2 16 17
M  V30 17 1 17 18
M  V30 18 1 18 19
M  V30 19 1 19 20
M  V30 20 1 19 21
M  V30 21 1 12 22
M  V30 22 2 22 23
M  V30 23 1 5 24
M  V30 24 2 24 25
M  V30 25 1 25 26
M  V30 26 1 26 27
M  V30 27 2 27 28
M  V30 28 1 28 29
M  V30 29 2 29 30
M  V30 30 1 30 31
M  V30 31 1 31 32
M  V30 32 2 32 33
M  V30 33 1 33 34
M  V30 34 2 34 35
M  V30 35 1 35 36
M  V30 36 2 36 37
M  V30 37 2 31 38
M  V30 38 1 25 2
M  V30 39 1 38 27
M  V30 40 1 23 9
M  V30 41 1 37 32
M  V30 42 1 1 39
M  V30 43 1 1 40
M  V30 44 1 1 41
M  V30 45 1 3 42
M  V30 46 1 4 43
M  V30 47 1 6 44
M  V30 48 1 10 45
M  V30 49 1 11 46
M  V30 50 1 13 47
M  V30 51 1 16 48
M  V30 52 1 17 49
M  V30 53 1 18 50
M  V30 54 1 18 51
M  V30 55 1 20 52
M  V30 56 1 20 53
M  V30 57 1 20 54
M  V30 58 1 21 55
M  V30 59 1 21 56
M  V30 60 1 21 57
M  V30 61 1 22 58
M  V30 62 1 23 59
M  V30 63 1 24 60
M  V30 64 1 26 61
M  V30 65 1 29 62
M  V30 66 1 30 63
M  V30 67 1 33 64
M  V30 68 1 34 65
M  V30 69 1 35 66
M  V30 70 1 37 67
M  V30 END BOND
M  V30 END CTAB
M  END
>  <Dataset>  (532) 
ChEMBL_Kinases

>  <Ligand_Instance>  (532) 
nan

>  <PDB_ID>  (532) 
nan

>  <Standardized_SMILES>  (532) 
Cc1ccc(NC(=O)c2ccc(NC(=O)/C=C/CN(C)C)cc2)cc1Nc1nccc(-c2cccnc2)n1

>  <Name>  (532) 
nan

>  <Pocket>  (532) 
nan

>  <ATP_Site>  (532) 
nan

>  <Peripheral>  (532) 
nan

>  <Num_H_Atoms_ProtBoundConf>  (532) 
nan

>  <Num_Resolved_Atoms>  (532) 
nan

>  <Num_Not_Resolved_Atoms>  (532) 
nan

$$$$
CHEMBL4796085
     RDKit          3D

  0  0  0  0  0  0  0  0  0  0999 V3000
M  V30 BEGIN CTAB
M  V30 COUNTS 54 58 0 0 0
M  V30 BEGIN ATOM
M  V30 1 C -0.779375 -2.936338 2.999399 0
M  V30 2 N -0.394697 -4.318070 2.843027 0
M  V30 3 C 0.446184 -4.700502 3.958213 0
M  V30 4 C 1.832978 -4.091218 3.892061 0
M  V30 5 C 2.487959 -4.440073 2.612200 0
M  V30 6 N 2.750330 -3.304039 1.760126 0
M  V30 7 C 2.576841 -1.972420 1.878743 0
M  V30 8 C 3.029079 -1.374377 0.697267 0
M  V30 9 N 2.927289 0.059372 0.617020 0
M  V30 10 C 1.707207 0.534140 0.065241 0
M  V30 11 O 0.837952 -0.315545 -0.299214 0
M  V30 12 C 1.496328 1.973500 -0.063048 0
M  V30 13 N 2.316808 2.999901 0.285718 0
M  V30 14 N 1.756022 4.157835 0.003563 0
M  V30 15 C 0.537435 3.996380 -0.546577 0
M  V30 16 C -0.453218 4.840274 -1.017689 0
M  V30 17 C -1.621754 4.320587 -1.537649 0
M  V30 18 C -1.776391 2.936675 -1.575384 0
M  V30 19 C -2.974863 2.274549 -2.107698 0
M  V30 20 C -3.717986 2.832731 -3.152739 0
M  V30 21 N -4.702229 1.933401 -3.328440 0
M  V30 22 N -4.598789 0.922124 -2.494473 0
M  V30 23 C -5.541735 -0.188136 -2.480142 0
M  V30 24 C -3.513261 1.080319 -1.685749 0
M  V30 25 C -0.780081 2.089458 -1.101578 0
M  V30 26 C 0.390491 2.613138 -0.580821 0
M  V30 27 C 3.465318 -2.404853 -0.097595 0
M  V30 28 N 3.285821 -3.557577 0.567578 0
M  V30 29 C 1.519028 -5.327025 1.831601 0
M  V30 30 C 0.296911 -4.465165 1.595011 0
M  V30 31 H -1.880223 -2.797412 3.047054 0
M  V30 32 H -0.411832 -2.306053 2.139390 0
M  V30 33 H -0.309085 -2.498984 3.912466 0
M  V30 34 H -0.079856 -4.271395 4.864246 0
M  V30 35 H 0.470602 -5.796155 4.140669 0
M  V30 36 H 1.696263 -3.022788 4.107795 0
M  V30 37 H 2.370896 -4.525458 4.785790 0
M  V30 38 H 3.408009 -5.046334 2.767086 0
M  V30 39 H 2.153084 -1.552308 2.775076 0
M  V30 40 H 3.675082 0.737561 0.931471 0
M  V30 41 H 2.206796 5.090325 0.186544 0
M  V30 42 H -0.297198 5.925634 -0.972367 0
M  V30 43 H -2.408981 4.935320 -1.910592 0
M  V30 44 H -3.524871 3.761514 -3.673268 0
M  V30 45 H -5.637044 -0.645335 -3.486132 0
M  V30 46 H -5.188172 -0.983253 -1.774595 0
M  V30 47 H -6.525710 0.153503 -2.076736 0
M  V30 48 H -3.170222 0.423759 -0.908466 0
M  V30 49 H -0.894792 1.021807 -1.128508 0
M  V30 50 H 3.858264 -2.142454 -1.069212 0
M  V30 51 H 1.288883 -6.270722 2.340179 0
M  V30 52 H 1.957222 -5.491826 0.811902 0
M  V30 53 H -0.331454 -4.931114 0.802303 0
M  V30 54 H 0.659697 -3.460329 1.258631 0
M  V30 END ATOM
M  V30 BEGIN BOND
M  V30 1 1 1 2
M  V30 2 1 2 3
M  V30 3 1 3 4
M  V30 4 1 4 5
M  V30 5 1 5 6
M  V30 6 1 6 7
M  V30 7 2 7 8
M  V30 8 1 8 9
M  V30 9 1 9 10
M  V30 10 2 10 11
M  V30 11 1 10 12
M  V30 12 2 12 13
M  V30 13 1 13 14
M  V30 14 1 14 15
M  V30 15 2 15 16
M  V30 16 1 16 17
M  V30 17 2 17 18
M  V30 18 1 18 19
M  V30 19 1 19 20
M  V30 20 2 20 21
M  V30 21 1 21 22
M  V30 22 1 22 23
M  V30 23 1 22 24
M  V30 24 1 18 25
M  V30 25 2 25 26
M  V30 26 1 8 27
M  V30 27 2 27 28
M  V30 28 1 5 29
M  V30 29 1 29 30
M  V30 30 1 30 2
M  V30 31 1 28 6
M  V30 32 1 26 12
M  V30 33 1 26 15
M  V30 34 2 24 19
M  V30 35 1 1 31
M  V30 36 1 1 32
M  V30 37 1 1 33
M  V30 38 1 3 34
M  V30 39 1 3 35
M  V30 40 1 4 36
M  V30 41 1 4 37
M  V30 42 1 5 38
M  V30 43 1 7 39
M  V30 44 1 9 40
M  V30 45 1 14 41
M  V30 46 1 16 42
M  V30 47 1 17 43
M  V30 48 1 20 44
M  V30 49 1 23 45
M  V30 50 1 23 46
M  V30 51 1 23 47
M  V30 52 1 24 48
M  V30 53 1 25 49
M  V30 54 1 27 50
M  V30 55 1 29 51
M  V30 56 1 29 52
M  V30 57 1 30 53
M  V30 58 1 30 54
M  V30 END BOND
M  V30 END CTAB
M  END
>  <Dataset>  (533) 
ChEMBL_Kinases

>  <Ligand_Instance>  (533) 
nan

>  <PDB_ID>  (533) 
nan

>  <Standardized_SMILES>  (533) 
CN1CCC(n2cc(NC(=O)c3n[nH]c4ccc(-c5cnn(C)c5)cc34)cn2)CC1

>  <Name>  (533) 
nan

>  <Pocket>  (533) 
nan

>  <ATP_Site>  (533) 
nan

>  <Peripheral>  (533) 
nan

>  <Num_H_Atoms_ProtBoundConf>  (533) 
nan

>  <Num_Resolved_Atoms>  (533) 
nan

>  <Num_Not_Resolved_Atoms>  (533) 
nan

$$$$
CHEMBL4796016
     RDKit          3D

  0  0  0  0  0  0  0  0  0  0999 V3000
M  V30 BEGIN CTAB
M  V30 COUNTS 31 34 0 0 0
M  V30 BEGIN ATOM
M  V30 1 O -3.001323 -3.542559 2.622208 0
M  V30 2 C -1.863098 -3.179977 3.052638 0
M  V30 3 N -1.293866 -3.604872 4.275281 0
M  V30 4 C -0.003780 -3.026564 4.485247 0
M  V30 5 C 0.227011 -2.182705 3.292238 0
M  V30 6 C 1.276280 -1.367503 2.889688 0
M  V30 7 C 1.228423 -0.671898 1.690210 0
M  V30 8 C 0.100622 -0.819455 0.911915 0
M  V30 9 C -0.173063 -0.234800 -0.308135 0
M  V30 10 C 0.578327 0.687334 -1.158773 0
M  V30 11 C 0.611469 0.389157 -2.506604 0
M  V30 12 C 1.297880 1.205467 -3.384501 0
M  V30 13 C 1.974586 2.340477 -2.972964 0
M  V30 14 C 1.911579 2.599821 -1.599751 0
M  V30 15 Cl 2.747230 4.030797 -0.977998 0
M  V30 16 C 1.239877 1.810709 -0.703128 0
M  V30 17 C -1.429371 -0.712075 -0.655090 0
M  V30 18 N -1.916392 -1.541182 0.280846 0
M  V30 19 C -0.980002 -1.613439 1.250749 0
M  V30 20 C -0.870594 -2.281935 2.461029 0
M  V30 21 H -1.762904 -4.262029 4.941501 0
M  V30 22 H 0.803396 -3.777495 4.617553 0
M  V30 23 H -0.061454 -2.423203 5.420762 0
M  V30 24 H 2.112922 -1.311780 3.556362 0
M  V30 25 H 2.060510 -0.033698 1.384709 0
M  V30 26 H 0.113554 -0.480608 -2.943313 0
M  V30 27 H 1.319855 0.968281 -4.430841 0
M  V30 28 H 2.522852 3.002190 -3.636792 0
M  V30 29 H 1.195283 2.014265 0.346140 0
M  V30 30 H -1.975185 -0.462377 -1.565427 0
M  V30 31 H -2.835986 -2.042656 0.279704 0
M  V30 END ATOM
M  V30 BEGIN BOND
M  V30 1 2 1 2
M  V30 2 1 2 3
M  V30 3 1 3 4
M  V30 4 1 4 5
M  V30 5 2 5 6
M  V30 6 1 6 7
M  V30 7 2 7 8
M  V30 8 1 8 9
M  V30 9 1 9 10
M  V30 10 2 10 11
M  V30 11 1 11 12
M  V30 12 2 12 13
M  V30 13 1 13 14
M  V30 14 1 14 15
M  V30 15 2 14 16
M  V30 16 2 9 17
M  V30 17 1 17 18
M  V30 18 1 18 19
M  V30 19 2 19 20
M  V30 20 1 20 2
M  V30 21 1 20 5
M  V30 22 1 19 8
M  V30 23 1 16 10
M  V30 24 1 3 21
M  V30 25 1 4 22
M  V30 26 1 4 23
M  V30 27 1 6 24
M  V30 28 1 7 25
M  V30 29 1 11 26
M  V30 30 1 12 27
M  V30 31 1 13 28
M  V30 32 1 16 29
M  V30 33 1 17 30
M  V30 34 1 18 31
M  V30 END BOND
M  V30 END CTAB
M  END
>  <Dataset>  (534) 
ChEMBL_Kinases

>  <Ligand_Instance>  (534) 
nan

>  <PDB_ID>  (534) 
nan

>  <Standardized_SMILES>  (534) 
O=C1NCc2ccc3c(-c4cccc(Cl)c4)c[nH]c3c21

>  <Name>  (534) 
nan

>  <Pocket>  (534) 
nan

>  <ATP_Site>  (534) 
nan

>  <Peripheral>  (534) 
nan

>  <Num_H_Atoms_ProtBoundConf>  (534) 
nan

>  <Num_Resolved_Atoms>  (534) 
nan

>  <Num_Not_Resolved_Atoms>  (534) 
nan

$$$$
CHEMBL4795987
     RDKit          3D

  0  0  0  0  0  0  0  0  0  0999 V3000
M  V30 BEGIN CTAB
M  V30 COUNTS 53 58 0 0 0
M  V30 BEGIN ATOM
M  V30 1 C 5.957807 -0.910279 2.449643 0
M  V30 2 C 4.688647 -1.174643 3.219707 0
M  V30 3 C 4.764310 -0.476609 4.575202 0
M  V30 4 N 3.492386 -0.782182 2.503574 0
M  V30 5 C 3.259294 0.557100 2.103714 0
M  V30 6 C 4.130524 1.593027 2.356534 0
M  V30 7 N 3.872472 2.869862 1.955136 0
M  V30 8 C 2.729262 3.161806 1.283005 0
M  V30 9 C 1.810808 2.176169 0.994583 0
M  V30 10 C 0.558331 2.396071 0.278844 0
M  V30 11 C 0.183077 3.641544 -0.178844 0
M  V30 12 C -1.013982 3.867414 -0.866127 0
M  V30 13 C -1.828811 2.777592 -1.077472 0
M  V30 14 N -3.013207 2.621610 -1.679071 0
M  V30 15 N -3.404056 1.356407 -1.627277 0
M  V30 16 C -2.458800 0.633436 -0.972366 0
M  V30 17 C -2.372010 -0.794700 -0.631154 0
M  V30 18 N -3.347727 -1.681664 -0.969804 0
M  V30 19 C -3.031269 -2.900606 -0.548761 0
M  V30 20 C -3.633913 -4.161679 -0.610535 0
M  V30 21 C -4.926705 -4.306431 -1.272012 0
M  V30 22 C -5.452289 -3.836819 -2.463638 0
M  V30 23 C -6.749452 -4.302083 -2.568648 0
M  V30 24 O -7.012704 -5.024873 -1.492839 0
M  V30 25 C -5.949060 -5.042576 -0.709722 0
M  V30 26 C -3.025506 -5.259729 -0.058260 0
M  V30 27 N -1.841981 -5.072379 0.536030 0
M  V30 28 C -1.211201 -3.887110 0.628513 0
M  V30 29 C -1.819462 -2.757817 0.069859 0
M  V30 30 N -1.402628 -1.473606 0.027529 0
M  V30 31 C -1.453960 1.537589 -0.621143 0
M  V30 32 N -0.285381 1.404673 0.031706 0
M  V30 33 C 2.113167 0.898889 1.419752 0
M  V30 34 H 6.480338 -1.853891 2.154687 0
M  V30 35 H 6.697279 -0.314326 3.014749 0
M  V30 36 H 5.741568 -0.391187 1.471007 0
M  V30 37 H 4.680258 -2.255963 3.444787 0
M  V30 38 H 4.644528 -1.176942 5.421078 0
M  V30 39 H 5.726903 0.046507 4.731384 0
M  V30 40 H 3.961732 0.278817 4.699722 0
M  V30 41 H 2.782075 -1.509724 2.276356 0
M  V30 42 H 5.041896 1.413307 2.882381 0
M  V30 43 H 2.531876 4.155915 0.972450 0
M  V30 44 H 0.793360 4.497312 -0.028662 0
M  V30 45 H -1.267366 4.863989 -1.207216 0
M  V30 46 H -3.577295 3.377610 -2.136804 0
M  V30 47 H -4.811506 -3.213085 -3.099529 0
M  V30 48 H -7.273865 -4.000948 -3.465261 0
M  V30 49 H -6.037882 -5.608888 0.216274 0
M  V30 50 H -3.462863 -6.264879 -0.084369 0
M  V30 51 H -0.256364 -3.773753 1.115716 0
M  V30 52 H -0.545012 -1.029554 0.394492 0
M  V30 53 H 1.410425 0.098302 1.208703 0
M  V30 END ATOM
M  V30 BEGIN BOND
M  V30 1 1 1 2
M  V30 2 1 2 3
M  V30 3 1 2 4
M  V30 4 1 4 5
M  V30 5 2 5 6
M  V30 6 1 6 7
M  V30 7 2 7 8
M  V30 8 1 8 9
M  V30 9 1 9 10
M  V30 10 2 10 11
M  V30 11 1 11 12
M  V30 12 2 12 13
M  V30 13 1 13 14
M  V30 14 1 14 15
M  V30 15 2 15 16
M  V30 16 1 16 17
M  V30 17 2 17 18
M  V30 18 1 18 19
M  V30 19 2 19 20
M  V30 20 1 20 21
M  V30 21 1 21 22
M  V30 22 2 22 23
M  V30 23 1 23 24
M  V30 24 1 24 25
M  V30 25 1 20 26
M  V30 26 2 26 27
M  V30 27 1 27 28
M  V30 28 2 28 29
M  V30 29 1 29 30
M  V30 30 1 16 31
M  V30 31 2 31 32
M  V30 32 2 9 33
M  V30 33 1 33 5
M  V30 34 1 32 10
M  V30 35 1 31 13
M  V30 36 1 30 17
M  V30 37 1 29 19
M  V30 38 2 25 21
M  V30 39 1 1 34
M  V30 40 1 1 35
M  V30 41 1 1 36
M  V30 42 1 2 37
M  V30 43 1 3 38
M  V30 44 1 3 39
M  V30 45 1 3 40
M  V30 46 1 4 41
M  V30 47 1 6 42
M  V30 48 1 8 43
M  V30 49 1 11 44
M  V30 50 1 12 45
M  V30 51 1 14 46
M  V30 52 1 22 47
M  V30 53 1 23 48
M  V30 54 1 25 49
M  V30 55 1 26 50
M  V30 56 1 28 51
M  V30 57 1 30 52
M  V30 58 1 33 53
M  V30 END BOND
M  V30 END CTAB
M  END
>  <Dataset>  (535) 
ChEMBL_Kinases

>  <Ligand_Instance>  (535) 
nan

>  <PDB_ID>  (535) 
nan

>  <Standardized_SMILES>  (535) 
CC(C)Nc1cncc(-c2ccc3[nH]nc(-c4nc5c(-c6ccoc6)cncc5[nH]4)c3n2)c1

>  <Name>  (535) 
nan

>  <Pocket>  (535) 
nan

>  <ATP_Site>  (535) 
nan

>  <Peripheral>  (535) 
nan

>  <Num_H_Atoms_ProtBoundConf>  (535) 
nan

>  <Num_Resolved_Atoms>  (535) 
nan

>  <Num_Not_Resolved_Atoms>  (535) 
nan

$$$$
CHEMBL4795951
     RDKit          3D

  0  0  0  0  0  0  0  0  0  0999 V3000
M  V30 BEGIN CTAB
M  V30 COUNTS 47 52 0 0 0
M  V30 BEGIN ATOM
M  V30 1 N 2.088285 -3.155882 3.247777 0
M  V30 2 C 2.967609 -2.183194 2.734323 0
M  V30 3 C 4.293904 -2.554602 2.643399 0
M  V30 4 N 5.119512 -1.588547 2.142302 0
M  V30 5 C 4.680205 -0.375665 1.767590 0
M  V30 6 C 3.378052 -0.003518 1.853979 0
M  V30 7 C 2.773516 1.271641 1.486586 0
M  V30 8 C 3.443535 2.473042 1.589867 0
M  V30 9 N 2.895721 3.654094 1.253303 0
M  V30 10 C 1.623787 3.759534 0.779083 0
M  V30 11 N 0.821991 4.761921 0.370233 0
M  V30 12 N -0.359068 4.238357 0.001484 0
M  V30 13 C -0.305269 2.905252 0.176819 0
M  V30 14 C -1.382261 1.963810 -0.108056 0
M  V30 15 N -1.369382 0.637061 0.051126 0
M  V30 16 C -2.543884 0.093111 -0.316951 0
M  V30 17 C -2.995739 -1.211478 -0.332220 0
M  V30 18 C -2.170227 -2.333062 0.103955 0
M  V30 19 C -1.398557 -2.909216 -0.897453 0
M  V30 20 C -0.576352 -3.982342 -0.588419 0
M  V30 21 C -0.491071 -4.513406 0.701901 0
M  V30 22 C -1.269442 -3.919359 1.673078 0
M  V30 23 C -2.097662 -2.851195 1.400035 0
M  V30 24 F -2.885574 -2.222962 2.302065 0
M  V30 25 C -4.272100 -1.479501 -0.771114 0
M  V30 26 C -5.037675 -0.407912 -1.177003 0
M  V30 27 N -4.581765 0.872996 -1.157450 0
M  V30 28 C -3.339454 1.161148 -0.733455 0
M  V30 29 N -2.598841 2.271508 -0.590602 0
M  V30 30 C 0.939169 2.565994 0.669485 0
M  V30 31 C 1.493929 1.350887 1.012656 0
M  V30 32 C 2.482591 -0.948110 2.359285 0
M  V30 33 H 2.286147 -3.878581 3.993764 0
M  V30 34 H 1.145200 -3.589664 3.240488 0
M  V30 35 H 4.630194 -3.534308 2.949238 0
M  V30 36 H 5.349008 0.381854 1.370773 0
M  V30 37 H 4.474754 2.426345 1.969925 0
M  V30 38 H 1.109980 5.784822 0.355321 0
M  V30 39 H -1.333952 -2.636902 -1.942127 0
M  V30 40 H 0.058192 -4.488535 -1.313613 0
M  V30 41 H 0.158550 -5.356355 0.933238 0
M  V30 42 H -1.270127 -4.260479 2.699420 0
M  V30 43 H -4.657924 -2.506361 -0.794152 0
M  V30 44 H -6.047390 -0.573731 -1.529519 0
M  V30 45 H -2.920978 3.233132 -0.820752 0
M  V30 46 H 0.875475 0.459859 0.891871 0
M  V30 47 H 1.405475 -0.745771 2.470110 0
M  V30 END ATOM
M  V30 BEGIN BOND
M  V30 1 1 1 2
M  V30 2 2 2 3
M  V30 3 1 3 4
M  V30 4 2 4 5
M  V30 5 1 5 6
M  V30 6 1 6 7
M  V30 7 2 7 8
M  V30 8 1 8 9
M  V30 9 2 9 10
M  V30 10 1 10 11
M  V30 11 1 11 12
M  V30 12 2 12 13
M  V30 13 1 13 14
M  V30 14 2 14 15
M  V30 15 1 15 16
M  V30 16 2 16 17
M  V30 17 1 17 18
M  V30 18 2 18 19
M  V30 19 1 19 20
M  V30 20 2 20 21
M  V30 21 1 21 22
M  V30 22 2 22 23
M  V30 23 1 23 24
M  V30 24 1 17 25
M  V30 25 2 25 26
M  V30 26 1 26 27
M  V30 27 2 27 28
M  V30 28 1 28 29
M  V30 29 1 13 30
M  V30 30 2 30 31
M  V30 31 2 6 32
M  V30 32 1 32 2
M  V30 33 1 31 7
M  V30 34 1 30 10
M  V30 35 1 29 14
M  V30 36 1 28 16
M  V30 37 1 23 18
M  V30 38 1 1 33
M  V30 39 1 1 34
M  V30 40 1 3 35
M  V30 41 1 5 36
M  V30 42 1 8 37
M  V30 43 1 11 38
M  V30 44 1 19 39
M  V30 45 1 20 40
M  V30 46 1 21 41
M  V30 47 1 22 42
M  V30 48 1 25 43
M  V30 49 1 26 44
M  V30 50 1 29 45
M  V30 51 1 31 46
M  V30 52 1 32 47
M  V30 END BOND
M  V30 END CTAB
M  END
>  <Dataset>  (536) 
ChEMBL_Kinases

>  <Ligand_Instance>  (536) 
nan

>  <PDB_ID>  (536) 
nan

>  <Standardized_SMILES>  (536) 
Nc1cncc(-c2cnc3[nH]nc(-c4nc5c(-c6ccccc6F)ccnc5[nH]4)c3c2)c1

>  <Name>  (536) 
nan

>  <Pocket>  (536) 
nan

>  <ATP_Site>  (536) 
nan

>  <Peripheral>  (536) 
nan

>  <Num_H_Atoms_ProtBoundConf>  (536) 
nan

>  <Num_Resolved_Atoms>  (536) 
nan

>  <Num_Not_Resolved_Atoms>  (536) 
nan

$$$$
CHEMBL4795948
     RDKit          3D

  0  0  0  0  0  0  0  0  0  0999 V3000
M  V30 BEGIN CTAB
M  V30 COUNTS 61 65 0 0 0
M  V30 BEGIN ATOM
M  V30 1 C 6.445980 0.575112 6.058707 0
M  V30 2 C 5.255423 0.056898 5.282481 0
M  V30 3 C 4.028716 0.267249 6.114295 0
M  V30 4 N 5.186334 0.486167 3.938267 0
M  V30 5 C 5.131885 1.866318 3.689749 0
M  V30 6 C 3.992794 2.393581 2.899163 0
M  V30 7 C 3.049235 1.268715 2.529105 0
M  V30 8 N 1.929921 1.744233 1.756430 0
M  V30 9 C 0.868541 1.047266 1.380168 0
M  V30 10 C -0.029591 1.786354 0.647429 0
M  V30 11 C -1.310997 1.633212 -0.020571 0
M  V30 12 O -1.944983 2.550528 -0.658458 0
M  V30 13 N -2.016320 0.435996 -0.043445 0
M  V30 14 C -3.094303 -0.393192 -0.385241 0
M  V30 15 C -3.111280 -1.163886 -1.542201 0
M  V30 16 C -4.172869 -1.958791 -1.891047 0
M  V30 17 C -4.298787 -2.757227 -3.000292 0
M  V30 18 C -5.393002 -3.531826 -3.293547 0
M  V30 19 C -5.459633 -4.366511 -4.483340 0
M  V30 20 C -4.468142 -4.490275 -5.429429 0
M  V30 21 N -4.916890 -5.369070 -6.381541 0
M  V30 22 C -4.256218 -5.847860 -7.605492 0
M  V30 23 N -6.134038 -5.762254 -6.025639 0
M  V30 24 N -6.472533 -5.155944 -4.869836 0
M  V30 25 C -6.437899 -3.478502 -2.367359 0
M  V30 26 C -6.354797 -2.677022 -1.217461 0
M  V30 27 C -5.215209 -1.909562 -0.973304 0
M  V30 28 C -5.267999 -1.175677 0.184661 0
M  V30 29 N -4.171187 -0.411655 0.457745 0
M  V30 30 C 0.584531 3.049435 0.596588 0
M  V30 31 N 1.752124 2.968813 1.275646 0
M  V30 32 C 3.852274 0.185071 1.878522 0
M  V30 33 C 4.714294 -0.426116 2.989404 0
M  V30 34 H 6.193321 0.532552 7.138414 0
M  V30 35 H 6.646047 1.629189 5.825496 0
M  V30 36 H 7.339758 -0.079718 5.938446 0
M  V30 37 H 5.407106 -1.066517 5.255742 0
M  V30 38 H 3.560677 1.251743 6.038919 0
M  V30 39 H 4.249588 0.067161 7.187394 0
M  V30 40 H 3.257385 -0.513354 5.834281 0
M  V30 41 H 6.075373 2.141463 3.128999 0
M  V30 42 H 5.228633 2.433408 4.641677 0
M  V30 43 H 3.460980 3.215515 3.471555 0
M  V30 44 H 4.270318 2.866557 1.936848 0
M  V30 45 H 2.581531 0.785723 3.434819 0
M  V30 46 H 0.598900 0.006468 1.553717 0
M  V30 47 H -1.508590 -0.356471 0.476830 0
M  V30 48 H -2.262545 -1.163710 -2.223055 0
M  V30 49 H -3.447930 -2.748099 -3.674490 0
M  V30 50 H -3.497456 -4.031808 -5.500942 0
M  V30 51 H -3.736914 -4.952725 -8.049205 0
M  V30 52 H -5.047464 -6.115525 -8.342687 0
M  V30 53 H -3.542531 -6.652384 -7.428879 0
M  V30 54 H -7.311598 -4.088630 -2.591563 0
M  V30 55 H -7.238807 -2.747850 -0.612270 0
M  V30 56 H -6.111592 -1.191246 0.853722 0
M  V30 57 H 0.225072 3.955006 0.112719 0
M  V30 58 H 4.543477 0.551908 1.081695 0
M  V30 59 H 3.236386 -0.608045 1.390257 0
M  V30 60 H 5.526086 -1.060356 2.571515 0
M  V30 61 H 4.011598 -1.160445 3.495319 0
M  V30 END ATOM
M  V30 BEGIN BOND
M  V30 1 1 1 2
M  V30 2 1 2 3
M  V30 3 1 2 4
M  V30 4 1 4 5
M  V30 5 1 5 6
M  V30 6 1 6 7
M  V30 7 1 7 8
M  V30 8 1 8 9
M  V30 9 2 9 10
M  V30 10 1 10 11
M  V30 11 2 11 12
M  V30 12 1 11 13
M  V30 13 1 13 14
M  V30 14 2 14 15
M  V30 15 1 15 16
M  V30 16 2 16 17
M  V30 17 1 17 18
M  V30 18 1 18 19
M  V30 19 2 19 20
M  V30 20 1 20 21
M  V30 21 1 21 22
M  V30 22 1 21 23
M  V30 23 2 23 24
M  V30 24 2 18 25
M  V30 25 1 25 26
M  V30 26 2 26 27
M  V30 27 1 27 28
M  V30 28 2 28 29
M  V30 29 1 10 30
M  V30 30 2 30 31
M  V30 31 1 7 32
M  V30 32 1 32 33
M  V30 33 1 33 4
M  V30 34 1 31 8
M  V30 35 1 29 14
M  V30 36 1 27 16
M  V30 37 1 24 19
M  V30 38 1 1 34
M  V30 39 1 1 35
M  V30 40 1 1 36
M  V30 41 1 2 37
M  V30 42 1 3 38
M  V30 43 1 3 39
M  V30 44 1 3 40
M  V30 45 1 5 41
M  V30 46 1 5 42
M  V30 47 1 6 43
M  V30 48 1 6 44
M  V30 49 1 7 45
M  V30 50 1 9 46
M  V30 51 1 13 47
M  V30 52 1 15 48
M  V30 53 1 17 49
M  V30 54 1 20 50
M  V30 55 1 22 51
M  V30 56 1 22 52
M  V30 57 1 22 53
M  V30 58 1 25 54
M  V30 59 1 26 55
M  V30 60 1 28 56
M  V30 61 1 30 57
M  V30 62 1 32 58
M  V30 63 1 32 59
M  V30 64 1 33 60
M  V30 65 1 33 61
M  V30 END BOND
M  V30 END CTAB
M  END
>  <Dataset>  (537) 
ChEMBL_Kinases

>  <Ligand_Instance>  (537) 
nan

>  <PDB_ID>  (537) 
nan

>  <Standardized_SMILES>  (537) 
CC(C)N1CCC(n2cc(C(=O)Nc3cc4cc(-c5cn(C)nn5)ccc4cn3)cn2)CC1

>  <Name>  (537) 
nan

>  <Pocket>  (537) 
nan

>  <ATP_Site>  (537) 
nan

>  <Peripheral>  (537) 
nan

>  <Num_H_Atoms_ProtBoundConf>  (537) 
nan

>  <Num_Resolved_Atoms>  (537) 
nan

>  <Num_Not_Resolved_Atoms>  (537) 
nan

$$$$
CHEMBL4795946
     RDKit          3D

  0  0  0  0  0  0  0  0  0  0999 V3000
M  V30 BEGIN CTAB
M  V30 COUNTS 73 79 0 0 0
M  V30 BEGIN ATOM
M  V30 1 O 3.585513 1.175344 4.228457 0
M  V30 2 C 4.081689 0.096152 4.650420 0
M  V30 3 C 4.996278 -0.300664 5.764413 0
M  V30 4 C 5.533358 0.878100 6.502603 0
M  V30 5 C 6.318253 1.751467 5.526401 0
M  V30 6 C 7.039599 2.860890 6.266105 0
M  V30 7 N 6.210242 3.406064 7.331754 0
M  V30 8 C 4.789587 3.182002 7.029231 0
M  V30 9 C 4.513712 1.696764 7.233537 0
M  V30 10 N 3.701032 -1.051500 3.905713 0
M  V30 11 C 2.855824 -1.154644 2.770832 0
M  V30 12 C 3.626181 -0.939196 1.621954 0
M  V30 13 N 2.956328 -1.016920 0.431883 0
M  V30 14 C 1.647310 -1.284083 0.397329 0
M  V30 15 C 0.836370 -1.504285 1.468212 0
M  V30 16 C -0.563532 -1.810982 1.580291 0
M  V30 17 C -1.257258 -2.050865 2.736910 0
M  V30 18 C -2.596722 -2.343138 2.572263 0
M  V30 19 C -3.284303 -2.412634 1.375167 0
M  V30 20 N -4.528031 -2.659213 0.959531 0
M  V30 21 N -4.561801 -2.566087 -0.381252 0
M  V30 22 C -3.349071 -2.260928 -0.830983 0
M  V30 23 C -2.871428 -2.027145 -2.206332 0
M  V30 24 C -3.718284 -2.078243 -3.319242 0
M  V30 25 C -2.853923 -1.776753 -4.373461 0
M  V30 26 C -3.190527 -1.687525 -5.706044 0
M  V30 27 N -4.441774 -1.875658 -6.320204 0
M  V30 28 C -5.277605 -3.053935 -6.357190 0
M  V30 29 C -6.706381 -2.596415 -6.567409 0
M  V30 30 C -6.915976 -1.378240 -5.682092 0
M  V30 31 C -6.129333 -0.194577 -6.176969 0
M  V30 32 C -4.974938 -0.720410 -7.017337 0
M  V30 33 N -2.205591 -1.375953 -6.579308 0
M  V30 34 C -0.937197 -1.158176 -6.176115 0
M  V30 35 C -0.569163 -1.240960 -4.842213 0
M  V30 36 C -1.581817 -1.559811 -3.948586 0
M  V30 37 N -1.628585 -1.721422 -2.615656 0
M  V30 38 C -2.494981 -2.155450 0.275156 0
M  V30 39 N -1.175152 -1.864443 0.378657 0
M  V30 40 C 1.509243 -1.427100 2.694732 0
M  V30 41 H 5.821989 -0.887326 5.317682 0
M  V30 42 H 4.467203 -1.018210 6.434221 0
M  V30 43 H 6.264035 0.502813 7.246799 0
M  V30 44 H 5.640695 2.140008 4.739406 0
M  V30 45 H 7.077989 1.095877 5.056766 0
M  V30 46 H 7.219117 3.677759 5.544330 0
M  V30 47 H 7.987977 2.486634 6.652375 0
M  V30 48 H 6.406073 4.414260 7.499101 0
M  V30 49 H 4.207083 3.790618 7.725746 0
M  V30 50 H 4.624762 3.442575 5.966063 0
M  V30 51 H 3.467513 1.462227 6.969770 0
M  V30 52 H 4.594592 1.554753 8.341195 0
M  V30 53 H 3.985618 -2.066781 4.062275 0
M  V30 54 H 4.677716 -0.717995 1.535853 0
M  V30 55 H 1.099982 -1.350000 -0.556928 0
M  V30 56 H -0.759244 -2.009375 3.687343 0
M  V30 57 H -3.147642 -2.533698 3.480749 0
M  V30 58 H -5.317482 -2.883445 1.614879 0
M  V30 59 H -4.764611 -2.292210 -3.371615 0
M  V30 60 H -5.045474 -3.713162 -7.215499 0
M  V30 61 H -5.254825 -3.578241 -5.380729 0
M  V30 62 H -7.356892 -3.411165 -6.171616 0
M  V30 63 H -6.948459 -2.355193 -7.622642 0
M  V30 64 H -6.684472 -1.593436 -4.633657 0
M  V30 65 H -8.001750 -1.095231 -5.733288 0
M  V30 66 H -6.758543 0.512916 -6.763581 0
M  V30 67 H -5.673435 0.304411 -5.275644 0
M  V30 68 H -4.206445 0.058186 -7.229536 0
M  V30 69 H -5.427580 -1.089189 -7.977562 0
M  V30 70 H -0.120472 -0.901134 -6.868142 0
M  V30 71 H 0.423514 -1.077818 -4.462439 0
M  V30 72 H -0.820819 -1.629961 -1.961181 0
M  V30 73 H 1.175880 -1.544523 3.711474 0
M  V30 END ATOM
M  V30 BEGIN BOND
M  V30 1 2 1 2
M  V30 2 1 2 3
M  V30 3 1 3 4
M  V30 4 1 4 5
M  V30 5 1 5 6
M  V30 6 1 6 7
M  V30 7 1 7 8
M  V30 8 1 8 9
M  V30 9 1 2 10
M  V30 10 1 10 11
M  V30 11 2 11 12
M  V30 12 1 12 13
M  V30 13 2 13 14
M  V30 14 1 14 15
M  V30 15 1 15 16
M  V30 16 2 16 17
M  V30 17 1 17 18
M  V30 18 2 18 19
M  V30 19 1 19 20
M  V30 20 1 20 21
M  V30 21 2 21 22
M  V30 22 1 22 23
M  V30 23 2 23 24
M  V30 24 1 24 25
M  V30 25 2 25 26
M  V30 26 1 26 27
M  V30 27 1 27 28
M  V30 28 1 28 29
M  V30 29 1 29 30
M  V30 30 1 30 31
M  V30 31 1 31 32
M  V30 32 1 26 33
M  V30 33 2 33 34
M  V30 34 1 34 35
M  V30 35 2 35 36
M  V30 36 1 36 37
M  V30 37 1 22 38
M  V30 38 2 38 39
M  V30 39 2 15 40
M  V30 40 1 9 4
M  V30 41 1 40 11
M  V30 42 1 39 16
M  V30 43 1 38 19
M  V30 44 1 37 23
M  V30 45 1 36 25
M  V30 46 1 32 27
M  V30 47 1 3 41
M  V30 48 1 3 42
M  V30 49 1 4 43
M  V30 50 1 5 44
M  V30 51 1 5 45
M  V30 52 1 6 46
M  V30 53 1 6 47
M  V30 54 1 7 48
M  V30 55 1 8 49
M  V30 56 1 8 50
M  V30 57 1 9 51
M  V30 58 1 9 52
M  V30 59 1 10 53
M  V30 60 1 12 54
M  V30 61 1 14 55
M  V30 62 1 17 56
M  V30 63 1 18 57
M  V30 64 1 20 58
M  V30 65 1 24 59
M  V30 66 1 28 60
M  V30 67 1 28 61
M  V30 68 1 29 62
M  V30 69 1 29 63
M  V30 70 1 30 64
M  V30 71 1 30 65
M  V30 72 1 31 66
M  V30 73 1 31 67
M  V30 74 1 32 68
M  V30 75 1 32 69
M  V30 76 1 34 70
M  V30 77 1 35 71
M  V30 78 1 37 72
M  V30 79 1 40 73
M  V30 END BOND
M  V30 END CTAB
M  END
>  <Dataset>  (538) 
ChEMBL_Kinases

>  <Ligand_Instance>  (538) 
nan

>  <PDB_ID>  (538) 
nan

>  <Standardized_SMILES>  (538) 
O=C(CC1CCNCC1)Nc1cncc(-c2ccc3[nH]nc(-c4cc5c(N6CCCCC6)nccc5[nH]4)c3n2)c1

>  <Name>  (538) 
nan

>  <Pocket>  (538) 
nan

>  <ATP_Site>  (538) 
nan

>  <Peripheral>  (538) 
nan

>  <Num_H_Atoms_ProtBoundConf>  (538) 
nan

>  <Num_Resolved_Atoms>  (538) 
nan

>  <Num_Not_Resolved_Atoms>  (538) 
nan

$$$$
CHEMBL3393599
     RDKit          3D

  0  0  0  0  0  0  0  0  0  0999 V3000
M  V30 BEGIN CTAB
M  V30 COUNTS 64 67 0 0 0
M  V30 BEGIN ATOM
M  V30 1 C 5.259900 -0.383457 5.075375 0
M  V30 2 O 4.887980 0.907381 5.442879 0
M  V30 3 C 4.053274 1.762974 4.773914 0
M  V30 4 C 3.400196 1.495623 3.565179 0
M  V30 5 C 2.572248 2.449169 2.978300 0
M  V30 6 N 1.976903 2.036743 1.753855 0
M  V30 7 C 2.457757 2.180946 0.438368 0
M  V30 8 O 3.552732 2.731569 0.154411 0
M  V30 9 C 1.687066 1.683840 -0.698265 0
M  V30 10 C 2.190970 1.843408 -1.972842 0
M  V30 11 C 1.537230 1.405785 -3.130844 0
M  V30 12 C 0.317334 0.782147 -2.938688 0
M  V30 13 C -0.234652 0.595337 -1.688859 0
M  V30 14 N -1.492272 -0.051002 -1.533062 0
M  V30 15 C -2.199403 -0.631022 -2.516335 0
M  V30 16 C -3.367750 -1.146106 -1.949654 0
M  V30 17 N -4.474344 -1.861141 -2.535969 0
M  V30 18 C -4.324609 -3.274093 -2.549571 0
M  V30 19 O -3.257577 -3.746564 -2.055983 0
M  V30 20 N -5.283356 -4.190825 -3.075541 0
M  V30 21 C -5.046773 -5.595191 -3.046060 0
M  V30 22 C -5.412036 -6.442856 -2.012833 0
M  V30 23 C -5.131458 -7.793228 -2.090749 0
M  V30 24 C -4.475622 -8.274135 -3.229692 0
M  V30 25 C -4.107462 -7.434897 -4.265701 0
M  V30 26 C -3.408681 -7.934256 -5.483894 0
M  V30 27 C -4.394832 -6.081585 -4.175224 0
M  V30 28 C -3.305905 -0.836944 -0.585910 0
M  V30 29 N -2.146779 -0.172553 -0.389968 0
M  V30 30 C 0.464400 1.050596 -0.605690 0
M  V30 31 C 2.371692 3.680837 3.568157 0
M  V30 32 C 3.019351 3.942497 4.764324 0
M  V30 33 O 2.851442 5.156517 5.391840 0
M  V30 34 C 2.035963 6.194244 4.885697 0
M  V30 35 C 3.844690 3.013284 5.365015 0
M  V30 36 O 4.472883 3.340280 6.578909 0
M  V30 37 C 3.727442 3.002369 7.758398 0
M  V30 38 H 5.048608 -1.087196 5.923941 0
M  V30 39 H 6.377631 -0.401788 4.937836 0
M  V30 40 H 4.738005 -0.772807 4.202238 0
M  V30 41 H 3.581738 0.530533 3.140823 0
M  V30 42 H 1.069579 1.580389 1.988597 0
M  V30 43 H 3.146925 2.328801 -2.164035 0
M  V30 44 H 1.968638 1.551468 -4.112397 0
M  V30 45 H -0.237211 0.419542 -3.816175 0
M  V30 46 H -1.983914 -0.728377 -3.571585 0
M  V30 47 H -5.368036 -1.489043 -2.951009 0
M  V30 48 H -6.139514 -3.776462 -3.469362 0
M  V30 49 H -5.913827 -6.004409 -1.166571 0
M  V30 50 H -5.419441 -8.459271 -1.276830 0
M  V30 51 H -4.250267 -9.346111 -3.296890 0
M  V30 52 H -3.123409 -8.992596 -5.362681 0
M  V30 53 H -4.025300 -7.793066 -6.382644 0
M  V30 54 H -2.463988 -7.352262 -5.566583 0
M  V30 55 H -4.094045 -5.441730 -5.005226 0
M  V30 56 H -3.988822 -1.044441 0.208206 0
M  V30 57 H 0.042070 0.908628 0.362019 0
M  V30 58 H 1.724723 4.384412 3.079203 0
M  V30 59 H 1.082597 5.741615 4.525667 0
M  V30 60 H 2.580548 6.716585 4.087268 0
M  V30 61 H 1.745202 6.900777 5.679219 0
M  V30 62 H 2.663041 3.308008 7.668329 0
M  V30 63 H 3.695906 1.877107 7.846417 0
M  V30 64 H 4.135086 3.450626 8.662655 0
M  V30 END ATOM
M  V30 BEGIN BOND
M  V30 1 1 1 2
M  V30 2 1 2 3
M  V30 3 2 3 4
M  V30 4 1 4 5
M  V30 5 1 5 6
M  V30 6 1 6 7
M  V30 7 2 7 8
M  V30 8 1 7 9
M  V30 9 2 9 10
M  V30 10 1 10 11
M  V30 11 2 11 12
M  V30 12 1 12 13
M  V30 13 1 13 14
M  V30 14 1 14 15
M  V30 15 2 15 16
M  V30 16 1 16 17
M  V30 17 1 17 18
M  V30 18 2 18 19
M  V30 19 1 18 20
M  V30 20 1 20 21
M  V30 21 2 21 22
M  V30 22 1 22 23
M  V30 23 2 23 24
M  V30 24 1 24 25
M  V30 25 1 25 26
M  V30 26 2 25 27
M  V30 27 1 16 28
M  V30 28 2 28 29
M  V30 29 2 13 30
M  V30 30 2 5 31
M  V30 31 1 31 32
M  V30 32 1 32 33
M  V30 33 1 33 34
M  V30 34 2 32 35
M  V30 35 1 35 36
M  V30 36 1 36 37
M  V30 37 1 35 3
M  V30 38 1 30 9
M  V30 39 1 29 14
M  V30 40 1 27 21
M  V30 41 1 1 38
M  V30 42 1 1 39
M  V30 43 1 1 40
M  V30 44 1 4 41
M  V30 45 1 6 42
M  V30 46 1 10 43
M  V30 47 1 11 44
M  V30 48 1 12 45
M  V30 49 1 15 46
M  V30 50 1 17 47
M  V30 51 1 20 48
M  V30 52 1 22 49
M  V30 53 1 23 50
M  V30 54 1 24 51
M  V30 55 1 26 52
M  V30 56 1 26 53
M  V30 57 1 26 54
M  V30 58 1 27 55
M  V30 59 1 28 56
M  V30 60 1 30 57
M  V30 61 1 31 58
M  V30 62 1 34 59
M  V30 63 1 34 60
M  V30 64 1 34 61
M  V30 65 1 37 62
M  V30 66 1 37 63
M  V30 67 1 37 64
M  V30 END BOND
M  V30 END CTAB
M  END
>  <Dataset>  (539) 
ChEMBL_Kinases

>  <Ligand_Instance>  (539) 
nan

>  <PDB_ID>  (539) 
nan

>  <Standardized_SMILES>  (539) 
COc1cc(NC(=O)c2cccc(-n3cc(NC(=O)Nc4cccc(C)c4)cn3)c2)cc(OC)c1OC

>  <Name>  (539) 
nan

>  <Pocket>  (539) 
nan

>  <ATP_Site>  (539) 
nan

>  <Peripheral>  (539) 
nan

>  <Num_H_Atoms_ProtBoundConf>  (539) 
nan

>  <Num_Resolved_Atoms>  (539) 
nan

>  <Num_Not_Resolved_Atoms>  (539) 
nan

$$$$
CHEMBL3393597
     RDKit          3D

  0  0  0  0  0  0  0  0  0  0999 V3000
M  V30 BEGIN CTAB
M  V30 COUNTS 57 61 0 0 0
M  V30 BEGIN ATOM
M  V30 1 C -1.453785 -4.975812 1.273444 0
M  V30 2 N -0.172231 -4.766404 0.621720 0
M  V30 3 C 0.078857 -3.800553 -0.278640 0
M  V30 4 C 1.392849 -3.883964 -0.697788 0
M  V30 5 C 2.238603 -3.147858 -1.627442 0
M  V30 6 C 3.102044 -3.700032 -2.558920 0
M  V30 7 N 3.703061 -2.699934 -3.225978 0
M  V30 8 C 3.289694 -1.492029 -2.792767 0
M  V30 9 N 3.551020 -0.207509 -3.094287 0
M  V30 10 C 2.912457 0.789891 -2.413372 0
M  V30 11 C 1.980258 0.549422 -1.396430 0
M  V30 12 C 1.352533 1.720802 -0.729316 0 CFG=1
M  V30 13 C -0.118996 1.813284 -1.032995 0
M  V30 14 C -0.903425 2.287253 0.191584 0
M  V30 15 C -0.729557 1.181343 1.196008 0 CFG=2
M  V30 16 N -1.691755 1.259989 2.214656 0
M  V30 17 C -1.607266 0.212074 3.212254 0
M  V30 18 C -2.221724 -1.079637 2.715253 0
M  V30 19 C -3.714420 -1.004354 2.540404 0
M  V30 20 O -4.150743 -0.595775 1.315400 0
M  V30 21 C -3.489621 0.454723 0.740423 0
M  V30 22 C -3.025207 1.429305 1.763567 0
M  V30 23 C 0.694474 1.267019 1.687668 0
M  V30 24 C 1.672487 1.796851 0.729121 0
M  V30 25 C 1.737342 -0.778571 -1.114332 0
M  V30 26 C 2.379825 -1.789021 -1.799341 0
M  V30 27 C 1.922878 -4.964853 0.008091 0
M  V30 28 N 0.953427 -5.462710 0.784699 0
M  V30 29 H -1.347650 -5.895740 1.914665 0
M  V30 30 H -1.693773 -4.148746 1.986949 0
M  V30 31 H -2.255040 -5.110793 0.526221 0
M  V30 32 H -0.550657 -3.028728 -0.689301 0
M  V30 33 H 3.259246 -4.772768 -2.715391 0
M  V30 34 H 4.410730 -2.828092 -3.993804 0
M  V30 35 H 3.193499 1.786406 -2.732435 0
M  V30 36 H 1.799452 2.612649 -1.218986 0
M  V30 37 H -0.359229 2.428165 -1.924576 0
M  V30 38 H -0.489645 0.788702 -1.246666 0
M  V30 39 H -1.920132 2.476641 -0.142496 0
M  V30 40 H -0.380985 3.229850 0.518537 0
M  V30 41 H -0.790870 0.210092 0.650151 0
M  V30 42 H -0.598472 0.000707 3.544004 0
M  V30 43 H -2.206173 0.538836 4.084651 0
M  V30 44 H -1.688312 -1.498841 1.851244 0
M  V30 45 H -2.051808 -1.816828 3.549208 0
M  V30 46 H -4.149124 -2.042352 2.696418 0
M  V30 47 H -4.116731 -0.435203 3.409213 0
M  V30 48 H -4.234717 0.933508 0.032203 0
M  V30 49 H -2.716207 0.047132 0.068725 0
M  V30 50 H -3.170411 2.456859 1.374537 0
M  V30 51 H -3.757766 1.394798 2.638783 0
M  V30 52 H 0.666986 1.927197 2.604611 0
M  V30 53 H 0.971701 0.253776 2.099553 0
M  V30 54 H 2.616638 1.185543 0.849029 0
M  V30 55 H 2.004747 2.822252 1.012360 0
M  V30 56 H 1.034524 -0.982286 -0.347117 0
M  V30 57 H 2.899111 -5.459431 0.058119 0
M  V30 END ATOM
M  V30 BEGIN BOND
M  V30 1 1 1 2
M  V30 2 1 2 3
M  V30 3 2 3 4
M  V30 4 1 4 5
M  V30 5 2 5 6
M  V30 6 1 6 7
M  V30 7 1 7 8
M  V30 8 2 8 9
M  V30 9 1 9 10
M  V30 10 2 10 11
M  V30 11 1 11 12
M  V30 12 1 12 13
M  V30 13 1 13 14
M  V30 14 1 14 15
M  V30 15 1 15 16
M  V30 16 1 16 17
M  V30 17 1 17 18
M  V30 18 1 18 19
M  V30 19 1 19 20
M  V30 20 1 20 21
M  V30 21 1 21 22
M  V30 22 1 15 23
M  V30 23 1 23 24
M  V30 24 1 11 25
M  V30 25 2 25 26
M  V30 26 1 4 27
M  V30 27 2 27 28
M  V30 28 1 28 2
M  V30 29 1 26 5
M  V30 30 1 26 8
M  V30 31 1 24 12
M  V30 32 1 22 16
M  V30 33 1 1 29
M  V30 34 1 1 30
M  V30 35 1 1 31
M  V30 36 1 3 32
M  V30 37 1 6 33
M  V30 38 1 7 34
M  V30 39 1 10 35
M  V30 40 1 12 36 CFG=3
M  V30 41 1 13 37
M  V30 42 1 13 38
M  V30 43 1 14 39
M  V30 44 1 14 40
M  V30 45 1 15 41 CFG=3
M  V30 46 1 17 42
M  V30 47 1 17 43
M  V30 48 1 18 44
M  V30 49 1 18 45
M  V30 50 1 19 46
M  V30 51 1 19 47
M  V30 52 1 21 48
M  V30 53 1 21 49
M  V30 54 1 22 50
M  V30 55 1 22 51
M  V30 56 1 23 52
M  V30 57 1 23 53
M  V30 58 1 24 54
M  V30 59 1 24 55
M  V30 60 1 25 56
M  V30 61 1 27 57
M  V30 END BOND
M  V30 END CTAB
M  END
>  <Dataset>  (540) 
ChEMBL_Kinases

>  <Ligand_Instance>  (540) 
nan

>  <PDB_ID>  (540) 
nan

>  <Standardized_SMILES>  (540) 
Cn1cc(-c2c[nH]c3ncc([C@H]4CC[C@H](N5CCCOCC5)CC4)cc23)cn1

>  <Name>  (540) 
nan

>  <Pocket>  (540) 
nan

>  <ATP_Site>  (540) 
nan

>  <Peripheral>  (540) 
nan

>  <Num_H_Atoms_ProtBoundConf>  (540) 
nan

>  <Num_Resolved_Atoms>  (540) 
nan

>  <Num_Not_Resolved_Atoms>  (540) 
nan

$$$$
CHEMBL3393596
     RDKit          3D

  0  0  0  0  0  0  0  0  0  0999 V3000
M  V30 BEGIN CTAB
M  V30 COUNTS 54 58 0 0 0
M  V30 BEGIN ATOM
M  V30 1 C -0.157112 -6.811727 1.666861 0
M  V30 2 N 0.206651 -6.385094 0.321860 0
M  V30 3 C -0.260035 -5.261590 -0.273669 0
M  V30 4 C 0.299933 -5.175266 -1.551755 0
M  V30 5 C -0.008443 -4.068690 -2.451173 0
M  V30 6 C -0.299142 -4.309186 -3.782866 0
M  V30 7 N -0.535457 -3.091535 -4.332669 0
M  V30 8 C -0.400513 -2.135838 -3.396274 0
M  V30 9 N -0.518750 -0.782084 -3.390707 0
M  V30 10 C -0.311688 -0.088841 -2.245416 0
M  V30 11 C 0.023515 -0.659947 -1.029699 0
M  V30 12 C 0.226512 0.192582 0.158205 0 CFG=1
M  V30 13 C -0.738550 -0.039451 1.275913 0
M  V30 14 C -0.003205 0.163669 2.607151 0
M  V30 15 C 0.691786 1.506313 2.526236 0 CFG=2
M  V30 16 N -0.275620 2.493558 2.136609 0
M  V30 17 C 0.296015 3.819597 2.003260 0
M  V30 18 C -0.836262 4.767089 1.663171 0
M  V30 19 O -1.705440 4.935583 2.737971 0
M  V30 20 C -2.256189 3.697192 3.001521 0
M  V30 21 C -1.233468 2.610153 3.247809 0
M  V30 22 C 1.848648 1.360535 1.599612 0
M  V30 23 C 1.669631 0.204020 0.614869 0
M  V30 24 C 0.151868 -2.038338 -1.001369 0
M  V30 25 C -0.066524 -2.714542 -2.188609 0
M  V30 26 C 1.107567 -6.288006 -1.676348 0
M  V30 27 N 1.019435 -6.984880 -0.525979 0
M  V30 28 H 0.426687 -7.701590 1.940291 0
M  V30 29 H -1.260252 -6.983309 1.620738 0
M  V30 30 H -0.018002 -5.997545 2.405897 0
M  V30 31 H -0.954453 -4.572034 0.204654 0
M  V30 32 H -0.338602 -5.255961 -4.308238 0
M  V30 33 H -0.785082 -2.903895 -5.327631 0
M  V30 34 H -0.429571 0.986601 -2.343319 0
M  V30 35 H 0.047210 1.245792 -0.210675 0
M  V30 36 H -1.225368 -1.031953 1.283397 0
M  V30 37 H -1.562369 0.702854 1.271047 0
M  V30 38 H -0.638851 0.027059 3.479233 0
M  V30 39 H 0.810173 -0.618824 2.672772 0
M  V30 40 H 1.042575 1.815017 3.554288 0
M  V30 41 H 1.004288 3.911536 1.147587 0
M  V30 42 H 0.758158 4.096864 2.978772 0
M  V30 43 H -0.469900 5.732335 1.261118 0
M  V30 44 H -1.447415 4.238647 0.877256 0
M  V30 45 H -3.020115 3.398817 2.255820 0
M  V30 46 H -2.808981 3.799633 3.958074 0
M  V30 47 H -0.634922 2.920872 4.123387 0
M  V30 48 H -1.791972 1.694842 3.437938 0
M  V30 49 H 2.715447 1.023081 2.242451 0
M  V30 50 H 2.204542 2.264668 1.108599 0
M  V30 51 H 2.007179 -0.761043 1.027690 0
M  V30 52 H 2.263652 0.498809 -0.291543 0
M  V30 53 H 0.409126 -2.526880 -0.087273 0
M  V30 54 H 1.652616 -6.443123 -2.588146 0
M  V30 END ATOM
M  V30 BEGIN BOND
M  V30 1 1 1 2
M  V30 2 1 2 3
M  V30 3 2 3 4
M  V30 4 1 4 5
M  V30 5 2 5 6
M  V30 6 1 6 7
M  V30 7 1 7 8
M  V30 8 2 8 9
M  V30 9 1 9 10
M  V30 10 2 10 11
M  V30 11 1 11 12
M  V30 12 1 12 13
M  V30 13 1 13 14
M  V30 14 1 14 15
M  V30 15 1 15 16
M  V30 16 1 16 17
M  V30 17 1 17 18
M  V30 18 1 18 19
M  V30 19 1 19 20
M  V30 20 1 20 21
M  V30 21 1 15 22
M  V30 22 1 22 23
M  V30 23 1 11 24
M  V30 24 2 24 25
M  V30 25 1 4 26
M  V30 26 2 26 27
M  V30 27 1 27 2
M  V30 28 1 25 5
M  V30 29 1 25 8
M  V30 30 1 23 12
M  V30 31 1 21 16
M  V30 32 1 1 28
M  V30 33 1 1 29
M  V30 34 1 1 30
M  V30 35 1 3 31
M  V30 36 1 6 32
M  V30 37 1 7 33
M  V30 38 1 10 34
M  V30 39 1 12 35 CFG=3
M  V30 40 1 13 36
M  V30 41 1 13 37
M  V30 42 1 14 38
M  V30 43 1 14 39
M  V30 44 1 15 40 CFG=1
M  V30 45 1 17 41
M  V30 46 1 17 42
M  V30 47 1 18 43
M  V30 48 1 18 44
M  V30 49 1 20 45
M  V30 50 1 20 46
M  V30 51 1 21 47
M  V30 52 1 21 48
M  V30 53 1 22 49
M  V30 54 1 22 50
M  V30 55 1 23 51
M  V30 56 1 23 52
M  V30 57 1 24 53
M  V30 58 1 26 54
M  V30 END BOND
M  V30 END CTAB
M  END
>  <Dataset>  (541) 
ChEMBL_Kinases

>  <Ligand_Instance>  (541) 
nan

>  <PDB_ID>  (541) 
nan

>  <Standardized_SMILES>  (541) 
Cn1cc(-c2c[nH]c3ncc([C@H]4CC[C@H](N5CCOCC5)CC4)cc23)cn1

>  <Name>  (541) 
nan

>  <Pocket>  (541) 
nan

>  <ATP_Site>  (541) 
nan

>  <Peripheral>  (541) 
nan

>  <Num_H_Atoms_ProtBoundConf>  (541) 
nan

>  <Num_Resolved_Atoms>  (541) 
nan

>  <Num_Not_Resolved_Atoms>  (541) 
nan

$$$$
CHEMBL3393595
     RDKit          3D

  0  0  0  0  0  0  0  0  0  0999 V3000
M  V30 BEGIN CTAB
M  V30 COUNTS 40 43 0 0 0
M  V30 BEGIN ATOM
M  V30 1 C 3.075549 -5.696844 0.065206 0
M  V30 2 N 2.440030 -4.796296 1.002209 0
M  V30 3 C 2.146582 -5.213106 2.360436 0
M  V30 4 C 2.050643 -3.458750 0.701368 0
M  V30 5 C 1.441217 -2.585704 1.584783 0
M  V30 6 C 1.093454 -1.303080 1.217721 0
M  V30 7 C 1.335999 -0.823924 -0.052271 0
M  V30 8 C 0.922084 0.549978 -0.321549 0
M  V30 9 C 1.560226 1.395740 -1.205561 0
M  V30 10 N 1.159870 2.657358 -1.436388 0
M  V30 11 C 0.088447 3.188571 -0.807229 0
M  V30 12 N -0.550094 4.369637 -0.810901 0
M  V30 13 C -1.603653 4.331072 0.053572 0
M  V30 14 C -1.651881 3.067038 0.646102 0
M  V30 15 C -2.610953 2.578690 1.631311 0
M  V30 16 C -2.445938 1.856978 2.801846 0
M  V30 17 N -3.647193 1.654868 3.355708 0
M  V30 18 N -4.543189 2.214379 2.587381 0
M  V30 19 C -3.972641 2.795239 1.517745 0
M  V30 20 C -0.583217 2.388468 0.083660 0
M  V30 21 C -0.179626 1.088967 0.328481 0
M  V30 22 C 1.942770 -1.672473 -0.954583 0
M  V30 23 C 2.285066 -2.964091 -0.560776 0
M  V30 24 H 2.858390 -5.507640 -0.983919 0
M  V30 25 H 2.779886 -6.760278 0.252954 0
M  V30 26 H 4.170645 -5.620693 0.213266 0
M  V30 27 H 2.469273 -6.246574 2.475891 0
M  V30 28 H 2.750734 -4.616084 3.092055 0
M  V30 29 H 1.101860 -5.015799 2.604701 0
M  V30 30 H 1.252196 -2.967935 2.583876 0
M  V30 31 H 0.619708 -0.722241 2.013054 0
M  V30 32 H 2.419096 0.979824 -1.714131 0
M  V30 33 H -0.246519 5.170697 -1.405888 0
M  V30 34 H -2.301947 5.145696 0.258337 0
M  V30 35 H -1.442945 1.575888 3.087485 0
M  V30 36 H -5.540628 2.129125 2.910297 0
M  V30 37 H -4.586480 3.294156 0.798192 0
M  V30 38 H -0.722657 0.471610 1.035579 0
M  V30 39 H 2.119688 -1.269531 -1.939945 0
M  V30 40 H 2.749632 -3.511380 -1.364247 0
M  V30 END ATOM
M  V30 BEGIN BOND
M  V30 1 1 1 2
M  V30 2 1 2 3
M  V30 3 1 2 4
M  V30 4 2 4 5
M  V30 5 1 5 6
M  V30 6 2 6 7
M  V30 7 1 7 8
M  V30 8 2 8 9
M  V30 9 1 9 10
M  V30 10 2 10 11
M  V30 11 1 11 12
M  V30 12 1 12 13
M  V30 13 2 13 14
M  V30 14 1 14 15
M  V30 15 1 15 16
M  V30 16 2 16 17
M  V30 17 1 17 18
M  V30 18 1 18 19
M  V30 19 1 14 20
M  V30 20 2 20 21
M  V30 21 1 7 22
M  V30 22 2 22 23
M  V30 23 1 23 4
M  V30 24 1 21 8
M  V30 25 1 20 11
M  V30 26 2 19 15
M  V30 27 1 1 24
M  V30 28 1 1 25
M  V30 29 1 1 26
M  V30 30 1 3 27
M  V30 31 1 3 28
M  V30 32 1 3 29
M  V30 33 1 5 30
M  V30 34 1 6 31
M  V30 35 1 9 32
M  V30 36 1 12 33
M  V30 37 1 13 34
M  V30 38 1 16 35
M  V30 39 1 18 36
M  V30 40 1 19 37
M  V30 41 1 21 38
M  V30 42 1 22 39
M  V30 43 1 23 40
M  V30 END BOND
M  V30 END CTAB
M  END
>  <Dataset>  (542) 
ChEMBL_Kinases

>  <Ligand_Instance>  (542) 
nan

>  <PDB_ID>  (542) 
nan

>  <Standardized_SMILES>  (542) 
CN(C)c1ccc(-c2cnc3[nH]cc(-c4cn[nH]c4)c3c2)cc1

>  <Name>  (542) 
nan

>  <Pocket>  (542) 
nan

>  <ATP_Site>  (542) 
nan

>  <Peripheral>  (542) 
nan

>  <Num_H_Atoms_ProtBoundConf>  (542) 
nan

>  <Num_Resolved_Atoms>  (542) 
nan

>  <Num_Not_Resolved_Atoms>  (542) 
nan

$$$$
CHEMBL3393445
     RDKit          3D

  0  0  0  0  0  0  0  0  0  0999 V3000
M  V30 BEGIN CTAB
M  V30 COUNTS 39 42 0 0 0
M  V30 BEGIN ATOM
M  V30 1 N -2.090885 -5.026594 -0.121219 0
M  V30 2 C -1.177548 -4.401478 0.236334 0
M  V30 3 C -0.064226 -3.619587 0.688934 0
M  V30 4 C 0.635702 -4.040486 1.795253 0
M  V30 5 C 1.704865 -3.281748 2.207234 0
M  V30 6 C 2.025694 -2.140405 1.498137 0
M  V30 7 C 1.316331 -1.703560 0.368219 0
M  V30 8 C 1.924363 -0.505568 -0.168588 0
M  V30 9 C 3.232666 -0.576133 -0.679071 0
M  V30 10 N 3.622416 0.636202 -1.171536 0
M  V30 11 C 2.620287 1.512719 -1.006443 0
M  V30 12 N 2.409883 2.817759 -1.257385 0
M  V30 13 C 1.235619 3.370470 -0.909809 0
M  V30 14 N 0.218534 2.686234 -0.307190 0
M  V30 15 C 0.405726 1.357874 -0.042116 0
M  V30 16 N -0.768964 0.831134 0.549840 0
M  V30 17 C -1.942161 0.071845 0.088367 0
M  V30 18 C -2.498890 -0.864446 1.089986 0
M  V30 19 O -1.853868 -0.802283 2.323980 0
M  V30 20 C -1.781319 0.541023 2.727007 0
M  V30 21 C -1.535573 0.536529 4.160157 0
M  V30 22 N -1.344896 0.545349 5.304718 0
M  V30 23 C -0.646245 1.209152 1.958294 0
M  V30 24 C 1.610276 0.806564 -0.402624 0
M  V30 25 C 0.264996 -2.482680 -0.007116 0
M  V30 26 H 0.318839 -4.940073 2.288325 0
M  V30 27 H 2.230254 -3.642528 3.078323 0
M  V30 28 H 2.900111 -1.644630 1.948538 0
M  V30 29 H 3.903371 -1.421308 -0.717498 0
M  V30 30 H 4.527141 0.869674 -1.603136 0
M  V30 31 H 1.159108 4.440764 -1.155357 0
M  V30 32 H -1.773746 -0.368023 -0.908943 0
M  V30 33 H -2.695600 0.912105 -0.097290 0
M  V30 34 H -2.480624 -1.878918 0.656596 0
M  V30 35 H -3.585604 -0.596713 1.262501 0
M  V30 36 H -2.722757 1.072360 2.511930 0
M  V30 37 H 0.318391 0.888387 2.404672 0
M  V30 38 H -0.814421 2.295959 2.023232 0
M  V30 39 H -0.220283 -2.105746 -0.869141 0
M  V30 END ATOM
M  V30 BEGIN BOND
M  V30 1 3 1 2
M  V30 2 1 2 3
M  V30 3 2 3 4
M  V30 4 1 4 5
M  V30 5 2 5 6
M  V30 6 1 6 7
M  V30 7 1 7 8
M  V30 8 2 8 9
M  V30 9 1 9 10
M  V30 10 1 10 11
M  V30 11 2 11 12
M  V30 12 1 12 13
M  V30 13 2 13 14
M  V30 14 1 14 15
M  V30 15 1 15 16
M  V30 16 1 16 17
M  V30 17 1 17 18
M  V30 18 1 18 19
M  V30 19 1 19 20
M  V30 20 1 20 21
M  V30 21 3 21 22
M  V30 22 1 20 23
M  V30 23 2 15 24
M  V30 24 2 7 25
M  V30 25 1 25 3
M  V30 26 1 24 8
M  V30 27 1 24 11
M  V30 28 1 23 16
M  V30 29 1 4 26
M  V30 30 1 5 27
M  V30 31 1 6 28
M  V30 32 1 9 29
M  V30 33 1 10 30
M  V30 34 1 13 31
M  V30 35 1 17 32
M  V30 36 1 17 33
M  V30 37 1 18 34
M  V30 38 1 18 35
M  V30 39 1 20 36
M  V30 40 1 23 37
M  V30 41 1 23 38
M  V30 42 1 25 39
M  V30 END BOND
M  V30 END CTAB
M  END
>  <Dataset>  (543) 
ChEMBL_Kinases

>  <Ligand_Instance>  (543) 
nan

>  <PDB_ID>  (543) 
nan

>  <Standardized_SMILES>  (543) 
N#Cc1cccc(-c2c[nH]c3ncnc(N4CCOC(C#N)C4)c23)c1

>  <Name>  (543) 
nan

>  <Pocket>  (543) 
nan

>  <ATP_Site>  (543) 
nan

>  <Peripheral>  (543) 
nan

>  <Num_H_Atoms_ProtBoundConf>  (543) 
nan

>  <Num_Resolved_Atoms>  (543) 
nan

>  <Num_Not_Resolved_Atoms>  (543) 
nan

$$$$
CHEMBL3393498
     RDKit          3D

  0  0  0  0  0  0  0  0  0  0999 V3000
M  V30 BEGIN CTAB
M  V30 COUNTS 59 64 0 0 0
M  V30 BEGIN ATOM
M  V30 1 C 7.646561 1.173753 4.257725 0
M  V30 2 C 7.148429 0.913667 2.825378 0
M  V30 3 O 5.751112 1.102124 2.875805 0
M  V30 4 C 4.861545 0.975456 1.844337 0
M  V30 5 O 5.935195 0.705380 1.268553 0
M  V30 6 C 3.438500 1.188833 1.982320 0
M  V30 7 N 2.889114 1.536837 3.155963 0
M  V30 8 C 1.585872 1.628238 2.860288 0
M  V30 9 C 1.322776 1.341194 1.517437 0
M  V30 10 C 2.546532 1.053859 0.950869 0
M  V30 11 N 2.521614 0.729656 -0.414232 0
M  V30 12 C 1.292006 0.709309 -1.132299 0
M  V30 13 C 0.147171 0.994119 -0.534947 0
M  V30 14 C -1.120914 0.972747 -1.278058 0
M  V30 15 O -2.250075 1.217973 -0.734733 0
M  V30 16 C -1.107307 0.649529 -2.744687 0
M  V30 17 C 0.022121 -0.336369 -2.942032 0
M  V30 18 C 1.335040 0.356208 -2.584725 0
M  V30 19 C -0.003452 1.357330 0.895417 0 CFG=1
M  V30 20 C -0.911261 0.320424 1.505096 0
M  V30 21 C -1.594465 0.793606 2.607556 0
M  V30 22 C -2.471648 -0.007390 3.308738 0
M  V30 23 C -2.627211 -1.297864 2.850409 0
M  V30 24 C -1.947328 -1.799443 1.737625 0
M  V30 25 O -2.135882 -3.102521 1.316463 0
M  V30 26 C -3.098135 -3.487918 0.410025 0
M  V30 27 N -3.052303 -4.833392 0.186176 0
M  V30 28 C -4.017846 -5.171663 -0.713734 0
M  V30 29 C -4.488727 -6.308022 -1.341418 0
M  V30 30 C -5.547186 -6.240636 -2.240989 0
M  V30 31 C -6.170185 -5.035437 -2.543142 0
M  V30 32 C -5.710974 -3.885121 -1.922830 0
M  V30 33 C -4.661498 -3.983143 -1.037045 0
M  V30 34 N -4.088520 -2.982872 -0.346120 0
M  V30 35 C -1.078361 -0.972858 1.059960 0
M  V30 36 H 7.064729 2.066666 4.606510 0
M  V30 37 H 7.318371 0.337755 4.898767 0
M  V30 38 H 8.736893 1.345889 4.281022 0
M  V30 39 H 7.461859 -0.112254 2.596918 0
M  V30 40 H 7.662469 1.598754 2.119347 0
M  V30 41 H 3.360896 1.693978 4.062719 0
M  V30 42 H 0.876155 1.904078 3.649001 0
M  V30 43 H 3.448408 0.509310 -0.854492 0
M  V30 44 H -0.998015 1.564476 -3.348005 0
M  V30 45 H -2.076068 0.144307 -2.968323 0
M  V30 46 H -0.114071 -1.123859 -2.170434 0
M  V30 47 H 0.054237 -0.773055 -3.952920 0
M  V30 48 H 2.131250 -0.404200 -2.802459 0
M  V30 49 H 1.432048 1.251698 -3.239391 0
M  V30 50 H -0.484759 2.362810 0.935181 0
M  V30 51 H -1.503427 1.815182 3.012040 0
M  V30 52 H -3.064341 0.238517 4.179889 0
M  V30 53 H -3.290278 -2.003387 3.330335 0
M  V30 54 H -3.990287 -7.235272 -1.093615 0
M  V30 55 H -5.812776 -7.222299 -2.663731 0
M  V30 56 H -6.985511 -5.078298 -3.252803 0
M  V30 57 H -6.190794 -2.947313 -2.153429 0
M  V30 58 H -4.221014 -1.959774 -0.259540 0
M  V30 59 H -0.507414 -1.264237 0.191811 0
M  V30 END ATOM
M  V30 BEGIN BOND
M  V30 1 1 1 2
M  V30 2 1 2 3
M  V30 3 1 3 4
M  V30 4 2 4 5
M  V30 5 1 4 6
M  V30 6 1 6 7
M  V30 7 1 7 8
M  V30 8 2 8 9
M  V30 9 1 9 10
M  V30 10 1 10 11
M  V30 11 1 11 12
M  V30 12 2 12 13
M  V30 13 1 13 14
M  V30 14 2 14 15
M  V30 15 1 14 16
M  V30 16 1 16 17
M  V30 17 1 17 18
M  V30 18 1 13 19
M  V30 19 1 19 20
M  V30 20 2 20 21
M  V30 21 1 21 22
M  V30 22 2 22 23
M  V30 23 1 23 24
M  V30 24 1 24 25
M  V30 25 1 25 26
M  V30 26 2 26 27
M  V30 27 1 27 28
M  V30 28 2 28 29
M  V30 29 1 29 30
M  V30 30 2 30 31
M  V30 31 1 31 32
M  V30 32 2 32 33
M  V30 33 1 33 34
M  V30 34 2 24 35
M  V30 35 2 10 6
M  V30 36 1 18 12
M  V30 37 1 35 20
M  V30 38 1 19 9
M  V30 39 1 34 26
M  V30 40 1 33 28
M  V30 41 1 1 36
M  V30 42 1 1 37
M  V30 43 1 1 38
M  V30 44 1 2 39
M  V30 45 1 2 40
M  V30 46 1 7 41
M  V30 47 1 8 42
M  V30 48 1 11 43
M  V30 49 1 16 44
M  V30 50 1 16 45
M  V30 51 1 17 46
M  V30 52 1 17 47
M  V30 53 1 18 48
M  V30 54 1 18 49
M  V30 55 1 19 50 CFG=3
M  V30 56 1 21 51
M  V30 57 1 22 52
M  V30 58 1 23 53
M  V30 59 1 29 54
M  V30 60 1 30 55
M  V30 61 1 31 56
M  V30 62 1 32 57
M  V30 63 1 34 58
M  V30 64 1 35 59
M  V30 END BOND
M  V30 END CTAB
M  END
>  <Dataset>  (544) 
ChEMBL_Kinases

>  <Ligand_Instance>  (544) 
nan

>  <PDB_ID>  (544) 
nan

>  <Standardized_SMILES>  (544) 
CCOC(=O)c1[nH]cc2c1NC1=C(C(=O)CCC1)[C@H]2c1cccc(Oc2nc3ccccc3[nH]2)c1

>  <Name>  (544) 
nan

>  <Pocket>  (544) 
nan

>  <ATP_Site>  (544) 
nan

>  <Peripheral>  (544) 
nan

>  <Num_H_Atoms_ProtBoundConf>  (544) 
nan

>  <Num_Resolved_Atoms>  (544) 
nan

>  <Num_Not_Resolved_Atoms>  (544) 
nan

$$$$
CHEMBL4795743
     RDKit          3D

  0  0  0  0  0  0  0  0  0  0999 V3000
M  V30 BEGIN CTAB
M  V30 COUNTS 63 68 0 0 0
M  V30 BEGIN ATOM
M  V30 1 C 4.812548 -2.747175 -1.309956 0
M  V30 2 C 3.629312 -2.924758 -2.269024 0
M  V30 3 C 3.097413 -1.532345 -2.464564 0
M  V30 4 O 3.753596 -0.655501 -1.807941 0
M  V30 5 N 2.008881 -1.067545 -3.246417 0
M  V30 6 C 1.979194 0.360763 -3.040757 0
M  V30 7 C 2.731804 1.095333 -3.931902 0
M  V30 8 N 2.697009 2.432064 -3.728069 0
M  V30 9 C 1.971284 2.973933 -2.720360 0
M  V30 10 C 1.222040 2.233843 -1.834164 0
M  V30 11 C 0.494385 2.960584 -0.801664 0
M  V30 12 C -0.292510 2.350676 0.149571 0
M  V30 13 C -0.970072 3.038733 1.112908 0
M  V30 14 C -1.793121 2.647232 2.137182 0
M  V30 15 C -2.239702 1.342127 2.561815 0
M  V30 16 C -2.063111 0.042488 2.179579 0
M  V30 17 C -2.751858 -0.851781 2.968139 0
M  V30 18 C -2.839227 -2.226654 2.919391 0
M  V30 19 N -2.141304 -2.992760 1.928260 0
M  V30 20 C -2.354940 -2.823794 0.508476 0
M  V30 21 C -1.029632 -2.876456 -0.188494 0
M  V30 22 N -0.265275 -4.008718 0.225781 0
M  V30 23 C -0.744591 -5.283851 -0.183980 0
M  V30 24 C 0.056475 -3.885262 1.625423 0
M  V30 25 C -1.203256 -3.959346 2.464654 0
M  V30 26 N -3.619701 -2.812738 3.862540 0
M  V30 27 C -4.280907 -2.104472 4.803752 0
M  V30 28 C -4.169946 -0.724017 4.822790 0
M  V30 29 C -3.394145 -0.060296 3.894788 0
M  V30 30 N -3.067633 1.214356 3.621205 0
M  V30 31 N -2.126633 3.798270 2.708046 0
M  V30 32 N -1.572759 4.835308 2.110609 0
M  V30 33 C -0.824541 4.412871 1.086973 0
M  V30 34 C -0.051083 5.043913 0.155734 0
M  V30 35 N 0.589042 4.290223 -0.766658 0
M  V30 36 C 1.228862 0.874799 -2.004385 0
M  V30 37 H 5.169887 -3.698120 -0.914636 0
M  V30 38 H 4.492651 -2.051870 -0.496941 0
M  V30 39 H 5.654147 -2.236079 -1.819931 0
M  V30 40 H 2.892551 -3.552967 -1.766055 0
M  V30 41 H 4.020494 -3.297300 -3.220508 0
M  V30 42 H 1.532225 -1.871945 -3.750432 0
M  V30 43 H 3.299217 0.646886 -4.722665 0
M  V30 44 H 2.031761 4.062148 -2.670001 0
M  V30 45 H -0.363281 1.286933 0.115340 0
M  V30 46 H -1.452748 -0.262236 1.351201 0
M  V30 47 H -2.950222 -1.939121 0.262982 0
M  V30 48 H -2.923140 -3.735249 0.171806 0
M  V30 49 H -0.405074 -1.975515 0.053734 0
M  V30 50 H -1.133246 -2.841594 -1.297059 0
M  V30 51 H -0.288727 -6.057521 0.489903 0
M  V30 52 H -0.330434 -5.537849 -1.203735 0
M  V30 53 H -1.830249 -5.390073 -0.296729 0
M  V30 54 H 0.775639 -4.650103 1.972090 0
M  V30 55 H 0.451638 -2.855084 1.767533 0
M  V30 56 H -1.693198 -4.963537 2.293444 0
M  V30 57 H -0.963804 -3.801899 3.515321 0
M  V30 58 H -4.892965 -2.632153 5.535177 0
M  V30 59 H -4.682702 -0.144574 5.556209 0
M  V30 60 H -3.489676 1.939032 4.254282 0
M  V30 61 H -1.731541 5.813111 2.433855 0
M  V30 62 H 0.024725 6.123066 0.185439 0
M  V30 63 H 0.654714 0.280999 -1.328611 0
M  V30 END ATOM
M  V30 BEGIN BOND
M  V30 1 1 1 2
M  V30 2 1 2 3
M  V30 3 2 3 4
M  V30 4 1 3 5
M  V30 5 1 5 6
M  V30 6 2 6 7
M  V30 7 1 7 8
M  V30 8 2 8 9
M  V30 9 1 9 10
M  V30 10 1 10 11
M  V30 11 2 11 12
M  V30 12 1 12 13
M  V30 13 1 13 14
M  V30 14 1 14 15
M  V30 15 2 15 16
M  V30 16 1 16 17
M  V30 17 2 17 18
M  V30 18 1 18 19
M  V30 19 1 19 20
M  V30 20 1 20 21
M  V30 21 1 21 22
M  V30 22 1 22 23
M  V30 23 1 22 24
M  V30 24 1 24 25
M  V30 25 1 18 26
M  V30 26 2 26 27
M  V30 27 1 27 28
M  V30 28 2 28 29
M  V30 29 1 29 30
M  V30 30 2 14 31
M  V30 31 1 31 32
M  V30 32 1 32 33
M  V30 33 1 33 34
M  V30 34 2 34 35
M  V30 35 2 10 36
M  V30 36 1 36 6
M  V30 37 1 35 11
M  V30 38 2 33 13
M  V30 39 1 30 15
M  V30 40 1 29 17
M  V30 41 1 25 19
M  V30 42 1 1 37
M  V30 43 1 1 38
M  V30 44 1 1 39
M  V30 45 1 2 40
M  V30 46 1 2 41
M  V30 47 1 5 42
M  V30 48 1 7 43
M  V30 49 1 9 44
M  V30 50 1 12 45
M  V30 51 1 16 46
M  V30 52 1 20 47
M  V30 53 1 20 48
M  V30 54 1 21 49
M  V30 55 1 21 50
M  V30 56 1 23 51
M  V30 57 1 23 52
M  V30 58 1 23 53
M  V30 59 1 24 54
M  V30 60 1 24 55
M  V30 61 1 25 56
M  V30 62 1 25 57
M  V30 63 1 27 58
M  V30 64 1 28 59
M  V30 65 1 30 60
M  V30 66 1 32 61
M  V30 67 1 34 62
M  V30 68 1 36 63
M  V30 END BOND
M  V30 END CTAB
M  END
>  <Dataset>  (545) 
ChEMBL_Kinases

>  <Ligand_Instance>  (545) 
nan

>  <PDB_ID>  (545) 
nan

>  <Standardized_SMILES>  (545) 
CCC(=O)Nc1cncc(-c2cc3c(-c4cc5c(N6CCN(C)CC6)nccc5[nH]4)n[nH]c3cn2)c1

>  <Name>  (545) 
nan

>  <Pocket>  (545) 
nan

>  <ATP_Site>  (545) 
nan

>  <Peripheral>  (545) 
nan

>  <Num_H_Atoms_ProtBoundConf>  (545) 
nan

>  <Num_Resolved_Atoms>  (545) 
nan

>  <Num_Not_Resolved_Atoms>  (545) 
nan

$$$$
CHEMBL4795539
     RDKit          3D

  0  0  0  0  0  0  0  0  0  0999 V3000
M  V30 BEGIN CTAB
M  V30 COUNTS 60 65 0 0 0
M  V30 BEGIN ATOM
M  V30 1 C 2.884812 -3.389209 2.247018 0
M  V30 2 C 3.600005 -2.980422 0.986177 0
M  V30 3 C 3.110266 -1.671627 0.479655 0
M  V30 4 O 2.195167 -1.306876 1.234382 0
M  V30 5 N 3.556917 -0.926619 -0.641662 0
M  V30 6 C 3.003703 0.321827 -1.029153 0
M  V30 7 C 3.791632 1.011998 -1.935125 0
M  V30 8 N 3.468805 2.235147 -2.386494 0
M  V30 9 C 2.348810 2.842000 -1.964492 0
M  V30 10 C 1.521068 2.233450 -1.077623 0
M  V30 11 C 0.405214 2.894446 -0.424102 0
M  V30 12 C 0.448466 4.250869 -0.489390 0
M  V30 13 C -0.452946 4.950205 0.315729 0
M  V30 14 C -1.275939 4.150309 1.073180 0
M  V30 15 N -2.182799 4.553209 1.957676 0
M  V30 16 N -2.633231 3.503044 2.393625 0
M  V30 17 C -2.411412 2.301620 2.172752 0
M  V30 18 C -2.222609 0.876330 2.012145 0
M  V30 19 N -1.778734 -0.174633 1.340999 0
M  V30 20 C -2.146566 -1.316322 1.897727 0
M  V30 21 C -1.874018 -2.578940 1.459204 0
M  V30 22 N -1.201555 -2.859392 0.259607 0
M  V30 23 C -2.033285 -2.508065 -0.905128 0
M  V30 24 C -2.662853 -3.858156 -1.302735 0
M  V30 25 C -1.561664 -4.809930 -1.611786 0
M  V30 26 C -0.168089 -4.276257 -1.452870 0
M  V30 27 C 0.044235 -3.394795 -0.261995 0
M  V30 28 C -2.342111 -3.661542 2.159809 0
M  V30 29 N -3.082119 -3.423750 3.289416 0
M  V30 30 C -3.324039 -2.160857 3.673933 0
M  V30 31 C -2.879019 -1.038022 3.011475 0
M  V30 32 N -2.918529 0.321393 3.068397 0
M  V30 33 C -1.392862 2.757306 1.194145 0
M  V30 34 N -0.441381 2.245060 0.345424 0
M  V30 35 C 1.856876 0.957490 -0.609522 0
M  V30 36 H 3.498019 -3.341226 3.160510 0
M  V30 37 H 2.484770 -4.436973 2.212313 0
M  V30 38 H 2.006042 -2.731585 2.420550 0
M  V30 39 H 4.702320 -2.953349 1.151481 0
M  V30 40 H 3.433392 -3.773283 0.198189 0
M  V30 41 H 4.330395 -1.418511 -1.131214 0
M  V30 42 H 4.739755 0.707737 -2.406700 0
M  V30 43 H 2.059465 3.812777 -2.308846 0
M  V30 44 H 1.055778 4.934308 -1.053842 0
M  V30 45 H -0.518643 6.022263 0.359794 0
M  V30 46 H -2.551856 5.482517 2.319928 0
M  V30 47 H -1.440017 -2.176043 -1.777988 0
M  V30 48 H -2.818094 -1.788653 -0.650084 0
M  V30 49 H -3.311326 -3.746468 -2.197288 0
M  V30 50 H -3.276944 -4.160409 -0.407327 0
M  V30 51 H -1.647361 -5.106905 -2.697086 0
M  V30 52 H -1.708794 -5.780720 -1.059951 0
M  V30 53 H 0.184704 -3.764268 -2.394730 0
M  V30 54 H 0.520136 -5.160289 -1.328355 0
M  V30 55 H 0.641476 -2.532475 -0.611962 0
M  V30 56 H 0.612705 -3.892926 0.545500 0
M  V30 57 H -2.143763 -4.672618 1.842278 0
M  V30 58 H -3.915392 -1.966947 4.578418 0
M  V30 59 H -3.483678 0.621843 3.932410 0
M  V30 60 H 1.253371 0.406951 0.088473 0
M  V30 END ATOM
M  V30 BEGIN BOND
M  V30 1 1 1 2
M  V30 2 1 2 3
M  V30 3 2 3 4
M  V30 4 1 3 5
M  V30 5 1 5 6
M  V30 6 2 6 7
M  V30 7 1 7 8
M  V30 8 2 8 9
M  V30 9 1 9 10
M  V30 10 1 10 11
M  V30 11 2 11 12
M  V30 12 1 12 13
M  V30 13 2 13 14
M  V30 14 1 14 15
M  V30 15 1 15 16
M  V30 16 2 16 17
M  V30 17 1 17 18
M  V30 18 2 18 19
M  V30 19 1 19 20
M  V30 20 2 20 21
M  V30 21 1 21 22
M  V30 22 1 22 23
M  V30 23 1 23 24
M  V30 24 1 24 25
M  V30 25 1 25 26
M  V30 26 1 26 27
M  V30 27 1 21 28
M  V30 28 2 28 29
M  V30 29 1 29 30
M  V30 30 2 30 31
M  V30 31 1 31 32
M  V30 32 1 17 33
M  V30 33 2 33 34
M  V30 34 2 10 35
M  V30 35 1 35 6
M  V30 36 1 34 11
M  V30 37 1 33 14
M  V30 38 1 32 18
M  V30 39 1 31 20
M  V30 40 1 27 22
M  V30 41 1 1 36
M  V30 42 1 1 37
M  V30 43 1 1 38
M  V30 44 1 2 39
M  V30 45 1 2 40
M  V30 46 1 5 41
M  V30 47 1 7 42
M  V30 48 1 9 43
M  V30 49 1 12 44
M  V30 50 1 13 45
M  V30 51 1 15 46
M  V30 52 1 23 47
M  V30 53 1 23 48
M  V30 54 1 24 49
M  V30 55 1 24 50
M  V30 56 1 25 51
M  V30 57 1 25 52
M  V30 58 1 26 53
M  V30 59 1 26 54
M  V30 60 1 27 55
M  V30 61 1 27 56
M  V30 62 1 28 57
M  V30 63 1 30 58
M  V30 64 1 32 59
M  V30 65 1 35 60
M  V30 END BOND
M  V30 END CTAB
M  END
>  <Dataset>  (546) 
ChEMBL_Kinases

>  <Ligand_Instance>  (546) 
nan

>  <PDB_ID>  (546) 
nan

>  <Standardized_SMILES>  (546) 
CCC(=O)Nc1cncc(-c2ccc3[nH]nc(-c4nc5c(N6CCCCC6)cncc5[nH]4)c3n2)c1

>  <Name>  (546) 
nan

>  <Pocket>  (546) 
nan

>  <ATP_Site>  (546) 
nan

>  <Peripheral>  (546) 
nan

>  <Num_H_Atoms_ProtBoundConf>  (546) 
nan

>  <Num_Resolved_Atoms>  (546) 
nan

>  <Num_Not_Resolved_Atoms>  (546) 
nan

$$$$
CHEMBL4795493
     RDKit          3D

  0  0  0  0  0  0  0  0  0  0999 V3000
M  V30 BEGIN CTAB
M  V30 COUNTS 59 65 0 0 0
M  V30 BEGIN ATOM
M  V30 1 C 2.575573 -3.535999 1.789040 0
M  V30 2 C 2.869910 -2.514601 0.750790 0
M  V30 3 C 3.302719 -1.210142 0.844077 0
M  V30 4 N 3.423669 -0.688367 -0.414395 0
M  V30 5 C 3.874568 0.658161 -0.386523 0
M  V30 6 C 5.196615 0.902510 -0.677904 0
M  V30 7 C 5.641295 2.201268 -0.638370 0
M  V30 8 N 4.779896 3.167611 -0.321229 0
M  V30 9 C 3.492273 2.916484 -0.039140 0
M  V30 10 N 2.442696 3.711744 0.306284 0
M  V30 11 C 1.312896 2.985095 0.497130 0
M  V30 12 C 0.065499 3.619171 0.889673 0
M  V30 13 N -0.072165 4.937194 1.097789 0
M  V30 14 N -1.289781 5.260154 1.446130 0
M  V30 15 C -1.949924 4.089758 1.457408 0
M  V30 16 C -3.285102 3.797163 1.752413 0
M  V30 17 C -3.693700 2.483039 1.678732 0
M  V30 18 C -2.890045 1.421114 1.335321 0
M  V30 19 C -3.434915 0.074440 1.269618 0
M  V30 20 C -4.745491 -0.130219 1.584388 0
M  V30 21 N -5.240048 -1.381351 1.505507 0
M  V30 22 C -4.479656 -2.426414 1.126634 0
M  V30 23 C -3.174114 -2.299458 0.799783 0
M  V30 24 N -2.314251 -3.340088 0.391263 0
M  V30 25 C -2.581050 -4.708941 0.264958 0
M  V30 26 O -3.720456 -5.126546 0.543065 0
M  V30 27 C -1.596833 -5.727185 -0.182857 0
M  V30 28 C -1.130714 -5.499918 -1.601684 0
M  V30 29 C 0.226671 -5.100847 -1.077580 0
M  V30 30 C -0.194943 -5.504508 0.291857 0
M  V30 31 C -2.689599 -1.015041 0.887314 0
M  V30 32 N -1.608303 1.756243 1.060195 0
M  V30 33 C -1.153823 3.018231 1.115811 0
M  V30 34 N 1.637765 1.701266 0.271574 0
M  V30 35 C 2.956347 1.626835 -0.055995 0
M  V30 36 C 3.068617 -1.663127 -1.263382 0
M  V30 37 N 2.736343 -2.759233 -0.564531 0
M  V30 38 H 2.667585 -4.555352 1.367074 0
M  V30 39 H 3.294712 -3.481798 2.637143 0
M  V30 40 H 1.572233 -3.432229 2.210209 0
M  V30 41 H 3.462840 -0.849888 1.874875 0
M  V30 42 H 5.861235 0.089277 -0.930175 0
M  V30 43 H 6.670346 2.436393 -0.860032 0
M  V30 44 H 2.612592 4.761369 0.384982 0
M  V30 45 H -1.689138 6.187687 1.668946 0
M  V30 46 H -3.923371 4.638072 2.024385 0
M  V30 47 H -4.739500 2.412671 1.930561 0
M  V30 48 H -5.458062 0.604096 1.898430 0
M  V30 49 H -4.984154 -3.374974 1.100819 0
M  V30 50 H -1.324414 -3.110562 0.134904 0
M  V30 51 H -1.966296 -6.766817 -0.089178 0
M  V30 52 H -1.117639 -6.408330 -2.241769 0
M  V30 53 H -1.714797 -4.687975 -2.104669 0
M  V30 54 H 1.012099 -5.762084 -1.509502 0
M  V30 55 H 0.373293 -4.020965 -1.284772 0
M  V30 56 H 0.295464 -6.459269 0.611052 0
M  V30 57 H -0.079947 -4.782449 1.116356 0
M  V30 58 H -1.639684 -0.784501 0.646739 0
M  V30 59 H 3.125033 -1.362799 -2.309996 0
M  V30 END ATOM
M  V30 BEGIN BOND
M  V30 1 1 1 2
M  V30 2 2 2 3
M  V30 3 1 3 4
M  V30 4 1 4 5
M  V30 5 2 5 6
M  V30 6 1 6 7
M  V30 7 2 7 8
M  V30 8 1 8 9
M  V30 9 1 9 10
M  V30 10 1 10 11
M  V30 11 1 11 12
M  V30 12 2 12 13
M  V30 13 1 13 14
M  V30 14 1 14 15
M  V30 15 2 15 16
M  V30 16 1 16 17
M  V30 17 2 17 18
M  V30 18 1 18 19
M  V30 19 2 19 20
M  V30 20 1 20 21
M  V30 21 2 21 22
M  V30 22 1 22 23
M  V30 23 1 23 24
M  V30 24 1 24 25
M  V30 25 2 25 26
M  V30 26 1 25 27
M  V30 27 1 27 28
M  V30 28 1 28 29
M  V30 29 1 29 30
M  V30 30 2 23 31
M  V30 31 1 18 32
M  V30 32 2 32 33
M  V30 33 2 11 34
M  V30 34 1 34 35
M  V30 35 1 4 36
M  V30 36 2 36 37
M  V30 37 1 37 2
M  V30 38 1 35 5
M  V30 39 2 35 9
M  V30 40 1 33 12
M  V30 41 1 33 15
M  V30 42 1 31 19
M  V30 43 1 30 27
M  V30 44 1 1 38
M  V30 45 1 1 39
M  V30 46 1 1 40
M  V30 47 1 3 41
M  V30 48 1 6 42
M  V30 49 1 7 43
M  V30 50 1 10 44
M  V30 51 1 14 45
M  V30 52 1 16 46
M  V30 53 1 17 47
M  V30 54 1 20 48
M  V30 55 1 22 49
M  V30 56 1 24 50
M  V30 57 1 27 51
M  V30 58 1 28 52
M  V30 59 1 28 53
M  V30 60 1 29 54
M  V30 61 1 29 55
M  V30 62 1 30 56
M  V30 63 1 30 57
M  V30 64 1 31 58
M  V30 65 1 36 59
M  V30 END BOND
M  V30 END CTAB
M  END
>  <Dataset>  (547) 
ChEMBL_Kinases

>  <Ligand_Instance>  (547) 
nan

>  <PDB_ID>  (547) 
nan

>  <Standardized_SMILES>  (547) 
Cc1cn(-c2ccnc3[nH]c(-c4n[nH]c5ccc(-c6cncc(NC(=O)C7CCC7)c6)nc45)nc23)cn1

>  <Name>  (547) 
nan

>  <Pocket>  (547) 
nan

>  <ATP_Site>  (547) 
nan

>  <Peripheral>  (547) 
nan

>  <Num_H_Atoms_ProtBoundConf>  (547) 
nan

>  <Num_Resolved_Atoms>  (547) 
nan

>  <Num_Not_Resolved_Atoms>  (547) 
nan

$$$$
CHEMBL4795292
     RDKit          3D

  0  0  0  0  0  0  0  0  0  0999 V3000
M  V30 BEGIN CTAB
M  V30 COUNTS 68 74 0 0 0
M  V30 BEGIN ATOM
M  V30 1 C 0.805902 -1.067717 4.871123 0
M  V30 2 S 2.276379 -0.094736 4.750046 0
M  V30 3 O 2.201738 1.039261 5.737233 0
M  V30 4 O 3.467019 -0.935505 5.145689 0
M  V30 5 N 2.516429 0.545979 3.156116 0
M  V30 6 C 2.650982 -0.519082 2.186641 0
M  V30 7 C 2.887014 0.032529 0.842758 0
M  V30 8 C 4.258830 0.206732 0.666465 0
M  V30 9 C 4.769547 0.684520 -0.538388 0
M  V30 10 F 6.070818 0.877608 -0.782971 0
M  V30 11 C 3.771482 0.944183 -1.477462 0
M  V30 12 C 2.365246 0.786864 -1.355095 0
M  V30 13 C 1.700623 1.126623 -2.591906 0
M  V30 14 C 2.206070 2.181537 -3.365067 0
M  V30 15 N 1.720143 2.435643 -4.583365 0
M  V30 16 C 0.723377 1.686222 -5.118330 0
M  V30 17 C 0.259442 0.670947 -4.327887 0
M  V30 18 N -0.700883 -0.178029 -4.667561 0
M  V30 19 C -0.976224 -1.081389 -3.725632 0
M  V30 20 C -1.757624 -2.291423 -3.695814 0
M  V30 21 N -2.394822 -2.914261 -4.688106 0
M  V30 22 N -3.072034 -3.966076 -4.291535 0
M  V30 23 C -2.919654 -4.104660 -2.955948 0
M  V30 24 C -3.447511 -4.989157 -2.008584 0
M  V30 25 C -3.139407 -4.783841 -0.653688 0
M  V30 26 C -2.327710 -3.707071 -0.354191 0
M  V30 27 C -2.333634 -3.503159 1.093534 0
M  V30 28 C -2.747543 -4.322250 2.109023 0
M  V30 29 N -2.839087 -3.839274 3.358945 0
M  V30 30 C -2.538611 -2.566654 3.659594 0
M  V30 31 C -2.117241 -1.690250 2.684824 0
M  V30 32 N -1.909557 -0.376710 3.176784 0
M  V30 33 C -1.565462 0.780204 2.470114 0
M  V30 34 O -1.394885 0.741877 1.220264 0
M  V30 35 C -1.307058 2.189320 2.720951 0
M  V30 36 C -1.977292 2.909481 3.841570 0
M  V30 37 C -0.562311 2.518677 4.001814 0
M  V30 38 C -2.015475 -2.172988 1.401757 0
M  V30 39 N -1.838799 -2.893174 -1.301513 0
M  V30 40 C -2.104138 -3.053771 -2.607681 0
M  V30 41 C -0.086139 -0.755768 -2.687346 0
M  V30 42 C 0.683318 0.323942 -3.061074 0
M  V30 43 C 1.998557 0.316124 -0.133207 0
M  V30 44 H -0.009896 -0.541238 5.387840 0
M  V30 45 H 0.548522 -1.454931 3.862054 0
M  V30 46 H 1.050602 -1.953815 5.533990 0
M  V30 47 H 1.661693 1.074026 2.878777 0
M  V30 48 H 3.418371 -1.261496 2.490042 0
M  V30 49 H 1.675096 -1.097427 2.190113 0
M  V30 50 H 5.054952 0.003663 1.403007 0
M  V30 51 H 4.224898 1.321300 -2.420068 0
M  V30 52 H 2.985128 2.819089 -3.028054 0
M  V30 53 H 0.355924 1.916208 -6.105108 0
M  V30 54 H -1.273345 -0.257047 -5.541064 0
M  V30 55 H -3.642687 -4.605027 -4.896843 0
M  V30 56 H -4.060038 -5.763952 -2.447226 0
M  V30 57 H -3.628283 -5.553623 -0.098838 0
M  V30 58 H -2.965208 -5.314362 1.786592 0
M  V30 59 H -2.676891 -2.369419 4.726197 0
M  V30 60 H -1.996222 -0.090767 4.174146 0
M  V30 61 H -1.028716 2.853847 1.861403 0
M  V30 62 H -2.779964 2.317607 4.342762 0
M  V30 63 H -2.260672 3.968009 3.690817 0
M  V30 64 H 0.189477 3.338081 3.977043 0
M  V30 65 H -0.274348 1.720781 4.691833 0
M  V30 66 H -1.676966 -1.450183 0.680544 0
M  V30 67 H 0.081184 -1.182001 -1.720294 0
M  V30 68 H 0.950351 0.190488 -0.007788 0
M  V30 END ATOM
M  V30 BEGIN BOND
M  V30 1 1 1 2
M  V30 2 2 2 3
M  V30 3 2 2 4
M  V30 4 1 2 5
M  V30 5 1 5 6
M  V30 6 1 6 7
M  V30 7 2 7 8
M  V30 8 1 8 9
M  V30 9 1 9 10
M  V30 10 2 9 11
M  V30 11 1 11 12
M  V30 12 1 12 13
M  V30 13 2 13 14
M  V30 14 1 14 15
M  V30 15 2 15 16
M  V30 16 1 16 17
M  V30 17 1 17 18
M  V30 18 1 18 19
M  V30 19 1 19 20
M  V30 20 2 20 21
M  V30 21 1 21 22
M  V30 22 1 22 23
M  V30 23 2 23 24
M  V30 24 1 24 25
M  V30 25 2 25 26
M  V30 26 1 26 27
M  V30 27 2 27 28
M  V30 28 1 28 29
M  V30 29 2 29 30
M  V30 30 1 30 31
M  V30 31 1 31 32
M  V30 32 1 32 33
M  V30 33 2 33 34
M  V30 34 1 33 35
M  V30 35 1 35 36
M  V30 36 1 36 37
M  V30 37 2 31 38
M  V30 38 1 26 39
M  V30 39 2 39 40
M  V30 40 2 19 41
M  V30 41 1 41 42
M  V30 42 2 12 43
M  V30 43 1 43 7
M  V30 44 1 42 13
M  V30 45 2 42 17
M  V30 46 1 40 20
M  V30 47 1 40 23
M  V30 48 1 38 27
M  V30 49 1 37 35
M  V30 50 1 1 44
M  V30 51 1 1 45
M  V30 52 1 1 46
M  V30 53 1 5 47
M  V30 54 1 6 48
M  V30 55 1 6 49
M  V30 56 1 8 50
M  V30 57 1 11 51
M  V30 58 1 14 52
M  V30 59 1 16 53
M  V30 60 1 18 54
M  V30 61 1 22 55
M  V30 62 1 24 56
M  V30 63 1 25 57
M  V30 64 1 28 58
M  V30 65 1 30 59
M  V30 66 1 32 60
M  V30 67 1 35 61
M  V30 68 1 36 62
M  V30 69 1 36 63
M  V30 70 1 37 64
M  V30 71 1 37 65
M  V30 72 1 38 66
M  V30 73 1 41 67
M  V30 74 1 43 68
M  V30 END BOND
M  V30 END CTAB
M  END
>  <Dataset>  (548) 
ChEMBL_Kinases

>  <Ligand_Instance>  (548) 
nan

>  <PDB_ID>  (548) 
nan

>  <Standardized_SMILES>  (548) 
CS(=O)(=O)NCc1cc(F)cc(-c2cncc3[nH]c(-c4n[nH]c5ccc(-c6cncc(NC(=O)C7CC7)c6)nc45)cc23)c1

>  <Name>  (548) 
nan

>  <Pocket>  (548) 
nan

>  <ATP_Site>  (548) 
nan

>  <Peripheral>  (548) 
nan

>  <Num_H_Atoms_ProtBoundConf>  (548) 
nan

>  <Num_Resolved_Atoms>  (548) 
nan

>  <Num_Not_Resolved_Atoms>  (548) 
nan

$$$$
CHEMBL4795264
     RDKit          3D

  0  0  0  0  0  0  0  0  0  0999 V3000
M  V30 BEGIN CTAB
M  V30 COUNTS 49 54 0 0 0
M  V30 BEGIN ATOM
M  V30 1 C 3.178955 -3.419562 3.590030 0
M  V30 2 O 4.256570 -2.689304 4.102279 0
M  V30 3 C 4.484986 -1.356230 3.887551 0
M  V30 4 C 5.585196 -0.776687 4.461292 0
M  V30 5 N 5.803566 0.557220 4.241140 0
M  V30 6 C 4.905116 1.234916 3.457162 0
M  V30 7 C 3.774727 0.652334 2.864341 0
M  V30 8 C 2.949469 1.554078 2.078394 0
M  V30 9 C 3.226640 2.844061 1.799310 0
M  V30 10 C 2.361856 3.455394 0.916609 0
M  V30 11 C 1.292881 2.731185 0.385204 0
M  V30 12 N 0.329491 3.124911 -0.490581 0
M  V30 13 N -0.492211 2.111997 -0.720526 0
M  V30 14 C -0.108509 1.032910 -0.019832 0
M  V30 15 C -0.696026 -0.295979 0.073657 0
M  V30 16 N -1.815488 -0.607057 -0.608436 0
M  V30 17 C -2.172761 -1.883122 -0.361037 0
M  V30 18 C -3.273766 -2.588491 -0.869797 0
M  V30 19 C -4.184949 -1.922938 -1.783187 0
M  V30 20 C -4.577153 -0.615492 -1.483435 0
M  V30 21 C -5.445576 0.153022 -2.267614 0
M  V30 22 C -5.942321 -0.457161 -3.429313 0
M  V30 23 C -5.581692 -1.742765 -3.761798 0
M  V30 24 F -6.075029 -2.307275 -4.885941 0
M  V30 25 C -4.722193 -2.430912 -2.937558 0
M  V30 26 N -3.380964 -3.843018 -0.445995 0
M  V30 27 C -2.507070 -4.416188 0.409714 0
M  V30 28 C -1.438096 -3.693315 0.888612 0
M  V30 29 C -1.224284 -2.383559 0.518690 0
M  V30 30 N -0.350667 -1.392866 0.755555 0
M  V30 31 C 1.008527 1.401451 0.677592 0
M  V30 32 N 1.922467 0.920421 1.550080 0
M  V30 33 C 3.565346 -0.686318 3.091390 0
M  V30 34 H 2.252995 -3.051191 4.120338 0
M  V30 35 H 3.240218 -4.497905 3.824742 0
M  V30 36 H 3.097474 -3.230246 2.501905 0
M  V30 37 H 6.263220 -1.365789 5.074343 0
M  V30 38 H 5.243103 2.246504 3.402123 0
M  V30 39 H 4.053977 3.330616 2.238753 0
M  V30 40 H 2.498096 4.490006 0.628829 0
M  V30 41 H 0.267980 4.089522 -0.905647 0
M  V30 42 H -4.180030 -0.147838 -0.573369 0
M  V30 43 H -5.668746 1.159770 -1.918677 0
M  V30 44 H -6.608487 0.165453 -4.010342 0
M  V30 45 H -4.412250 -3.454600 -3.164999 0
M  V30 46 H -2.579716 -5.425419 0.760132 0
M  V30 47 H -0.701212 -4.099378 1.576145 0
M  V30 48 H 0.481017 -1.463447 1.378272 0
M  V30 49 H 2.688222 -1.119169 2.629498 0
M  V30 END ATOM
M  V30 BEGIN BOND
M  V30 1 1 1 2
M  V30 2 1 2 3
M  V30 3 2 3 4
M  V30 4 1 4 5
M  V30 5 2 5 6
M  V30 6 1 6 7
M  V30 7 1 7 8
M  V30 8 2 8 9
M  V30 9 1 9 10
M  V30 10 2 10 11
M  V30 11 1 11 12
M  V30 12 1 12 13
M  V30 13 2 13 14
M  V30 14 1 14 15
M  V30 15 2 15 16
M  V30 16 1 16 17
M  V30 17 2 17 18
M  V30 18 1 18 19
M  V30 19 2 19 20
M  V30 20 1 20 21
M  V30 21 2 21 22
M  V30 22 1 22 23
M  V30 23 1 23 24
M  V30 24 2 23 25
M  V30 25 1 18 26
M  V30 26 2 26 27
M  V30 27 1 27 28
M  V30 28 2 28 29
M  V30 29 1 29 30
M  V30 30 1 14 31
M  V30 31 2 31 32
M  V30 32 2 7 33
M  V30 33 1 33 3
M  V30 34 1 32 8
M  V30 35 1 31 11
M  V30 36 1 30 15
M  V30 37 1 29 17
M  V30 38 1 25 19
M  V30 39 1 1 34
M  V30 40 1 1 35
M  V30 41 1 1 36
M  V30 42 1 4 37
M  V30 43 1 6 38
M  V30 44 1 9 39
M  V30 45 1 10 40
M  V30 46 1 12 41
M  V30 47 1 20 42
M  V30 48 1 21 43
M  V30 49 1 22 44
M  V30 50 1 25 45
M  V30 51 1 27 46
M  V30 52 1 28 47
M  V30 53 1 30 48
M  V30 54 1 33 49
M  V30 END BOND
M  V30 END CTAB
M  END
>  <Dataset>  (549) 
ChEMBL_Kinases

>  <Ligand_Instance>  (549) 
nan

>  <PDB_ID>  (549) 
nan

>  <Standardized_SMILES>  (549) 
COc1cncc(-c2ccc3[nH]nc(-c4nc5c(-c6cccc(F)c6)nccc5[nH]4)c3n2)c1

>  <Name>  (549) 
nan

>  <Pocket>  (549) 
nan

>  <ATP_Site>  (549) 
nan

>  <Peripheral>  (549) 
nan

>  <Num_H_Atoms_ProtBoundConf>  (549) 
nan

>  <Num_Resolved_Atoms>  (549) 
nan

>  <Num_Not_Resolved_Atoms>  (549) 
nan

$$$$
CHEMBL4795065
     RDKit          3D

  0  0  0  0  0  0  0  0  0  0999 V3000
M  V30 BEGIN CTAB
M  V30 COUNTS 77 83 0 0 0
M  V30 BEGIN ATOM
M  V30 1 C 8.314316 -3.815213 1.847730 0
M  V30 2 C 8.831605 -3.047922 0.874067 0
M  V30 3 C 7.630800 -3.208165 0.057138 0
M  V30 4 O 6.754170 -3.923117 0.604450 0
M  V30 5 N 7.638678 -2.545543 -1.201346 0
M  V30 6 C 6.543482 -2.583609 -2.142252 0
M  V30 7 C 6.432298 -3.578363 -3.119456 0
M  V30 8 C 5.358244 -3.542352 -3.982944 0
M  V30 9 C 4.402520 -2.556023 -3.902837 0
M  V30 10 N 3.280693 -2.259684 -4.583906 0
M  V30 11 C 2.729252 -1.150893 -4.062957 0
M  V30 12 O 1.671744 -0.802618 -4.646406 0
M  V30 13 N 3.443280 -0.666847 -3.030627 0
M  V30 14 C 3.121683 0.488737 -2.279737 0
M  V30 15 C 1.586684 0.621845 -2.297179 0
M  V30 16 C 0.969311 -0.566820 -1.593420 0
M  V30 17 N 1.374382 -0.521921 -0.216294 0
M  V30 18 C 0.641846 -1.346011 0.682504 0
M  V30 19 C -0.783394 -0.929045 0.697529 0
M  V30 20 C -1.816936 -1.395006 -0.085932 0
M  V30 21 C -3.093006 -0.889351 0.056835 0
M  V30 22 C -3.393011 0.091939 0.976421 0
M  V30 23 C -4.716259 0.669039 1.176801 0
M  V30 24 N -5.282158 1.330926 0.123968 0
M  V30 25 C -6.508888 1.890203 0.248293 0
M  V30 26 C -6.994896 2.534232 -0.863636 0
M  V30 27 C -8.246712 3.115148 -0.764229 0
M  V30 28 N -8.981257 3.061645 0.378197 0
M  V30 29 C -8.500969 2.428414 1.467937 0
M  V30 30 O -9.085573 2.313708 2.575167 0
M  V30 31 C -7.253336 1.831179 1.419122 0
M  V30 32 C -6.684383 1.159260 2.495744 0
M  V30 33 C -5.424839 0.589016 2.356987 0
M  V30 34 C -4.828344 -0.113253 3.483061 0
M  V30 35 C -4.469776 -1.445016 3.586210 0
M  V30 36 C -3.912920 -1.919187 4.753404 0
M  V30 37 C -3.718815 -1.048785 5.814615 0
M  V30 38 C -4.066273 0.295134 5.748228 0
M  V30 39 C -4.629175 0.741081 4.547285 0
M  V30 40 C -2.376079 0.580713 1.778861 0
M  V30 41 C -1.099637 0.067936 1.628716 0
M  V30 42 C 2.815650 -0.708626 -0.164377 0
M  V30 43 C 3.406433 0.493056 -0.821386 0
M  V30 44 C 4.473203 -1.545853 -2.945377 0
M  V30 45 C 5.559801 -1.621074 -2.106388 0
M  V30 46 H 7.524193 -4.437425 2.291642 0
M  V30 47 H 8.513187 -4.233856 2.829206 0
M  V30 48 H 9.798904 -2.789360 1.286355 0
M  V30 49 H 8.449175 -1.991534 -1.508928 0
M  V30 50 H 7.191413 -4.347653 -3.170400 0
M  V30 51 H 5.279551 -4.311486 -4.732442 0
M  V30 52 H 3.007798 -2.904339 -5.385392 0
M  V30 53 H 3.463553 1.442297 -2.769332 0
M  V30 54 H 1.169751 0.885766 -3.252574 0
M  V30 55 H 1.384536 1.490415 -1.584871 0
M  V30 56 H -0.134560 -0.443264 -1.661767 0
M  V30 57 H 1.242492 -1.536147 -2.072108 0
M  V30 58 H 0.761468 -2.404366 0.369296 0
M  V30 59 H 1.051112 -1.282139 1.710253 0
M  V30 60 H -1.546716 -2.154560 -0.782940 0
M  V30 61 H -3.891058 -1.266664 -0.566132 0
M  V30 62 H -6.488001 2.629180 -1.810270 0
M  V30 63 H -8.659818 3.637024 -1.639743 0
M  V30 64 H -9.928856 3.494756 0.471982 0
M  V30 65 H -7.246740 1.097998 3.427413 0
M  V30 66 H -4.674697 -2.013793 2.686871 0
M  V30 67 H -3.661100 -2.966165 4.756432 0
M  V30 68 H -3.272593 -1.452331 6.734211 0
M  V30 69 H -3.888991 0.923396 6.611950 0
M  V30 70 H -4.864284 1.803089 4.599339 0
M  V30 71 H -2.567890 1.361091 2.524643 0
M  V30 72 H -0.346567 0.486906 2.281584 0
M  V30 73 H 3.165305 -0.853848 0.880982 0
M  V30 74 H 3.037810 -1.618003 -0.722136 0
M  V30 75 H 4.409502 0.790629 -0.497573 0
M  V30 76 H 2.784872 1.367902 -0.412995 0
M  V30 77 H 5.685550 -0.889421 -1.355464 0
M  V30 END ATOM
M  V30 BEGIN BOND
M  V30 1 2 1 2
M  V30 2 1 2 3
M  V30 3 2 3 4
M  V30 4 1 3 5
M  V30 5 1 5 6
M  V30 6 2 6 7
M  V30 7 1 7 8
M  V30 8 2 8 9
M  V30 9 1 9 10
M  V30 10 1 10 11
M  V30 11 2 11 12
M  V30 12 1 11 13
M  V30 13 1 13 14
M  V30 14 1 14 15
M  V30 15 1 15 16
M  V30 16 1 16 17
M  V30 17 1 17 18
M  V30 18 1 18 19
M  V30 19 2 19 20
M  V30 20 1 20 21
M  V30 21 2 21 22
M  V30 22 1 22 23
M  V30 23 2 23 24
M  V30 24 1 24 25
M  V30 25 1 25 26
M  V30 26 2 26 27
M  V30 27 1 27 28
M  V30 28 1 28 29
M  V30 29 2 29 30
M  V30 30 1 29 31
M  V30 31 1 31 32
M  V30 32 2 32 33
M  V30 33 1 33 34
M  V30 34 2 34 35
M  V30 35 1 35 36
M  V30 36 2 36 37
M  V30 37 1 37 38
M  V30 38 2 38 39
M  V30 39 1 22 40
M  V30 40 2 40 41
M  V30 41 1 17 42
M  V30 42 1 42 43
M  V30 43 1 13 44
M  V30 44 2 44 45
M  V30 45 1 45 6
M  V30 46 1 44 9
M  V30 47 1 43 14
M  V30 48 1 41 19
M  V30 49 1 33 23
M  V30 50 1 39 34
M  V30 51 2 31 25
M  V30 52 1 1 46
M  V30 53 1 1 47
M  V30 54 1 2 48
M  V30 55 1 5 49
M  V30 56 1 7 50
M  V30 57 1 8 51
M  V30 58 1 10 52
M  V30 59 1 14 53
M  V30 60 1 15 54
M  V30 61 1 15 55
M  V30 62 1 16 56
M  V30 63 1 16 57
M  V30 64 1 18 58
M  V30 65 1 18 59
M  V30 66 1 20 60
M  V30 67 1 21 61
M  V30 68 1 26 62
M  V30 69 1 27 63
M  V30 70 1 28 64
M  V30 71 1 32 65
M  V30 72 1 35 66
M  V30 73 1 36 67
M  V30 74 1 37 68
M  V30 75 1 38 69
M  V30 76 1 39 70
M  V30 77 1 40 71
M  V30 78 1 41 72
M  V30 79 1 42 73
M  V30 80 1 42 74
M  V30 81 1 43 75
M  V30 82 1 43 76
M  V30 83 1 45 77
M  V30 END BOND
M  V30 END CTAB
M  END
>  <Dataset>  (550) 
ChEMBL_Kinases

>  <Ligand_Instance>  (550) 
nan

>  <PDB_ID>  (550) 
nan

>  <Standardized_SMILES>  (550) 
C=CC(=O)Nc1ccc2[nH]c(=O)n(C3CCN(Cc4ccc(-c5nc6cc[nH]c(=O)c6cc5-c5ccccc5)cc4)CC3)c2c1

>  <Name>  (550) 
Borussertib

>  <Pocket>  (550) 
nan

>  <ATP_Site>  (550) 
nan

>  <Peripheral>  (550) 
nan

>  <Num_H_Atoms_ProtBoundConf>  (550) 
nan

>  <Num_Resolved_Atoms>  (550) 
nan

>  <Num_Not_Resolved_Atoms>  (550) 
nan

$$$$
CHEMBL4795039
     RDKit          3D

  0  0  0  0  0  0  0  0  0  0999 V3000
M  V30 BEGIN CTAB
M  V30 COUNTS 63 67 0 0 0
M  V30 BEGIN ATOM
M  V30 1 C 6.114137 -0.593654 -0.368954 0
M  V30 2 N 5.095998 0.299419 -0.939858 0
M  V30 3 C 3.932666 -0.533346 -1.153934 0
M  V30 4 C 4.819406 1.303272 0.082610 0
M  V30 5 C 3.805631 2.298400 -0.353555 0
M  V30 6 C 4.260214 3.428226 -0.994655 0
M  V30 7 N 3.328886 4.329371 -1.388162 0
M  V30 8 C 2.021853 4.116249 -1.156174 0
M  V30 9 C 1.502453 3.012704 -0.523258 0
M  V30 10 N 0.152335 2.736665 -0.252544 0
M  V30 11 C -1.021516 3.447424 -0.515356 0
M  V30 12 O -0.756399 4.542416 -1.113528 0
M  V30 13 C -2.422125 3.241811 -0.277209 0
M  V30 14 N -3.279015 4.207029 -0.689080 0
M  V30 15 N -4.527861 3.845565 -0.385761 0
M  V30 16 C -4.578873 2.654467 0.227651 0
M  V30 17 C -5.564280 1.838919 0.737780 0
M  V30 18 C -5.229135 0.634285 1.320960 0
M  V30 19 C -3.872277 0.290942 1.367249 0
M  V30 20 C -3.518799 -0.986280 1.986630 0
M  V30 21 C -4.233724 -1.559632 3.041315 0
M  V30 22 N -3.868846 -2.738228 3.577883 0
M  V30 23 C -2.797242 -3.412726 3.117525 0
M  V30 24 C -2.012307 -2.931786 2.067889 0
M  V30 25 C -0.833486 -3.597837 1.500637 0
M  V30 26 N -1.084237 -4.475379 0.407150 0
M  V30 27 C 0.092400 -5.114099 -0.122639 0
M  V30 28 C -0.034292 -6.588136 0.125800 0
M  V30 29 C -1.418807 -6.802933 0.683805 0
M  V30 30 C -2.092711 -5.455872 0.583131 0
M  V30 31 C -2.431715 -1.717654 1.554053 0
M  V30 32 C -2.890533 1.110355 0.855632 0
M  V30 33 C -3.251760 2.299730 0.282813 0
M  V30 34 C 2.462477 2.105541 -0.129107 0
M  V30 35 H 5.894689 -0.652032 0.716152 0
M  V30 36 H 7.133809 -0.220780 -0.491159 0
M  V30 37 H 5.994999 -1.629842 -0.768254 0
M  V30 38 H 3.485990 -0.767635 -0.148152 0
M  V30 39 H 4.199237 -1.525054 -1.579108 0
M  V30 40 H 3.168712 -0.089071 -1.809975 0
M  V30 41 H 4.485800 0.759328 0.990833 0
M  V30 42 H 5.742206 1.851537 0.343381 0
M  V30 43 H 5.300755 3.628469 -1.196133 0
M  V30 44 H 1.395257 4.898470 -1.514728 0
M  V30 45 H -0.038872 1.841568 0.235069 0
M  V30 46 H -5.354807 4.453403 -0.617778 0
M  V30 47 H -6.593257 2.166439 0.668220 0
M  V30 48 H -5.979359 -0.033396 1.733308 0
M  V30 49 H -5.090584 -0.994532 3.390256 0
M  V30 50 H -2.506642 -4.355425 3.551481 0
M  V30 51 H -0.156483 -2.786285 1.103577 0
M  V30 52 H -0.251878 -4.165867 2.254126 0
M  V30 53 H 1.046613 -4.736561 0.296014 0
M  V30 54 H 0.118627 -4.962068 -1.218303 0
M  V30 55 H 0.690213 -6.925261 0.880818 0
M  V30 56 H 0.146046 -7.175297 -0.795250 0
M  V30 57 H -1.384248 -7.139613 1.752787 0
M  V30 58 H -1.923032 -7.550994 0.039185 0
M  V30 59 H -2.817659 -5.299985 1.380480 0
M  V30 60 H -2.703134 -5.460693 -0.367552 0
M  V30 61 H -1.866155 -1.291264 0.739431 0
M  V30 62 H -1.867709 0.805325 0.913765 0
M  V30 63 H 2.206880 1.189319 0.381062 0
M  V30 END ATOM
M  V30 BEGIN BOND
M  V30 1 1 1 2
M  V30 2 1 2 3
M  V30 3 1 2 4
M  V30 4 1 4 5
M  V30 5 2 5 6
M  V30 6 1 6 7
M  V30 7 2 7 8
M  V30 8 1 8 9
M  V30 9 1 9 10
M  V30 10 1 10 11
M  V30 11 2 11 12
M  V30 12 1 11 13
M  V30 13 2 13 14
M  V30 14 1 14 15
M  V30 15 1 15 16
M  V30 16 2 16 17
M  V30 17 1 17 18
M  V30 18 2 18 19
M  V30 19 1 19 20
M  V30 20 2 20 21
M  V30 21 1 21 22
M  V30 22 2 22 23
M  V30 23 1 23 24
M  V30 24 1 24 25
M  V30 25 1 25 26
M  V30 26 1 26 27
M  V30 27 1 27 28
M  V30 28 1 28 29
M  V30 29 1 29 30
M  V30 30 2 24 31
M  V30 31 1 19 32
M  V30 32 2 32 33
M  V30 33 2 9 34
M  V30 34 1 34 5
M  V30 35 1 33 13
M  V30 36 1 33 16
M  V30 37 1 31 20
M  V30 38 1 30 26
M  V30 39 1 1 35
M  V30 40 1 1 36
M  V30 41 1 1 37
M  V30 42 1 3 38
M  V30 43 1 3 39
M  V30 44 1 3 40
M  V30 45 1 4 41
M  V30 46 1 4 42
M  V30 47 1 6 43
M  V30 48 1 8 44
M  V30 49 1 10 45
M  V30 50 1 15 46
M  V30 51 1 17 47
M  V30 52 1 18 48
M  V30 53 1 21 49
M  V30 54 1 23 50
M  V30 55 1 25 51
M  V30 56 1 25 52
M  V30 57 1 27 53
M  V30 58 1 27 54
M  V30 59 1 28 55
M  V30 60 1 28 56
M  V30 61 1 29 57
M  V30 62 1 29 58
M  V30 63 1 30 59
M  V30 64 1 30 60
M  V30 65 1 31 61
M  V30 66 1 32 62
M  V30 67 1 34 63
M  V30 END BOND
M  V30 END CTAB
M  END
>  <Dataset>  (551) 
ChEMBL_Kinases

>  <Ligand_Instance>  (551) 
nan

>  <PDB_ID>  (551) 
nan

>  <Standardized_SMILES>  (551) 
CN(C)Cc1cncc(NC(=O)c2n[nH]c3ccc(-c4cncc(CN5CCCC5)c4)cc23)c1

>  <Name>  (551) 
nan

>  <Pocket>  (551) 
nan

>  <ATP_Site>  (551) 
nan

>  <Peripheral>  (551) 
nan

>  <Num_H_Atoms_ProtBoundConf>  (551) 
nan

>  <Num_Resolved_Atoms>  (551) 
nan

>  <Num_Not_Resolved_Atoms>  (551) 
nan

$$$$
CHEMBL4794971
     RDKit          3D

  0  0  0  0  0  0  0  0  0  0999 V3000
M  V30 BEGIN CTAB
M  V30 COUNTS 57 62 0 0 0
M  V30 BEGIN ATOM
M  V30 1 C 5.863017 -1.822488 1.366315 0
M  V30 2 C 4.718474 -0.847134 1.062211 0
M  V30 3 C 4.190457 -0.349173 2.365814 0
M  V30 4 N 5.259878 0.210325 0.228534 0
M  V30 5 C 4.539578 1.310886 -0.346010 0
M  V30 6 C 5.161748 2.289502 -1.127567 0
M  V30 7 N 4.460087 3.303271 -1.655408 0
M  V30 8 C 3.136562 3.460207 -1.482919 0
M  V30 9 C 2.446195 2.523534 -0.715083 0
M  V30 10 C 0.989288 2.625829 -0.476915 0
M  V30 11 C 0.361608 3.873664 -0.400651 0
M  V30 12 C -1.002184 3.930910 -0.174634 0
M  V30 13 C -1.717333 2.759143 -0.028847 0
M  V30 14 N -2.995257 2.493910 0.190493 0
M  V30 15 N -3.186401 1.211770 0.251402 0
M  V30 16 C -2.038381 0.506767 0.075688 0
M  V30 17 C -1.910634 -0.935364 0.087017 0
M  V30 18 C -3.004990 -1.760392 0.289049 0
M  V30 19 C -2.653256 -3.088146 0.260765 0
M  V30 20 C -3.308190 -4.293867 0.396185 0
M  V30 21 C -4.747715 -4.295056 0.646769 0
M  V30 22 C -5.483075 -3.560333 1.554114 0
M  V30 23 C -6.854673 -3.718520 1.615872 0
M  V30 24 C -7.526379 -4.602033 0.786872 0
M  V30 25 N -6.804363 -5.330226 -0.110741 0
M  V30 26 C -5.452663 -5.180931 -0.179016 0
M  V30 27 C -2.637478 -5.507433 0.309149 0
M  V30 28 N -1.304809 -5.453936 0.084547 0
M  V30 29 C -0.620186 -4.296799 -0.054355 0
M  V30 30 C -1.295684 -3.105948 0.033757 0
M  V30 31 N -0.924807 -1.820689 -0.057771 0
M  V30 32 C -1.132489 1.524324 -0.098418 0
M  V30 33 C 0.225012 1.489950 -0.323894 0
M  V30 34 C 3.179715 1.485678 -0.177851 0
M  V30 35 H 6.631398 -1.227606 1.930105 0
M  V30 36 H 5.512979 -2.612584 2.035267 0
M  V30 37 H 6.263604 -2.236469 0.417845 0
M  V30 38 H 3.934005 -1.361226 0.481638 0
M  V30 39 H 4.680338 0.617710 2.669939 0
M  V30 40 H 4.501791 -1.082600 3.166185 0
M  V30 41 H 3.089477 -0.300634 2.440577 0
M  V30 42 H 6.293230 0.214831 -0.009614 0
M  V30 43 H 6.229358 2.214559 -1.301264 0
M  V30 44 H 2.572140 4.280133 -1.910171 0
M  V30 45 H 0.949130 4.797255 -0.519913 0
M  V30 46 H -1.533432 4.886467 -0.107844 0
M  V30 47 H -3.800999 3.153779 0.310055 0
M  V30 48 H -4.043651 -1.472775 0.453916 0
M  V30 49 H -4.880066 -2.903805 2.158337 0
M  V30 50 H -7.370931 -3.102991 2.358466 0
M  V30 51 H -8.605685 -4.660211 0.906958 0
M  V30 52 H -5.007634 -5.828960 -0.943420 0
M  V30 53 H -3.157419 -6.442525 0.416039 0
M  V30 54 H 0.449200 -4.278900 -0.233951 0
M  V30 55 H 0.063038 -1.568977 -0.229060 0
M  V30 56 H 0.747317 0.576169 -0.389811 0
M  V30 57 H 2.614157 0.794405 0.396337 0
M  V30 END ATOM
M  V30 BEGIN BOND
M  V30 1 1 1 2
M  V30 2 1 2 3
M  V30 3 1 2 4
M  V30 4 1 4 5
M  V30 5 2 5 6
M  V30 6 1 6 7
M  V30 7 2 7 8
M  V30 8 1 8 9
M  V30 9 1 9 10
M  V30 10 2 10 11
M  V30 11 1 11 12
M  V30 12 2 12 13
M  V30 13 1 13 14
M  V30 14 1 14 15
M  V30 15 2 15 16
M  V30 16 1 16 17
M  V30 17 2 17 18
M  V30 18 1 18 19
M  V30 19 2 19 20
M  V30 20 1 20 21
M  V30 21 2 21 22
M  V30 22 1 22 23
M  V30 23 2 23 24
M  V30 24 1 24 25
M  V30 25 2 25 26
M  V30 26 1 20 27
M  V30 27 2 27 28
M  V30 28 1 28 29
M  V30 29 2 29 30
M  V30 30 1 30 31
M  V30 31 1 16 32
M  V30 32 2 32 33
M  V30 33 2 9 34
M  V30 34 1 34 5
M  V30 35 1 33 10
M  V30 36 1 32 13
M  V30 37 1 31 17
M  V30 38 1 30 19
M  V30 39 1 26 21
M  V30 40 1 1 35
M  V30 41 1 1 36
M  V30 42 1 1 37
M  V30 43 1 2 38
M  V30 44 1 3 39
M  V30 45 1 3 40
M  V30 46 1 3 41
M  V30 47 1 4 42
M  V30 48 1 6 43
M  V30 49 1 8 44
M  V30 50 1 11 45
M  V30 51 1 12 46
M  V30 52 1 14 47
M  V30 53 1 18 48
M  V30 54 1 22 49
M  V30 55 1 23 50
M  V30 56 1 24 51
M  V30 57 1 26 52
M  V30 58 1 27 53
M  V30 59 1 29 54
M  V30 60 1 31 55
M  V30 61 1 33 56
M  V30 62 1 34 57
M  V30 END BOND
M  V30 END CTAB
M  END
>  <Dataset>  (552) 
ChEMBL_Kinases

>  <Ligand_Instance>  (552) 
nan

>  <PDB_ID>  (552) 
nan

>  <Standardized_SMILES>  (552) 
CC(C)Nc1cncc(-c2ccc3[nH]nc(-c4cc5c(-c6cccnc6)cncc5[nH]4)c3c2)c1

>  <Name>  (552) 
nan

>  <Pocket>  (552) 
nan

>  <ATP_Site>  (552) 
nan

>  <Peripheral>  (552) 
nan

>  <Num_H_Atoms_ProtBoundConf>  (552) 
nan

>  <Num_Resolved_Atoms>  (552) 
nan

>  <Num_Not_Resolved_Atoms>  (552) 
nan

$$$$
CHEMBL4794929
     RDKit          3D

  0  0  0  0  0  0  0  0  0  0999 V3000
M  V30 BEGIN CTAB
M  V30 COUNTS 51 55 0 0 0
M  V30 BEGIN ATOM
M  V30 1 O -1.387904 -2.444086 -1.357755 0
M  V30 2 C -2.012977 -3.250122 -0.588013 0
M  V30 3 N -2.219488 -2.699970 0.696089 0
M  V30 4 C -1.642008 -1.378029 0.713074 0
M  V30 5 C -0.370824 -1.010674 1.048974 0
M  V30 6 C -0.030450 0.313010 0.995049 0
M  V30 7 C 1.261600 0.657158 1.339916 0
M  V30 8 C 1.575935 2.005228 1.275385 0
M  V30 9 C 2.915053 2.468405 1.620272 0
M  V30 10 C 4.175465 2.008874 1.295119 0
M  V30 11 N 5.052797 2.825899 1.893570 0
M  V30 12 N 4.428336 3.773417 2.576894 0
M  V30 13 C 3.089432 3.576156 2.425058 0
M  V30 14 C 2.304299 4.601196 3.163674 0
M  V30 15 C 2.828122 4.552491 4.605261 0
M  V30 16 N 4.156121 5.090354 4.589171 0
M  V30 17 C 4.889490 4.878168 3.381323 0
M  V30 18 C 0.641921 2.943428 0.886731 0
M  V30 19 C -0.651270 2.567604 0.545240 0
M  V30 20 C -0.985832 1.234517 0.601983 0
M  V30 21 C -2.268452 0.850109 0.264673 0
M  V30 22 N -2.564345 -0.472286 0.331711 0
M  V30 23 C -2.460127 -4.594100 -1.005282 0
M  V30 24 C -3.136681 -5.497899 -0.212066 0
M  V30 25 C -3.498742 -6.726734 -0.727216 0
M  V30 26 C -3.205245 -7.094425 -2.029378 0
M  V30 27 O -3.604685 -8.330626 -2.447002 0
M  V30 28 C -3.422042 -8.911897 -3.701690 0
M  V30 29 F -2.651985 -10.075833 -3.620087 0
M  V30 30 F -4.644285 -9.217440 -4.277938 0
M  V30 31 C -2.530365 -6.173553 -2.796281 0
M  V30 32 C -2.157615 -4.939855 -2.305538 0
M  V30 33 H -2.732902 -3.296019 1.411617 0
M  V30 34 H 0.253707 -1.824906 1.330794 0
M  V30 35 H 1.981916 -0.089554 1.642371 0
M  V30 36 H 4.312173 1.150954 0.673609 0
M  V30 37 H 2.566872 5.604255 2.771039 0
M  V30 38 H 1.210434 4.422014 3.142042 0
M  V30 39 H 2.212902 5.179787 5.275363 0
M  V30 40 H 2.804674 3.472622 4.903206 0
M  V30 41 H 4.679082 4.891638 5.458452 0
M  V30 42 H 4.904641 5.805105 2.742095 0
M  V30 43 H 5.950692 4.690188 3.651538 0
M  V30 44 H 0.811390 4.007782 0.812249 0
M  V30 45 H -1.409575 3.267304 0.236968 0
M  V30 46 H -2.991871 1.606693 -0.039858 0
M  V30 47 H -3.347553 -5.178361 0.793353 0
M  V30 48 H -4.031559 -7.402857 -0.057525 0
M  V30 49 H -2.884422 -8.273131 -4.432208 0
M  V30 50 H -2.286922 -6.424951 -3.808792 0
M  V30 51 H -1.629223 -4.263756 -2.962579 0
M  V30 END ATOM
M  V30 BEGIN BOND
M  V30 1 2 1 2
M  V30 2 1 2 3
M  V30 3 1 3 4
M  V30 4 2 4 5
M  V30 5 1 5 6
M  V30 6 2 6 7
M  V30 7 1 7 8
M  V30 8 1 8 9
M  V30 9 1 9 10
M  V30 10 2 10 11
M  V30 11 1 11 12
M  V30 12 1 12 13
M  V30 13 1 13 14
M  V30 14 1 14 15
M  V30 15 1 15 16
M  V30 16 1 16 17
M  V30 17 2 8 18
M  V30 18 1 18 19
M  V30 19 2 19 20
M  V30 20 1 20 21
M  V30 21 2 21 22
M  V30 22 1 2 23
M  V30 23 2 23 24
M  V30 24 1 24 25
M  V30 25 2 25 26
M  V30 26 1 26 27
M  V30 27 1 27 28
M  V30 28 1 28 29
M  V30 29 1 28 30
M  V30 30 1 26 31
M  V30 31 2 31 32
M  V30 32 1 22 4
M  V30 33 1 32 23
M  V30 34 1 20 6
M  V30 35 2 13 9
M  V30 36 1 17 12
M  V30 37 1 3 33
M  V30 38 1 5 34
M  V30 39 1 7 35
M  V30 40 1 10 36
M  V30 41 1 14 37
M  V30 42 1 14 38
M  V30 43 1 15 39
M  V30 44 1 15 40
M  V30 45 1 16 41
M  V30 46 1 17 42
M  V30 47 1 17 43
M  V30 48 1 18 44
M  V30 49 1 19 45
M  V30 50 1 21 46
M  V30 51 1 24 47
M  V30 52 1 25 48
M  V30 53 1 28 49
M  V30 54 1 31 50
M  V30 55 1 32 51
M  V30 END BOND
M  V30 END CTAB
M  END
>  <Dataset>  (553) 
ChEMBL_Kinases

>  <Ligand_Instance>  (553) 
nan

>  <PDB_ID>  (553) 
nan

>  <Standardized_SMILES>  (553) 
O=C(Nc1cc2cc(-c3cnn4c3CCNC4)ccc2cn1)c1ccc(OC(F)F)cc1

>  <Name>  (553) 
nan

>  <Pocket>  (553) 
nan

>  <ATP_Site>  (553) 
nan

>  <Peripheral>  (553) 
nan

>  <Num_H_Atoms_ProtBoundConf>  (553) 
nan

>  <Num_Resolved_Atoms>  (553) 
nan

>  <Num_Not_Resolved_Atoms>  (553) 
nan

$$$$
CHEMBL4794913
     RDKit          3D

  0  0  0  0  0  0  0  0  0  0999 V3000
M  V30 BEGIN CTAB
M  V30 COUNTS 59 63 0 0 0
M  V30 BEGIN ATOM
M  V30 1 O 0.781423 -4.805187 -0.202009 0
M  V30 2 C 0.411069 -5.187409 0.935012 0
M  V30 3 N 1.125028 -4.554748 1.968470 0
M  V30 4 C 2.099654 -3.630141 1.494038 0
M  V30 5 C 1.663417 -2.324307 1.321400 0
M  V30 6 C 2.549037 -1.364971 0.863727 0
M  V30 7 C 2.223041 -0.035396 0.655632 0
M  V30 8 C 3.181206 0.844513 0.195936 0
M  V30 9 C 2.798347 2.239289 -0.011074 0
M  V30 10 C 3.705242 3.173536 -0.468787 0
M  V30 11 N 3.302626 4.437841 -0.641096 0
M  V30 12 C 2.016753 4.765700 -0.361699 0
M  V30 13 C 1.065700 3.853754 0.103127 0
M  V30 14 N -0.262197 4.253027 0.378339 0
M  V30 15 C -1.220233 3.304769 0.852899 0
M  V30 16 C -1.483093 2.149542 -0.061155 0
M  V30 17 C -2.192820 2.561342 -1.330685 0
M  V30 18 N -3.448571 3.155475 -0.967562 0
M  V30 19 C -3.687446 3.253807 0.439969 0
M  V30 20 C -2.543541 3.922851 1.199790 0
M  V30 21 N 1.533829 2.617848 0.251122 0
M  V30 22 N 4.438718 0.437843 -0.057990 0
M  V30 23 C 4.800184 -0.863296 0.134016 0
M  V30 24 C 3.859044 -1.774508 0.596058 0
M  V30 25 C 4.286867 -3.091807 0.773585 0
M  V30 26 N 3.381397 -4.007404 1.226903 0
M  V30 27 C -0.661225 -6.197081 1.225331 0
M  V30 28 C -1.774644 -5.615178 2.044538 0
M  V30 29 C -2.848940 -4.954894 1.202628 0
M  V30 30 O -3.321092 -5.929488 0.324210 0
M  V30 31 C -2.338167 -6.107718 -0.641713 0
M  V30 32 C -1.092741 -6.750932 -0.086368 0
M  V30 33 H 0.931923 -4.768021 2.989595 0
M  V30 34 H 0.647827 -2.019600 1.531804 0
M  V30 35 H 1.210079 0.256156 0.868239 0
M  V30 36 H 4.697196 2.790449 -0.655199 0
M  V30 37 H 1.704329 5.809268 -0.509377 0
M  V30 38 H -0.520323 5.248056 0.227017 0
M  V30 39 H -0.783637 2.851302 1.791030 0
M  V30 40 H -0.561188 1.590457 -0.210351 0
M  V30 41 H -2.183444 1.468691 0.467252 0
M  V30 42 H -2.319548 1.638997 -1.925722 0
M  V30 43 H -1.617125 3.287443 -1.923136 0
M  V30 44 H -3.635858 4.038804 -1.451971 0
M  V30 45 H -3.993732 2.325737 0.938012 0
M  V30 46 H -4.569833 3.947437 0.559853 0
M  V30 47 H -2.771832 3.800566 2.277553 0
M  V30 48 H -2.541713 5.007755 0.966779 0
M  V30 49 H 5.829331 -1.178501 -0.077768 0
M  V30 50 H 5.295325 -3.397194 0.565352 0
M  V30 51 H -0.165374 -7.002557 1.806293 0
M  V30 52 H -2.271612 -6.440007 2.597976 0
M  V30 53 H -1.442991 -4.879779 2.776509 0
M  V30 54 H -2.465168 -4.120446 0.603570 0
M  V30 55 H -3.669888 -4.682252 1.897581 0
M  V30 56 H -2.729710 -6.750437 -1.456869 0
M  V30 57 H -2.135996 -5.110860 -1.091448 0
M  V30 58 H -0.316907 -6.648554 -0.881961 0
M  V30 59 H -1.299138 -7.854516 -0.027655 0
M  V30 END ATOM
M  V30 BEGIN BOND
M  V30 1 2 1 2
M  V30 2 1 2 3
M  V30 3 1 3 4
M  V30 4 2 4 5
M  V30 5 1 5 6
M  V30 6 2 6 7
M  V30 7 1 7 8
M  V30 8 1 8 9
M  V30 9 2 9 10
M  V30 10 1 10 11
M  V30 11 2 11 12
M  V30 12 1 12 13
M  V30 13 1 13 14
M  V30 14 1 14 15
M  V30 15 1 15 16
M  V30 16 1 16 17
M  V30 17 1 17 18
M  V30 18 1 18 19
M  V30 19 1 19 20
M  V30 20 2 13 21
M  V30 21 2 8 22
M  V30 22 1 22 23
M  V30 23 2 23 24
M  V30 24 1 24 25
M  V30 25 2 25 26
M  V30 26 1 2 27
M  V30 27 1 27 28
M  V30 28 1 28 29
M  V30 29 1 29 30
M  V30 30 1 30 31
M  V30 31 1 31 32
M  V30 32 1 26 4
M  V30 33 1 32 27
M  V30 34 1 24 6
M  V30 35 1 21 9
M  V30 36 1 20 15
M  V30 37 1 3 33
M  V30 38 1 5 34
M  V30 39 1 7 35
M  V30 40 1 10 36
M  V30 41 1 12 37
M  V30 42 1 14 38
M  V30 43 1 15 39
M  V30 44 1 16 40
M  V30 45 1 16 41
M  V30 46 1 17 42
M  V30 47 1 17 43
M  V30 48 1 18 44
M  V30 49 1 19 45
M  V30 50 1 19 46
M  V30 51 1 20 47
M  V30 52 1 20 48
M  V30 53 1 23 49
M  V30 54 1 25 50
M  V30 55 1 27 51
M  V30 56 1 28 52
M  V30 57 1 28 53
M  V30 58 1 29 54
M  V30 59 1 29 55
M  V30 60 1 31 56
M  V30 61 1 31 57
M  V30 62 1 32 58
M  V30 63 1 32 59
M  V30 END BOND
M  V30 END CTAB
M  END
>  <Dataset>  (554) 
ChEMBL_Kinases

>  <Ligand_Instance>  (554) 
nan

>  <PDB_ID>  (554) 
nan

>  <Standardized_SMILES>  (554) 
O=C(Nc1cc2cc(-c3cncc(NC4CCNCC4)n3)ncc2cn1)C1CCOCC1

>  <Name>  (554) 
nan

>  <Pocket>  (554) 
nan

>  <ATP_Site>  (554) 
nan

>  <Peripheral>  (554) 
nan

>  <Num_H_Atoms_ProtBoundConf>  (554) 
nan

>  <Num_Resolved_Atoms>  (554) 
nan

>  <Num_Not_Resolved_Atoms>  (554) 
nan

$$$$
CHEMBL3393450
     RDKit          3D

  0  0  0  0  0  0  0  0  0  0999 V3000
M  V30 BEGIN CTAB
M  V30 COUNTS 46 50 0 0 0
M  V30 BEGIN ATOM
M  V30 1 C -1.493835 -4.178882 4.635086 0
M  V30 2 C -0.920562 -4.136518 3.269599 0
M  V30 3 N -1.211117 -3.034839 2.567810 0
M  V30 4 C -0.644157 -3.100564 1.350924 0
M  V30 5 C -0.543952 -2.291937 0.117919 0 CFG=1
M  V30 6 C 0.819537 -1.665977 -0.051928 0
M  V30 7 N 0.632156 -0.607406 -1.058495 0
M  V30 8 C 1.389289 0.530919 -1.443965 0
M  V30 9 N 1.823919 0.364140 -2.730865 0
M  V30 10 C 2.599435 1.327175 -3.311898 0
M  V30 11 N 2.967631 2.453936 -2.676633 0
M  V30 12 C 2.549322 2.630133 -1.417961 0
M  V30 13 N 2.689075 3.577357 -0.458781 0
M  V30 14 C 2.027753 3.225563 0.677470 0
M  V30 15 C 1.414440 1.985296 0.474341 0
M  V30 16 C 0.612697 1.364906 1.483270 0
M  V30 17 C 1.291115 1.224425 2.704012 0
M  V30 18 C 0.709566 0.672720 3.825111 0
M  V30 19 C -0.584620 0.230910 3.785441 0
M  V30 20 C -1.278312 0.355032 2.600653 0
M  V30 21 C -2.649702 -0.071013 2.425865 0
M  V30 22 N -3.742789 -0.428542 2.296682 0
M  V30 23 C -0.687581 0.908114 1.485782 0
M  V30 24 C 1.766716 1.684409 -0.797908 0
M  V30 25 C -0.588867 -0.783229 -1.841900 0
M  V30 26 C -0.919492 -2.232969 -2.103883 0
M  V30 27 O -0.739497 -3.055685 -1.028331 0
M  V30 28 N 0.000174 -4.284843 1.345002 0
M  V30 29 O -0.176735 -4.869062 2.475192 0
M  V30 30 H -0.997106 -5.005056 5.198041 0
M  V30 31 H -1.233323 -3.249755 5.213941 0
M  V30 32 H -2.583098 -4.303434 4.647723 0
M  V30 33 H -1.358216 -1.544610 0.124610 0
M  V30 34 H 1.301025 -1.338540 0.859531 0
M  V30 35 H 1.530722 -2.377209 -0.543918 0
M  V30 36 H 2.964816 1.231993 -4.332633 0
M  V30 37 H 3.231827 4.463877 -0.569967 0
M  V30 38 H 1.991372 3.823742 1.589283 0
M  V30 39 H 2.326478 1.535132 2.873625 0
M  V30 40 H 1.225915 0.561446 4.768219 0
M  V30 41 H -1.133004 -0.215404 4.603904 0
M  V30 42 H -1.158961 1.044812 0.529996 0
M  V30 43 H -1.459931 -0.241498 -1.430435 0
M  V30 44 H -0.478521 -0.340149 -2.878707 0
M  V30 45 H -2.008285 -2.264482 -2.360494 0
M  V30 46 H -0.385019 -2.620902 -3.002432 0
M  V30 END ATOM
M  V30 BEGIN BOND
M  V30 1 1 1 2
M  V30 2 2 2 3
M  V30 3 1 3 4
M  V30 4 1 4 5
M  V30 5 1 5 6
M  V30 6 1 6 7
M  V30 7 1 7 8
M  V30 8 2 8 9
M  V30 9 1 9 10
M  V30 10 2 10 11
M  V30 11 1 11 12
M  V30 12 1 12 13
M  V30 13 1 13 14
M  V30 14 2 14 15
M  V30 15 1 15 16
M  V30 16 2 16 17
M  V30 17 1 17 18
M  V30 18 2 18 19
M  V30 19 1 19 20
M  V30 20 1 20 21
M  V30 21 3 21 22
M  V30 22 2 20 23
M  V30 23 1 15 24
M  V30 24 1 7 25
M  V30 25 1 25 26
M  V30 26 1 26 27
M  V30 27 2 4 28
M  V30 28 1 28 29
M  V30 29 1 29 2
M  V30 30 1 27 5
M  V30 31 1 24 8
M  V30 32 2 24 12
M  V30 33 1 23 16
M  V30 34 1 1 30
M  V30 35 1 1 31
M  V30 36 1 1 32
M  V30 37 1 5 33 CFG=1
M  V30 38 1 6 34
M  V30 39 1 6 35
M  V30 40 1 10 36
M  V30 41 1 13 37
M  V30 42 1 14 38
M  V30 43 1 17 39
M  V30 44 1 18 40
M  V30 45 1 19 41
M  V30 46 1 23 42
M  V30 47 1 25 43
M  V30 48 1 25 44
M  V30 49 1 26 45
M  V30 50 1 26 46
M  V30 END BOND
M  V30 END CTAB
M  END
>  <Dataset>  (555) 
ChEMBL_Kinases

>  <Ligand_Instance>  (555) 
nan

>  <PDB_ID>  (555) 
nan

>  <Standardized_SMILES>  (555) 
Cc1nc([C@H]2CN(c3ncnc4[nH]cc(-c5cccc(C#N)c5)c34)CCO2)no1

>  <Name>  (555) 
nan

>  <Pocket>  (555) 
nan

>  <ATP_Site>  (555) 
nan

>  <Peripheral>  (555) 
nan

>  <Num_H_Atoms_ProtBoundConf>  (555) 
nan

>  <Num_Resolved_Atoms>  (555) 
nan

>  <Num_Not_Resolved_Atoms>  (555) 
nan

$$$$
CHEMBL4794727
     RDKit          3D

  0  0  0  0  0  0  0  0  0  0999 V3000
M  V30 BEGIN CTAB
M  V30 COUNTS 74 79 0 0 0
M  V30 BEGIN ATOM
M  V30 1 C 5.931085 -4.093625 2.486121 0
M  V30 2 C 5.787478 -2.636305 2.123072 0 CFG=2
M  V30 3 C 4.423084 -2.325018 1.563518 0
M  V30 4 N 4.441563 -1.308232 0.567279 0
M  V30 5 C 3.780489 -0.033927 0.574454 0
M  V30 6 C 3.039236 0.398589 1.654144 0
M  V30 7 C 2.445074 1.638219 1.540741 0
M  V30 8 C 2.606052 2.380390 0.389576 0
M  V30 9 N 1.937857 3.662775 0.382533 0
M  V30 10 C 0.630224 3.354560 -0.141196 0
M  V30 11 O 0.572969 2.100245 -0.388064 0
M  V30 12 C -0.460703 4.328048 -0.354328 0
M  V30 13 N -0.545344 5.676685 -0.177631 0
M  V30 14 N -1.791196 6.040164 -0.523750 0
M  V30 15 C -2.481042 4.955610 -0.909588 0
M  V30 16 C -3.774774 4.829042 -1.342326 0
M  V30 17 C -4.309109 3.586113 -1.699300 0
M  V30 18 C -3.509524 2.463728 -1.611560 0
M  V30 19 C -4.008033 1.116574 -1.966226 0
M  V30 20 C -4.958774 0.876934 -2.939869 0
M  V30 21 N -5.340806 -0.391125 -3.179899 0
M  V30 22 C -4.831374 -1.443465 -2.505983 0
M  V30 23 C -3.870065 -1.297699 -1.508953 0
M  V30 24 C -3.267511 -2.384880 -0.729805 0
M  V30 25 N -3.899320 -2.737846 0.481984 0
M  V30 26 C -3.184390 -3.820918 1.128401 0
M  V30 27 C -3.741037 -4.116021 2.503024 0
M  V30 28 C -5.200932 -4.421585 2.490882 0
M  V30 29 C -5.923282 -3.331981 1.729798 0
M  V30 30 C -5.269272 -3.128157 0.382489 0
M  V30 31 C -3.497691 0.031188 -1.286964 0
M  V30 32 C -2.211885 2.642712 -1.169852 0
M  V30 33 C -1.672442 3.861922 -0.814818 0
M  V30 34 C 3.352094 1.927187 -0.677024 0
M  V30 35 N 3.915148 0.716942 -0.530493 0
M  V30 36 C 5.253412 -1.735018 -0.521079 0
M  V30 37 C 6.527759 -2.384313 -0.060446 0 CFG=2
M  V30 38 C 6.647454 -3.799588 -0.595412 0
M  V30 39 O 6.812259 -2.285569 1.267568 0
M  V30 40 H 6.976720 -4.470127 2.411580 0
M  V30 41 H 5.220517 -4.728776 1.882844 0
M  V30 42 H 5.634424 -4.292926 3.541186 0
M  V30 43 H 5.927223 -2.059595 3.060968 0
M  V30 44 H 3.745706 -2.020624 2.381576 0
M  V30 45 H 3.977871 -3.296033 1.194031 0
M  V30 46 H 2.922521 -0.193357 2.549611 0
M  V30 47 H 1.862474 1.966173 2.401087 0
M  V30 48 H 2.099750 4.684190 0.625395 0
M  V30 49 H -2.065514 7.053667 -0.458920 0
M  V30 50 H -4.438739 5.688779 -1.425867 0
M  V30 51 H -5.332766 3.492379 -2.040330 0
M  V30 52 H -5.360237 1.730934 -3.474099 0
M  V30 53 H -5.158742 -2.458603 -2.719579 0
M  V30 54 H -3.321982 -3.297015 -1.398251 0
M  V30 55 H -2.185521 -2.223509 -0.589741 0
M  V30 56 H -2.115707 -3.618710 1.220024 0
M  V30 57 H -3.332461 -4.749756 0.530602 0
M  V30 58 H -3.589989 -3.221315 3.147033 0
M  V30 59 H -3.189544 -4.981430 2.900818 0
M  V30 60 H -5.438920 -5.403774 2.020205 0
M  V30 61 H -5.560464 -4.455260 3.539910 0
M  V30 62 H -6.027188 -2.407198 2.299931 0
M  V30 63 H -6.940352 -3.733982 1.522054 0
M  V30 64 H -5.269445 -4.143004 -0.095225 0
M  V30 65 H -5.915411 -2.494449 -0.227119 0
M  V30 66 H -2.747898 0.178096 -0.512477 0
M  V30 67 H -1.612889 1.761716 -1.111570 0
M  V30 68 H 3.454790 2.538604 -1.562608 0
M  V30 69 H 5.458944 -0.819963 -1.143996 0
M  V30 70 H 4.659866 -2.475757 -1.101015 0
M  V30 71 H 7.366941 -1.830483 -0.587589 0
M  V30 72 H 6.904501 -3.735108 -1.685589 0
M  V30 73 H 5.765067 -4.417478 -0.435501 0
M  V30 74 H 7.507934 -4.293867 -0.098935 0
M  V30 END ATOM
M  V30 BEGIN BOND
M  V30 1 1 1 2
M  V30 2 1 2 3
M  V30 3 1 3 4
M  V30 4 1 4 5
M  V30 5 2 5 6
M  V30 6 1 6 7
M  V30 7 2 7 8
M  V30 8 1 8 9
M  V30 9 1 9 10
M  V30 10 2 10 11
M  V30 11 1 10 12
M  V30 12 2 12 13
M  V30 13 1 13 14
M  V30 14 1 14 15
M  V30 15 2 15 16
M  V30 16 1 16 17
M  V30 17 2 17 18
M  V30 18 1 18 19
M  V30 19 2 19 20
M  V30 20 1 20 21
M  V30 21 2 21 22
M  V30 22 1 22 23
M  V30 23 1 23 24
M  V30 24 1 24 25
M  V30 25 1 25 26
M  V30 26 1 26 27
M  V30 27 1 27 28
M  V30 28 1 28 29
M  V30 29 1 29 30
M  V30 30 2 23 31
M  V30 31 1 18 32
M  V30 32 2 32 33
M  V30 33 1 8 34
M  V30 34 2 34 35
M  V30 35 1 4 36
M  V30 36 1 36 37
M  V30 37 1 37 38
M  V30 38 1 37 39
M  V30 39 1 39 2
M  V30 40 1 35 5
M  V30 41 1 33 12
M  V30 42 1 33 15
M  V30 43 1 31 19
M  V30 44 1 30 25
M  V30 45 1 1 40
M  V30 46 1 1 41
M  V30 47 1 1 42
M  V30 48 1 2 43 CFG=1
M  V30 49 1 3 44
M  V30 50 1 3 45
M  V30 51 1 6 46
M  V30 52 1 7 47
M  V30 53 1 9 48
M  V30 54 1 14 49
M  V30 55 1 16 50
M  V30 56 1 17 51
M  V30 57 1 20 52
M  V30 58 1 22 53
M  V30 59 1 24 54
M  V30 60 1 24 55
M  V30 61 1 26 56
M  V30 62 1 26 57
M  V30 63 1 27 58
M  V30 64 1 27 59
M  V30 65 1 28 60
M  V30 66 1 28 61
M  V30 67 1 29 62
M  V30 68 1 29 63
M  V30 69 1 30 64
M  V30 70 1 30 65
M  V30 71 1 31 66
M  V30 72 1 32 67
M  V30 73 1 34 68
M  V30 74 1 36 69
M  V30 75 1 36 70
M  V30 76 1 37 71 CFG=3
M  V30 77 1 38 72
M  V30 78 1 38 73
M  V30 79 1 38 74
M  V30 END BOND
M  V30 END CTAB
M  END
>  <Dataset>  (556) 
ChEMBL_Kinases

>  <Ligand_Instance>  (556) 
nan

>  <PDB_ID>  (556) 
nan

>  <Standardized_SMILES>  (556) 
C[C@@H]1CN(c2ccc(NC(=O)c3n[nH]c4ccc(-c5cncc(CN6CCCCC6)c5)cc34)cn2)C[C@H](C)O1

>  <Name>  (556) 
nan

>  <Pocket>  (556) 
nan

>  <ATP_Site>  (556) 
nan

>  <Peripheral>  (556) 
nan

>  <Num_H_Atoms_ProtBoundConf>  (556) 
nan

>  <Num_Resolved_Atoms>  (556) 
nan

>  <Num_Not_Resolved_Atoms>  (556) 
nan

$$$$
CHEMBL4795751
     RDKit          3D

  0  0  0  0  0  0  0  0  0  0999 V3000
M  V30 BEGIN CTAB
M  V30 COUNTS 69 74 0 0 0
M  V30 BEGIN ATOM
M  V30 1 C 7.880087 3.335640 5.608222 0
M  V30 2 C 8.370318 1.992040 5.192006 0
M  V30 3 C 9.118121 1.358337 6.358739 0
M  V30 4 C 7.306605 1.071530 4.710018 0
M  V30 5 C 6.595017 1.612735 3.534981 0
M  V30 6 O 6.777457 2.725489 2.887313 0
M  V30 7 N 5.560889 1.111033 2.802180 0
M  V30 8 C 4.490375 0.617568 2.023844 0
M  V30 9 C 4.797432 -0.178898 0.903324 0
M  V30 10 N 3.724396 -0.584520 0.140346 0
M  V30 11 C 2.499748 -0.190895 0.527447 0
M  V30 12 C 2.116120 0.577371 1.597307 0
M  V30 13 C 0.720913 0.888827 1.854098 0
M  V30 14 C 0.364244 1.666037 2.933501 0
M  V30 15 C -1.002603 1.901643 3.084252 0
M  V30 16 C -1.903399 1.369813 2.186771 0
M  V30 17 N -3.243995 1.440947 2.107365 0
M  V30 18 N -3.653872 0.752218 1.051538 0
M  V30 19 C -2.631311 0.203642 0.394853 0
M  V30 20 C -2.601380 -0.633991 -0.803350 0
M  V30 21 C -3.709178 -1.055062 -1.525603 0
M  V30 22 C -3.203614 -1.822799 -2.551108 0
M  V30 23 C -3.969492 -2.449837 -3.534229 0
M  V30 24 N -5.365506 -2.505652 -3.705377 0
M  V30 25 C -6.031936 -2.959035 -4.911991 0
M  V30 26 C -6.776424 -4.275331 -4.667223 0
M  V30 27 N -7.601120 -4.166501 -3.481604 0
M  V30 28 C -7.189743 -5.061762 -2.438856 0
M  V30 29 C -7.723668 -2.796971 -3.031580 0
M  V30 30 C -6.374811 -2.159395 -2.710496 0
M  V30 31 C -3.196151 -3.158905 -4.460883 0
M  V30 32 C -1.815648 -3.222028 -4.393749 0
M  V30 33 N -1.162668 -2.575652 -3.394185 0
M  V30 34 C -1.837018 -1.875021 -2.469438 0
M  V30 35 N -1.508563 -1.149680 -1.406814 0
M  V30 36 C -1.501609 0.583627 1.100889 0
M  V30 37 N -0.168533 0.375486 0.984156 0
M  V30 38 C 3.195659 0.976874 2.351942 0
M  V30 39 H 7.972450 3.439881 6.706154 0
M  V30 40 H 6.792874 3.417920 5.396904 0
M  V30 41 H 8.455579 4.180855 5.171435 0
M  V30 42 H 9.100334 2.150183 4.349342 0
M  V30 43 H 8.317378 0.818750 6.942060 0
M  V30 44 H 9.905439 0.668407 6.028939 0
M  V30 45 H 9.473562 2.183227 6.998402 0
M  V30 46 H 6.603599 0.889283 5.558029 0
M  V30 47 H 7.715841 0.068151 4.462924 0
M  V30 48 H 5.446796 0.186999 3.388976 0
M  V30 49 H 5.825666 -0.396991 0.744023 0
M  V30 50 H 1.784485 -0.594143 -0.176492 0
M  V30 51 H 1.077767 2.078907 3.633255 0
M  V30 52 H -1.307282 2.512858 3.929515 0
M  V30 53 H -3.833972 1.965455 2.786473 0
M  V30 54 H -4.695349 -0.781299 -1.260832 0
M  V30 55 H -6.816224 -2.200977 -5.179621 0
M  V30 56 H -5.365304 -3.170799 -5.754998 0
M  V30 57 H -6.094287 -5.127725 -4.646117 0
M  V30 58 H -7.464847 -4.399372 -5.528912 0
M  V30 59 H -6.786094 -5.993533 -2.896358 0
M  V30 60 H -8.076950 -5.382275 -1.858607 0
M  V30 61 H -6.398325 -4.588278 -1.824843 0
M  V30 62 H -8.298704 -2.798237 -2.083888 0
M  V30 63 H -8.248257 -2.157451 -3.746595 0
M  V30 64 H -6.110528 -2.567802 -1.712427 0
M  V30 65 H -6.530862 -1.070424 -2.747464 0
M  V30 66 H -3.521263 -3.732980 -5.311517 0
M  V30 67 H -1.152012 -3.733825 -5.050996 0
M  V30 68 H -0.510606 -1.000129 -1.084462 0
M  V30 69 H 3.002793 1.590664 3.223420 0
M  V30 END ATOM
M  V30 BEGIN BOND
M  V30 1 1 1 2
M  V30 2 1 2 3
M  V30 3 1 2 4
M  V30 4 1 4 5
M  V30 5 2 5 6
M  V30 6 1 5 7
M  V30 7 1 7 8
M  V30 8 2 8 9
M  V30 9 1 9 10
M  V30 10 2 10 11
M  V30 11 1 11 12
M  V30 12 1 12 13
M  V30 13 2 13 14
M  V30 14 1 14 15
M  V30 15 2 15 16
M  V30 16 1 16 17
M  V30 17 1 17 18
M  V30 18 2 18 19
M  V30 19 1 19 20
M  V30 20 2 20 21
M  V30 21 1 21 22
M  V30 22 2 22 23
M  V30 23 1 23 24
M  V30 24 1 24 25
M  V30 25 1 25 26
M  V30 26 1 26 27
M  V30 27 1 27 28
M  V30 28 1 27 29
M  V30 29 1 29 30
M  V30 30 1 23 31
M  V30 31 2 31 32
M  V30 32 1 32 33
M  V30 33 2 33 34
M  V30 34 1 34 35
M  V30 35 1 19 36
M  V30 36 2 36 37
M  V30 37 2 12 38
M  V30 38 1 38 8
M  V30 39 1 37 13
M  V30 40 1 36 16
M  V30 41 1 35 20
M  V30 42 1 34 22
M  V30 43 1 30 24
M  V30 44 1 1 39
M  V30 45 1 1 40
M  V30 46 1 1 41
M  V30 47 1 2 42
M  V30 48 1 3 43
M  V30 49 1 3 44
M  V30 50 1 3 45
M  V30 51 1 4 46
M  V30 52 1 4 47
M  V30 53 1 7 48
M  V30 54 1 9 49
M  V30 55 1 11 50
M  V30 56 1 14 51
M  V30 57 1 15 52
M  V30 58 1 17 53
M  V30 59 1 21 54
M  V30 60 1 25 55
M  V30 61 1 25 56
M  V30 62 1 26 57
M  V30 63 1 26 58
M  V30 64 1 28 59
M  V30 65 1 28 60
M  V30 66 1 28 61
M  V30 67 1 29 62
M  V30 68 1 29 63
M  V30 69 1 30 64
M  V30 70 1 30 65
M  V30 71 1 31 66
M  V30 72 1 32 67
M  V30 73 1 35 68
M  V30 74 1 38 69
M  V30 END BOND
M  V30 END CTAB
M  END
>  <Dataset>  (557) 
ChEMBL_Kinases

>  <Ligand_Instance>  (557) 
nan

>  <PDB_ID>  (557) 
nan

>  <Standardized_SMILES>  (557) 
CC(C)CC(=O)Nc1cncc(-c2ccc3[nH]nc(-c4cc5c(N6CCN(C)CC6)ccnc5[nH]4)c3n2)c1

>  <Name>  (557) 
nan

>  <Pocket>  (557) 
nan

>  <ATP_Site>  (557) 
nan

>  <Peripheral>  (557) 
nan

>  <Num_H_Atoms_ProtBoundConf>  (557) 
nan

>  <Num_Resolved_Atoms>  (557) 
nan

>  <Num_Not_Resolved_Atoms>  (557) 
nan

$$$$
CHEMBL4089665
     RDKit          3D

  0  0  0  0  0  0  0  0  0  0999 V3000
M  V30 BEGIN CTAB
M  V30 COUNTS 48 52 0 0 0
M  V30 BEGIN ATOM
M  V30 1 C -3.791696 -0.479571 2.869002 0
M  V30 2 N -2.831771 -0.887994 1.847126 0
M  V30 3 C -2.504407 -0.121182 0.806602 0
M  V30 4 C -1.576291 -0.794422 0.043681 0
M  V30 5 C -0.995388 -0.269290 -1.197465 0
M  V30 6 C 0.255158 -0.145108 -1.691520 0
M  V30 7 C 1.565707 -0.497422 -1.146503 0
M  V30 8 C 2.423343 -1.336619 -1.810342 0
M  V30 9 Cl 1.988874 -2.057393 -3.342263 0
M  V30 10 C 3.646844 -1.584801 -1.199260 0
M  V30 11 C 4.083305 -1.065521 0.014961 0
M  V30 12 C 3.170177 -0.227343 0.624622 0
M  V30 13 C 3.568565 0.330816 1.834259 0
M  V30 14 C 2.741553 1.198917 2.522859 0
M  V30 15 C 1.490762 1.527822 2.009135 0
M  V30 16 C 0.496999 2.452946 2.658960 0
M  V30 17 N -0.366547 1.622803 3.475322 0
M  V30 18 C 1.151904 0.936078 0.797496 0
M  V30 19 C 1.944357 0.056396 0.068855 0
M  V30 20 C 0.207868 0.466042 -3.010130 0
M  V30 21 O 1.104934 0.773802 -3.833741 0
M  V30 22 N -1.165460 0.745082 -3.370809 0
M  V30 23 C -1.876162 0.274199 -2.221720 0
M  V30 24 O -3.158773 0.362897 -2.181614 0
M  V30 25 C -1.365397 -2.017745 0.692642 0
M  V30 26 C -0.537807 -3.072558 0.344926 0
M  V30 27 C -0.529248 -4.186957 1.170505 0
M  V30 28 C -1.305682 -4.277560 2.309761 0
M  V30 29 C -2.126656 -3.189620 2.624026 0
M  V30 30 C -2.163264 -2.062865 1.826744 0
M  V30 31 H -4.700634 -0.173725 2.300514 0
M  V30 32 H -3.962990 -1.292026 3.593639 0
M  V30 33 H -3.368404 0.430009 3.358298 0
M  V30 34 H -2.915361 0.883314 0.606491 0
M  V30 35 H 4.300377 -2.250317 -1.745626 0
M  V30 36 H 5.073014 -1.348975 0.371943 0
M  V30 37 H 4.539557 0.109339 2.292281 0
M  V30 38 H 2.980788 1.676410 3.480275 0
M  V30 39 H -0.159591 2.849826 1.840451 0
M  V30 40 H 0.985969 3.252471 3.218967 0
M  V30 41 H -0.332259 0.624011 3.143985 0
M  V30 42 H 0.008143 1.622657 4.451564 0
M  V30 43 H 0.212918 1.222653 0.412803 0
M  V30 44 H -1.594337 1.176768 -4.224298 0
M  V30 45 H 0.086855 -3.032928 -0.549408 0
M  V30 46 H 0.089171 -5.047789 0.964179 0
M  V30 47 H -1.288591 -5.167608 2.954698 0
M  V30 48 H -2.756403 -3.175131 3.487851 0
M  V30 END ATOM
M  V30 BEGIN BOND
M  V30 1 1 1 2
M  V30 2 1 2 3
M  V30 3 2 3 4
M  V30 4 1 4 5
M  V30 5 2 5 6
M  V30 6 1 6 7
M  V30 7 2 7 8
M  V30 8 1 8 9
M  V30 9 1 8 10
M  V30 10 2 10 11
M  V30 11 1 11 12
M  V30 12 2 12 13
M  V30 13 1 13 14
M  V30 14 2 14 15
M  V30 15 1 15 16
M  V30 16 1 16 17
M  V30 17 1 15 18
M  V30 18 2 18 19
M  V30 19 1 6 20
M  V30 20 2 20 21
M  V30 21 1 20 22
M  V30 22 1 22 23
M  V30 23 2 23 24
M  V30 24 1 4 25
M  V30 25 2 25 26
M  V30 26 1 26 27
M  V30 27 2 27 28
M  V30 28 1 28 29
M  V30 29 2 29 30
M  V30 30 1 30 2
M  V30 31 1 23 5
M  V30 32 1 30 25
M  V30 33 1 19 7
M  V30 34 1 19 12
M  V30 35 1 1 31
M  V30 36 1 1 32
M  V30 37 1 1 33
M  V30 38 1 3 34
M  V30 39 1 10 35
M  V30 40 1 11 36
M  V30 41 1 13 37
M  V30 42 1 14 38
M  V30 43 1 16 39
M  V30 44 1 16 40
M  V30 45 1 17 41
M  V30 46 1 17 42
M  V30 47 1 18 43
M  V30 48 1 22 44
M  V30 49 1 26 45
M  V30 50 1 27 46
M  V30 51 1 28 47
M  V30 52 1 29 48
M  V30 END BOND
M  V30 END CTAB
M  END
>  <Dataset>  (558) 
ChEMBL_Kinases

>  <Ligand_Instance>  (558) 
nan

>  <PDB_ID>  (558) 
nan

>  <Standardized_SMILES>  (558) 
Cn1cc(C2=C(c3c(Cl)ccc4ccc(CN)cc34)C(=O)NC2=O)c2ccccc21

>  <Name>  (558) 
nan

>  <Pocket>  (558) 
nan

>  <ATP_Site>  (558) 
nan

>  <Peripheral>  (558) 
nan

>  <Num_H_Atoms_ProtBoundConf>  (558) 
nan

>  <Num_Resolved_Atoms>  (558) 
nan

>  <Num_Not_Resolved_Atoms>  (558) 
nan

$$$$
CHEMBL34241
     RDKit          3D

  0  0  0  0  0  0  0  0  0  0999 V3000
M  V30 BEGIN CTAB
M  V30 COUNTS 66 69 0 0 0
M  V30 BEGIN ATOM
M  V30 1 C 4.726589 -2.104716 6.320578 0
M  V30 2 C 4.222979 -2.777638 5.089601 0
M  V30 3 O 4.224836 -4.005143 4.730860 0
M  V30 4 C 3.589350 -2.035113 4.009190 0
M  V30 5 C 4.475233 -1.586504 3.039281 0
M  V30 6 O 5.846649 -1.818932 3.091652 0
M  V30 7 C 3.992890 -0.870953 1.959588 0
M  V30 8 C 4.900924 -0.383139 0.915625 0
M  V30 9 C 2.644110 -0.620434 1.872828 0
M  V30 10 O 2.079177 0.086380 0.827648 0
M  V30 11 C 1.735059 -1.048417 2.813754 0
M  V30 12 C 0.284697 -0.872024 2.876329 0
M  V30 13 C -0.322162 -0.105345 1.790570 0
M  V30 14 C -0.232395 1.269727 1.743092 0
M  V30 15 O 0.455306 1.921329 2.759430 0
M  V30 16 C -0.763468 2.081755 0.775084 0
M  V30 17 C -1.467927 1.474945 -0.273840 0
M  V30 18 C -1.606076 0.087417 -0.302351 0
M  V30 19 C -2.337594 -0.462088 -1.398318 0
M  V30 20 O -2.737199 0.493764 -2.160703 0
M  V30 21 C -2.859862 -1.585753 -2.085620 0
M  V30 22 C -2.857101 -2.877072 -1.919447 0
M  V30 23 C -3.431138 -3.964018 -2.692791 0
M  V30 24 C -4.151743 -3.765720 -3.853154 0
M  V30 25 C -4.712534 -4.770366 -4.618577 0
M  V30 26 C -4.538435 -6.072890 -4.189576 0
M  V30 27 C -3.823788 -6.300716 -3.035466 0
M  V30 28 C -3.280050 -5.272880 -2.299347 0
M  V30 29 C -1.029534 -0.619362 0.723988 0
M  V30 30 O -1.103479 -1.985348 0.795548 0
M  V30 31 O -1.973493 2.356386 -1.210590 0
M  V30 32 C -1.846628 3.735707 -1.207205 0
M  V30 33 C -1.184725 4.161460 -2.524264 0
M  V30 34 C -3.234948 4.376380 -1.196535 0
M  V30 35 C -1.105529 4.325288 -0.094466 0
M  V30 36 C -0.608706 3.517995 0.821295 0
M  V30 37 C 2.241147 -1.769854 3.897630 0
M  V30 38 O 1.464686 -2.274221 4.934824 0
M  V30 39 H 3.906918 -1.493981 6.757977 0
M  V30 40 H 5.524334 -1.356752 6.055396 0
M  V30 41 H 5.088986 -2.826642 7.066310 0
M  V30 42 H 6.298236 -2.585587 2.617321 0
M  V30 43 H 5.783059 -1.080231 0.872878 0
M  V30 44 H 4.464372 -0.303621 -0.088569 0
M  V30 45 H 5.324843 0.609521 1.214755 0
M  V30 46 H 2.474256 0.144807 -0.094727 0
M  V30 47 H 0.077824 -0.324943 3.843673 0
M  V30 48 H -0.163179 -1.868706 3.031127 0
M  V30 49 H -0.044825 2.481706 3.445410 0
M  V30 50 H -3.442383 -1.504969 -3.020853 0
M  V30 51 H -2.328370 -3.200810 -1.041607 0
M  V30 52 H -4.332089 -2.789425 -4.254169 0
M  V30 53 H -5.272839 -4.592116 -5.524961 0
M  V30 54 H -4.923869 -6.945501 -4.691888 0
M  V30 55 H -3.669254 -7.329537 -2.672901 0
M  V30 56 H -2.725767 -5.531950 -1.394130 0
M  V30 57 H -0.252152 -2.545018 0.748721 0
M  V30 58 H -1.857767 3.924087 -3.372581 0
M  V30 59 H -0.206208 3.657895 -2.630492 0
M  V30 60 H -1.010319 5.259432 -2.529026 0
M  V30 61 H -3.628095 4.223306 -0.156419 0
M  V30 62 H -3.179249 5.443855 -1.456927 0
M  V30 63 H -3.849959 3.803875 -1.918597 0
M  V30 64 H -1.023000 5.384946 -0.109028 0
M  V30 65 H -0.065484 3.960188 1.635092 0
M  V30 66 H 0.913641 -3.128016 4.859305 0
M  V30 END ATOM
M  V30 BEGIN BOND
M  V30 1 1 1 2
M  V30 2 2 2 3
M  V30 3 1 2 4
M  V30 4 2 4 5
M  V30 5 1 5 6
M  V30 6 1 5 7
M  V30 7 1 7 8
M  V30 8 2 7 9
M  V30 9 1 9 10
M  V30 10 1 9 11
M  V30 11 1 11 12
M  V30 12 1 12 13
M  V30 13 2 13 14
M  V30 14 1 14 15
M  V30 15 1 14 16
M  V30 16 2 16 17
M  V30 17 1 17 18
M  V30 18 1 18 19
M  V30 19 2 19 20
M  V30 20 1 19 21
M  V30 21 2 21 22
M  V30 22 1 22 23
M  V30 23 2 23 24
M  V30 24 1 24 25
M  V30 25 2 25 26
M  V30 26 1 26 27
M  V30 27 2 27 28
M  V30 28 2 18 29
M  V30 29 1 29 30
M  V30 30 1 17 31
M  V30 31 1 31 32
M  V30 32 1 32 33
M  V30 33 1 32 34
M  V30 34 1 32 35
M  V30 35 2 35 36
M  V30 36 2 11 37
M  V30 37 1 37 38
M  V30 38 1 37 4
M  V30 39 1 29 13
M  V30 40 1 36 16
M  V30 41 1 28 23
M  V30 42 1 1 39
M  V30 43 1 1 40
M  V30 44 1 1 41
M  V30 45 1 6 42
M  V30 46 1 8 43
M  V30 47 1 8 44
M  V30 48 1 8 45
M  V30 49 1 10 46
M  V30 50 1 12 47
M  V30 51 1 12 48
M  V30 52 1 15 49
M  V30 53 1 21 50
M  V30 54 1 22 51
M  V30 55 1 24 52
M  V30 56 1 25 53
M  V30 57 1 26 54
M  V30 58 1 27 55
M  V30 59 1 28 56
M  V30 60 1 30 57
M  V30 61 1 33 58
M  V30 62 1 33 59
M  V30 63 1 33 60
M  V30 64 1 34 61
M  V30 65 1 34 62
M  V30 66 1 34 63
M  V30 67 1 35 64
M  V30 68 1 36 65
M  V30 69 1 38 66
M  V30 END BOND
M  V30 END CTAB
M  END
>  <Dataset>  (559) 
ChEMBL_Kinases

>  <Ligand_Instance>  (559) 
nan

>  <PDB_ID>  (559) 
nan

>  <Standardized_SMILES>  (559) 
CC(=O)c1c(O)c(C)c(O)c(Cc2c(O)c3c(c(C(=O)/C=C/c4ccccc4)c2O)OC(C)(C)C=C3)c1O

>  <Name>  (559) 
ROTTLERIN

>  <Pocket>  (559) 
nan

>  <ATP_Site>  (559) 
nan

>  <Peripheral>  (559) 
nan

>  <Num_H_Atoms_ProtBoundConf>  (559) 
nan

>  <Num_Resolved_Atoms>  (559) 
nan

>  <Num_Not_Resolved_Atoms>  (559) 
nan

$$$$
CHEMBL4090007
     RDKit          3D

  0  0  0  0  0  0  0  0  0  0999 V3000
M  V30 BEGIN CTAB
M  V30 COUNTS 35 36 0 0 0
M  V30 BEGIN ATOM
M  V30 1 C -1.669029 -3.489374 2.560496 0
M  V30 2 C -0.494898 -3.011318 3.415316 0
M  V30 3 O 0.494729 -2.512514 2.555199 0
M  V30 4 C 0.371633 -1.495518 1.695699 0
M  V30 5 O 0.484670 -2.432565 2.487792 0
M  V30 6 C 0.157471 -0.384425 0.813509 0
M  V30 7 C 1.025661 -0.003058 -0.175442 0
M  V30 8 C 2.295830 -0.507419 -0.630879 0
M  V30 9 C 3.070176 0.037598 -1.699994 0
M  V30 10 N 3.721058 0.471167 -2.575618 0
M  V30 11 C 2.885007 -1.557675 -0.083327 0
M  V30 12 N 4.096080 -2.205878 -0.362112 0
M  V30 13 C 0.343521 1.064038 -0.674701 0
M  V30 14 C 0.582728 1.965508 -1.692262 0
M  V30 15 C -0.269851 2.979065 -2.018668 0
M  V30 16 C -1.442852 3.149423 -1.322838 0
M  V30 17 Cl -2.545066 4.450559 -1.735773 0
M  V30 18 C -1.750131 2.298570 -0.302861 0
M  V30 19 Cl -3.251998 2.542336 0.557799 0
M  V30 20 C -0.840073 1.277694 -0.011362 0
M  V30 21 N -0.951336 0.354400 0.932382 0
M  V30 22 C -2.042700 0.203408 1.877097 0
M  V30 23 H -1.328932 -3.625109 1.522562 0
M  V30 24 H -2.475995 -2.746709 2.571188 0
M  V30 25 H -2.038316 -4.442506 2.993925 0
M  V30 26 H -0.103384 -3.857340 3.988875 0
M  V30 27 H -0.905658 -2.229768 4.115058 0
M  V30 28 H 2.493608 -2.118877 0.722707 0
M  V30 29 H 4.502985 -2.830424 -1.099853 0
M  V30 30 H 4.970296 -2.177486 0.222596 0
M  V30 31 H 1.462325 1.929459 -2.300218 0
M  V30 32 H -0.074477 3.673645 -2.810756 0
M  V30 33 H -1.688866 -0.491125 2.670585 0
M  V30 34 H -2.282337 1.139623 2.420368 0
M  V30 35 H -2.907719 -0.288860 1.402804 0
M  V30 END ATOM
M  V30 BEGIN BOND
M  V30 1 1 1 2
M  V30 2 1 2 3
M  V30 3 1 3 4
M  V30 4 2 4 5
M  V30 5 1 4 6
M  V30 6 2 6 7
M  V30 7 1 7 8
M  V30 8 1 8 9
M  V30 9 3 9 10
M  V30 10 2 8 11
M  V30 11 1 11 12
M  V30 12 1 7 13
M  V30 13 2 13 14
M  V30 14 1 14 15
M  V30 15 2 15 16
M  V30 16 1 16 17
M  V30 17 1 16 18
M  V30 18 1 18 19
M  V30 19 2 18 20
M  V30 20 1 20 21
M  V30 21 1 21 22
M  V30 22 1 21 6
M  V30 23 1 20 13
M  V30 24 1 1 23
M  V30 25 1 1 24
M  V30 26 1 1 25
M  V30 27 1 2 26
M  V30 28 1 2 27
M  V30 29 1 11 28
M  V30 30 1 12 29
M  V30 31 1 12 30
M  V30 32 1 14 31
M  V30 33 1 15 32
M  V30 34 1 22 33
M  V30 35 1 22 34
M  V30 36 1 22 35
M  V30 END BOND
M  V30 END CTAB
M  END
>  <Dataset>  (560) 
ChEMBL_Kinases

>  <Ligand_Instance>  (560) 
nan

>  <PDB_ID>  (560) 
nan

>  <Standardized_SMILES>  (560) 
CCOC(=O)c1c(/C(C#N)=C/N)c2ccc(Cl)c(Cl)c2n1C

>  <Name>  (560) 
nan

>  <Pocket>  (560) 
nan

>  <ATP_Site>  (560) 
nan

>  <Peripheral>  (560) 
nan

>  <Num_H_Atoms_ProtBoundConf>  (560) 
nan

>  <Num_Resolved_Atoms>  (560) 
nan

>  <Num_Not_Resolved_Atoms>  (560) 
nan

$$$$
CHEMBL4846069
     RDKit          3D

  0  0  0  0  0  0  0  0  0  0999 V3000
M  V30 BEGIN CTAB
M  V30 COUNTS 40 42 0 0 0
M  V30 BEGIN ATOM
M  V30 1 C 1.998749 -6.067678 4.507974 0
M  V30 2 O 0.758983 -5.948732 3.844984 0
M  V30 3 C 0.656568 -5.199269 2.688657 0
M  V30 4 C -0.568745 -5.101016 2.062162 0
M  V30 5 C -0.708203 -4.353399 0.894070 0
M  V30 6 C 0.410611 -3.718554 0.386969 0
M  V30 7 C 0.283149 -2.916087 -0.858492 0
M  V30 8 C -0.061565 -1.496016 -0.549465 0
M  V30 9 O -0.161759 -1.316949 0.692395 0
M  V30 10 N -0.216894 -0.605621 -1.646077 0
M  V30 11 C -0.548509 0.733925 -1.220112 0
M  V30 12 C 0.416238 1.705655 -0.941503 0
M  V30 13 C -0.352293 2.816024 -0.575864 0
M  V30 14 C 0.294775 4.098573 -0.192228 0
M  V30 15 C -0.324298 5.352514 -0.702915 0
M  V30 16 C -0.129875 5.964427 0.685443 0
M  V30 17 C -0.091859 4.544337 1.224538 0
M  V30 18 N -1.653557 2.532289 -0.631470 0
M  V30 19 N -1.780420 1.272509 -1.021053 0
M  V30 20 C 1.633083 -3.821002 1.018594 0
M  V30 21 C 1.785110 -4.558869 2.177126 0
M  V30 22 H 1.924722 -6.799302 5.341705 0
M  V30 23 H 2.779399 -6.359049 3.764688 0
M  V30 24 H 2.294653 -5.091670 4.950780 0
M  V30 25 H -1.473535 -5.593404 2.441128 0
M  V30 26 H -1.683260 -4.285512 0.410872 0
M  V30 27 H -0.397080 -3.381704 -1.588580 0
M  V30 28 H 1.282508 -2.897334 -1.336232 0
M  V30 29 H -0.091892 -0.949627 -2.600543 0
M  V30 30 H 1.479207 1.560152 -1.013676 0
M  V30 31 H 1.398794 4.036544 -0.238032 0
M  V30 32 H 0.269531 5.897920 -1.469881 0
M  V30 33 H -1.379729 5.224041 -0.947597 0
M  V30 34 H -0.977115 6.583794 1.037876 0
M  V30 35 H 0.856883 6.464135 0.837363 0
M  V30 36 H 0.661116 4.342149 1.994130 0
M  V30 37 H -1.148765 4.237989 1.461783 0
M  V30 38 H -2.438629 3.175592 -0.410950 0
M  V30 39 H 2.467740 -3.306464 0.579449 0
M  V30 40 H 2.739640 -4.623755 2.647810 0
M  V30 END ATOM
M  V30 BEGIN BOND
M  V30 1 1 1 2
M  V30 2 1 2 3
M  V30 3 2 3 4
M  V30 4 1 4 5
M  V30 5 2 5 6
M  V30 6 1 6 7
M  V30 7 1 7 8
M  V30 8 2 8 9
M  V30 9 1 8 10
M  V30 10 1 10 11
M  V30 11 1 11 12
M  V30 12 2 12 13
M  V30 13 1 13 14
M  V30 14 1 14 15
M  V30 15 1 15 16
M  V30 16 1 16 17
M  V30 17 1 13 18
M  V30 18 1 18 19
M  V30 19 1 6 20
M  V30 20 2 20 21
M  V30 21 1 21 3
M  V30 22 2 19 11
M  V30 23 1 17 14
M  V30 24 1 1 22
M  V30 25 1 1 23
M  V30 26 1 1 24
M  V30 27 1 4 25
M  V30 28 1 5 26
M  V30 29 1 7 27
M  V30 30 1 7 28
M  V30 31 1 10 29
M  V30 32 1 12 30
M  V30 33 1 14 31
M  V30 34 1 15 32
M  V30 35 1 15 33
M  V30 36 1 16 34
M  V30 37 1 16 35
M  V30 38 1 17 36
M  V30 39 1 17 37
M  V30 40 1 18 38
M  V30 41 1 20 39
M  V30 42 1 21 40
M  V30 END BOND
M  V30 END CTAB
M  END
>  <Dataset>  (561) 
ChEMBL_Kinases

>  <Ligand_Instance>  (561) 
nan

>  <PDB_ID>  (561) 
nan

>  <Standardized_SMILES>  (561) 
COc1ccc(CC(=O)Nc2cc(C3CCC3)[nH]n2)cc1

>  <Name>  (561) 
nan

>  <Pocket>  (561) 
nan

>  <ATP_Site>  (561) 
nan

>  <Peripheral>  (561) 
nan

>  <Num_H_Atoms_ProtBoundConf>  (561) 
nan

>  <Num_Resolved_Atoms>  (561) 
nan

>  <Num_Not_Resolved_Atoms>  (561) 
nan

$$$$
CHEMBL4091067
     RDKit          3D

  0  0  0  0  0  0  0  0  0  0999 V3000
M  V30 BEGIN CTAB
M  V30 COUNTS 58 61 0 0 0
M  V30 BEGIN ATOM
M  V30 1 C 0.384975 -1.180911 2.412599 0
M  V30 2 C 1.804950 -1.569128 2.522293 0
M  V30 3 C 1.907240 -2.715969 3.560430 0
M  V30 4 N 2.437251 -1.996889 1.293233 0
M  V30 5 C 3.540379 -1.416076 0.813631 0
M  V30 6 C 4.433462 -0.256377 1.040996 0
M  V30 7 N 4.206552 0.718311 -0.017391 0
M  V30 8 C 3.177439 1.483792 -0.582663 0
M  V30 9 C 3.367902 2.305935 -1.690208 0
M  V30 10 C 2.278525 2.981284 -2.184585 0
M  V30 11 C 1.015788 2.888415 -1.647278 0
M  V30 12 C 0.773959 2.092309 -0.551531 0
M  V30 13 C -0.514038 1.867056 0.075595 0
M  V30 14 O -0.438674 1.707276 1.336446 0
M  V30 15 N -1.815206 1.789080 -0.460022 0
M  V30 16 C -2.865437 1.523637 0.535068 0
M  V30 17 C -4.045769 0.840667 -0.086024 0
M  V30 18 C -4.021099 -0.556756 -0.108143 0
M  V30 19 C -5.042636 -1.334206 -0.655059 0
M  V30 20 C -6.128177 -0.700250 -1.200930 0
M  V30 21 C -6.150276 0.674402 -1.179054 0
M  V30 22 C -5.156325 1.444517 -0.646026 0
M  V30 23 C 1.902161 1.417469 -0.069591 0
M  V30 24 N 3.851877 -2.146815 -0.298063 0
M  V30 25 N 2.939710 -3.113450 -0.436027 0
M  V30 26 C 2.055320 -3.027415 0.544100 0
M  V30 27 C 0.916964 -3.927161 0.676927 0
M  V30 28 C 0.685729 -5.077988 1.393167 0
M  V30 29 C -0.538818 -5.693641 1.310037 0
M  V30 30 N -1.546694 -5.212171 0.540864 0
M  V30 31 C -1.365099 -4.098966 -0.172200 0
M  V30 32 C -0.132871 -3.432095 -0.121422 0
M  V30 33 H 0.037954 -1.023975 1.360361 0
M  V30 34 H 0.215327 -0.235499 3.030724 0
M  V30 35 H -0.260716 -1.933914 2.943713 0
M  V30 36 H 2.377658 -0.717325 3.010880 0
M  V30 37 H 2.643653 -3.466456 3.196718 0
M  V30 38 H 0.922760 -3.154866 3.748881 0
M  V30 39 H 2.305392 -2.363394 4.528872 0
M  V30 40 H 5.482182 -0.598438 0.998019 0
M  V30 41 H 4.298724 0.197704 2.046507 0
M  V30 42 H 5.133579 0.906592 -0.527586 0
M  V30 43 H 4.331809 2.404925 -2.142412 0
M  V30 44 H 2.478274 3.605312 -3.048919 0
M  V30 45 H 0.170475 3.424292 -2.046811 0
M  V30 46 H -1.825643 1.926614 -1.497561 0
M  V30 47 H -3.122767 2.501046 0.977403 0
M  V30 48 H -2.462384 0.903384 1.363960 0
M  V30 49 H -3.177122 -1.087053 0.309540 0
M  V30 50 H -4.945242 -2.430543 -0.630857 0
M  V30 51 H -6.895202 -1.342015 -1.610457 0
M  V30 52 H -7.011831 1.150957 -1.617248 0
M  V30 53 H -5.145026 2.520161 -0.612539 0
M  V30 54 H 1.738941 0.787889 0.797088 0
M  V30 55 H 1.559307 -5.337282 1.953601 0
M  V30 56 H -0.650419 -6.594201 1.895138 0
M  V30 57 H -2.229144 -3.811167 -0.742284 0
M  V30 58 H -0.144998 -2.548485 -0.746636 0
M  V30 END ATOM
M  V30 BEGIN BOND
M  V30 1 1 1 2
M  V30 2 1 2 3
M  V30 3 1 2 4
M  V30 4 1 4 5
M  V30 5 1 5 6
M  V30 6 1 6 7
M  V30 7 1 7 8
M  V30 8 2 8 9
M  V30 9 1 9 10
M  V30 10 2 10 11
M  V30 11 1 11 12
M  V30 12 1 12 13
M  V30 13 2 13 14
M  V30 14 1 13 15
M  V30 15 1 15 16
M  V30 16 1 16 17
M  V30 17 2 17 18
M  V30 18 1 18 19
M  V30 19 2 19 20
M  V30 20 1 20 21
M  V30 21 2 21 22
M  V30 22 2 12 23
M  V30 23 2 5 24
M  V30 24 1 24 25
M  V30 25 2 25 26
M  V30 26 1 26 27
M  V30 27 2 27 28
M  V30 28 1 28 29
M  V30 29 2 29 30
M  V30 30 1 30 31
M  V30 31 2 31 32
M  V30 32 1 26 4
M  V30 33 1 32 27
M  V30 34 1 23 8
M  V30 35 1 22 17
M  V30 36 1 1 33
M  V30 37 1 1 34
M  V30 38 1 1 35
M  V30 39 1 2 36
M  V30 40 1 3 37
M  V30 41 1 3 38
M  V30 42 1 3 39
M  V30 43 1 6 40
M  V30 44 1 6 41
M  V30 45 1 7 42
M  V30 46 1 9 43
M  V30 47 1 10 44
M  V30 48 1 11 45
M  V30 49 1 15 46
M  V30 50 1 16 47
M  V30 51 1 16 48
M  V30 52 1 18 49
M  V30 53 1 19 50
M  V30 54 1 20 51
M  V30 55 1 21 52
M  V30 56 1 22 53
M  V30 57 1 23 54
M  V30 58 1 28 55
M  V30 59 1 29 56
M  V30 60 1 31 57
M  V30 61 1 32 58
M  V30 END BOND
M  V30 END CTAB
M  END
>  <Dataset>  (562) 
ChEMBL_Kinases

>  <Ligand_Instance>  (562) 
nan

>  <PDB_ID>  (562) 
nan

>  <Standardized_SMILES>  (562) 
CC(C)n1c(CNc2cccc(C(=O)NCc3ccccc3)c2)nnc1-c1ccncc1

>  <Name>  (562) 
nan

>  <Pocket>  (562) 
nan

>  <ATP_Site>  (562) 
nan

>  <Peripheral>  (562) 
nan

>  <Num_H_Atoms_ProtBoundConf>  (562) 
nan

>  <Num_Resolved_Atoms>  (562) 
nan

>  <Num_Not_Resolved_Atoms>  (562) 
nan

$$$$
CHEMBL4091127
     RDKit          3D

  0  0  0  0  0  0  0  0  0  0999 V3000
M  V30 BEGIN CTAB
M  V30 COUNTS 35 37 0 0 0
M  V30 BEGIN ATOM
M  V30 1 C -0.602770 -4.021934 1.018959 0
M  V30 2 O 0.685633 -4.569496 1.090866 0
M  V30 3 C 1.782870 -3.709973 0.984489 0
M  V30 4 C 3.036299 -4.287038 1.060067 0
M  V30 5 C 4.093460 -3.419093 0.952550 0
M  V30 6 C 3.852723 -2.072754 0.781833 0
M  V30 7 N 4.722957 -1.075054 0.657518 0
M  V30 8 C 4.038704 0.059236 0.512685 0
M  V30 9 C 2.680868 -0.197281 0.542276 0
M  V30 10 C 1.576220 0.750431 0.420169 0
M  V30 11 C 0.295918 0.431669 0.457725 0
M  V30 12 C -0.798472 1.388586 0.334483 0
M  V30 13 C -0.649020 2.746850 0.163190 0
M  V30 14 C -1.722342 3.606624 0.052253 0
M  V30 15 C -3.014421 3.129414 0.109775 0
M  V30 16 C -3.191928 1.772105 0.280887 0
M  V30 17 C -4.578074 1.230776 0.346290 0
M  V30 18 F -4.509931 -0.130339 0.265189 0
M  V30 19 F -5.105274 1.521765 1.612041 0
M  V30 20 F -5.396519 1.804018 -0.609733 0
M  V30 21 C -2.102397 0.942985 0.387983 0
M  V30 22 N 2.623382 -1.520302 0.709419 0
M  V30 23 N 1.628770 -2.386337 0.816825 0
M  V30 24 H -0.808297 -3.340211 1.873758 0
M  V30 25 H -1.369436 -4.828316 1.067884 0
M  V30 26 H -0.776530 -3.389297 0.111662 0
M  V30 27 H 3.251627 -5.322282 1.191406 0
M  V30 28 H 5.128855 -3.785479 1.001025 0
M  V30 29 H 4.467227 1.064390 0.386521 0
M  V30 30 H 1.845436 1.793564 0.288925 0
M  V30 31 H 0.084890 -0.599301 0.587556 0
M  V30 32 H 0.346591 3.149848 0.114420 0
M  V30 33 H -1.503564 4.677974 -0.082649 0
M  V30 34 H -3.822314 3.844055 0.017758 0
M  V30 35 H -2.296979 -0.131261 0.523288 0
M  V30 END ATOM
M  V30 BEGIN BOND
M  V30 1 1 1 2
M  V30 2 1 2 3
M  V30 3 1 3 4
M  V30 4 2 4 5
M  V30 5 1 5 6
M  V30 6 2 6 7
M  V30 7 1 7 8
M  V30 8 2 8 9
M  V30 9 1 9 10
M  V30 10 2 10 11
M  V30 11 1 11 12
M  V30 12 2 12 13
M  V30 13 1 13 14
M  V30 14 2 14 15
M  V30 15 1 15 16
M  V30 16 1 16 17
M  V30 17 1 17 18
M  V30 18 1 17 19
M  V30 19 1 17 20
M  V30 20 2 16 21
M  V30 21 1 9 22
M  V30 22 1 22 23
M  V30 23 2 23 3
M  V30 24 1 22 6
M  V30 25 1 21 12
M  V30 26 1 1 24
M  V30 27 1 1 25
M  V30 28 1 1 26
M  V30 29 1 4 27
M  V30 30 1 5 28
M  V30 31 1 8 29
M  V30 32 1 10 30
M  V30 33 1 11 31
M  V30 34 1 13 32
M  V30 35 1 14 33
M  V30 36 1 15 34
M  V30 37 1 21 35
M  V30 END BOND
M  V30 END CTAB
M  END
>  <Dataset>  (563) 
ChEMBL_Kinases

>  <Ligand_Instance>  (563) 
nan

>  <PDB_ID>  (563) 
nan

>  <Standardized_SMILES>  (563) 
COc1ccc2ncc(/C=C/c3cccc(C(F)(F)F)c3)n2n1

>  <Name>  (563) 
nan

>  <Pocket>  (563) 
nan

>  <ATP_Site>  (563) 
nan

>  <Peripheral>  (563) 
nan

>  <Num_H_Atoms_ProtBoundConf>  (563) 
nan

>  <Num_Resolved_Atoms>  (563) 
nan

>  <Num_Not_Resolved_Atoms>  (563) 
nan

$$$$
CHEMBL3421979
     RDKit          3D

  0  0  0  0  0  0  0  0  0  0999 V3000
M  V30 BEGIN CTAB
M  V30 COUNTS 26 28 0 0 0
M  V30 BEGIN ATOM
M  V30 1 C 0.813629 -2.840040 4.303627 0
M  V30 2 C 0.158162 -2.654437 2.964106 0
M  V30 3 N -0.681732 -3.559652 2.439484 0
M  V30 4 C -1.235864 -3.325296 1.226403 0
M  V30 5 C -0.873905 -2.143702 0.627466 0
M  V30 6 C -0.032671 -1.181054 1.095312 0
M  V30 7 C 0.393804 0.066304 0.520173 0
M  V30 8 C 1.356977 0.846263 1.172491 0
M  V30 9 N 1.597186 1.952581 0.473271 0
M  V30 10 C 0.850858 1.992203 -0.640267 0
M  V30 11 C 0.681783 2.861430 -1.699214 0
M  V30 12 N -0.205950 2.568204 -2.694831 0
M  V30 13 C -0.926091 1.409668 -2.637091 0
M  V30 14 C -0.750240 0.564503 -1.591323 0
M  V30 15 C 0.126236 0.824271 -0.581266 0
M  V30 16 N 0.448323 -1.529356 2.298785 0
M  V30 17 H 1.852263 -3.202082 4.215643 0
M  V30 18 H 0.712973 -1.893271 4.880168 0
M  V30 19 H 0.238323 -3.606692 4.881151 0
M  V30 20 H -1.916886 -4.016027 0.755685 0
M  V30 21 H -1.326376 -2.000035 -0.330535 0
M  V30 22 H 1.916452 0.705042 2.112875 0
M  V30 23 H 2.259520 2.736278 0.687295 0
M  V30 24 H 1.288650 3.761375 -1.675940 0
M  V30 25 H -1.621145 1.230921 -3.464000 0
M  V30 26 H -1.348319 -0.304328 -1.621322 0
M  V30 END ATOM
M  V30 BEGIN BOND
M  V30 1 1 1 2
M  V30 2 2 2 3
M  V30 3 1 3 4
M  V30 4 2 4 5
M  V30 5 1 5 6
M  V30 6 1 6 7
M  V30 7 2 7 8
M  V30 8 1 8 9
M  V30 9 1 9 10
M  V30 10 2 10 11
M  V30 11 1 11 12
M  V30 12 2 12 13
M  V30 13 1 13 14
M  V30 14 2 14 15
M  V30 15 2 6 16
M  V30 16 1 16 2
M  V30 17 1 15 7
M  V30 18 1 15 10
M  V30 19 1 1 17
M  V30 20 1 1 18
M  V30 21 1 1 19
M  V30 22 1 4 20
M  V30 23 1 5 21
M  V30 24 1 8 22
M  V30 25 1 9 23
M  V30 26 1 11 24
M  V30 27 1 13 25
M  V30 28 1 14 26
M  V30 END BOND
M  V30 END CTAB
M  END
>  <Dataset>  (564) 
ChEMBL_Kinases

>  <Ligand_Instance>  (564) 
nan

>  <PDB_ID>  (564) 
nan

>  <Standardized_SMILES>  (564) 
Cc1nccc(-c2c[nH]c3cnccc23)n1

>  <Name>  (564) 
nan

>  <Pocket>  (564) 
nan

>  <ATP_Site>  (564) 
nan

>  <Peripheral>  (564) 
nan

>  <Num_H_Atoms_ProtBoundConf>  (564) 
nan

>  <Num_Resolved_Atoms>  (564) 
nan

>  <Num_Not_Resolved_Atoms>  (564) 
nan

$$$$
CHEMBL4091687
     RDKit          3D

  0  0  0  0  0  0  0  0  0  0999 V3000
M  V30 BEGIN CTAB
M  V30 COUNTS 50 54 0 0 0
M  V30 BEGIN ATOM
M  V30 1 C 2.316853 -4.937998 5.803249 0
M  V30 2 C 1.611282 -3.981384 4.937131 0
M  V30 3 C 0.227092 -3.793865 4.958384 0
M  V30 4 N -0.371645 -2.896245 4.136091 0
M  V30 5 C 0.403219 -2.194103 3.302261 0
M  V30 6 C 1.772631 -2.332955 3.233725 0
M  V30 7 C 2.647315 -1.585053 2.338503 0
M  V30 8 C 2.172086 -0.640882 1.451089 0
M  V30 9 C 2.994392 0.068009 0.603941 0
M  V30 10 C 4.341022 -0.222803 0.693129 0
M  V30 11 C 4.944877 0.603325 -0.239595 0
M  V30 12 N 3.978738 1.330907 -0.831265 0
M  V30 13 N 2.787041 1.017190 -0.329470 0
M  V30 14 C 1.532137 1.580908 -0.710330 0
M  V30 15 C 1.434103 2.956240 -0.661730 0
M  V30 16 C 0.202586 3.506132 -1.035941 0
M  V30 17 C -0.805752 2.645973 -1.419517 0
M  V30 18 C -0.707128 1.270702 -1.467974 0
M  V30 19 N -1.742949 0.406229 -1.863199 0
M  V30 20 C -3.001002 0.978228 -2.296866 0
M  V30 21 C -3.833232 1.095569 -1.011267 0
M  V30 22 C -3.636050 -0.258877 -0.317038 0
M  V30 23 N -3.800219 -1.308518 -1.272472 0
M  V30 24 C -2.602363 -1.870745 -1.801202 0
M  V30 25 C -1.397119 -0.998345 -1.776185 0
M  V30 26 N 0.500600 0.808866 -1.096393 0
M  V30 27 N 4.812165 -1.140589 1.554334 0
M  V30 28 N 3.977012 -1.791501 2.344510 0
M  V30 29 N 2.310181 -3.234653 4.069512 0
M  V30 30 H 2.780461 -4.391538 6.649841 0
M  V30 31 H 1.672082 -5.727749 6.207659 0
M  V30 32 H 3.136302 -5.376619 5.177738 0
M  V30 33 H -0.359454 -4.383952 5.649202 0
M  V30 34 H -0.069602 -1.485934 2.653636 0
M  V30 35 H 1.115462 -0.422095 1.390772 0
M  V30 36 H 5.992344 0.668665 -0.466763 0
M  V30 37 H 2.249654 3.577022 -0.355895 0
M  V30 38 H 0.079249 4.580410 -1.013348 0
M  V30 39 H -1.711154 3.132401 -1.688460 0
M  V30 40 H -2.893167 1.937507 -2.808904 0
M  V30 41 H -3.487574 0.225028 -2.966070 0
M  V30 42 H -3.350716 1.910074 -0.431638 0
M  V30 43 H -4.892018 1.288586 -1.230062 0
M  V30 44 H -4.459691 -0.365621 0.440189 0
M  V30 45 H -2.640256 -0.276451 0.130297 0
M  V30 46 H -4.592865 -1.202284 -1.911269 0
M  V30 47 H -2.847174 -2.209155 -2.849302 0
M  V30 48 H -2.368943 -2.778288 -1.180285 0
M  V30 49 H -0.757033 -1.177916 -0.871185 0
M  V30 50 H -0.762255 -1.243291 -2.652303 0
M  V30 END ATOM
M  V30 BEGIN BOND
M  V30 1 1 1 2
M  V30 2 2 2 3
M  V30 3 1 3 4
M  V30 4 2 4 5
M  V30 5 1 5 6
M  V30 6 1 6 7
M  V30 7 2 7 8
M  V30 8 1 8 9
M  V30 9 2 9 10
M  V30 10 1 10 11
M  V30 11 2 11 12
M  V30 12 1 12 13
M  V30 13 1 13 14
M  V30 14 2 14 15
M  V30 15 1 15 16
M  V30 16 2 16 17
M  V30 17 1 17 18
M  V30 18 1 18 19
M  V30 19 1 19 20
M  V30 20 1 20 21
M  V30 21 1 21 22
M  V30 22 1 22 23
M  V30 23 1 23 24
M  V30 24 1 24 25
M  V30 25 2 18 26
M  V30 26 1 10 27
M  V30 27 2 27 28
M  V30 28 2 6 29
M  V30 29 1 29 2
M  V30 30 1 28 7
M  V30 31 1 13 9
M  V30 32 1 26 14
M  V30 33 1 25 19
M  V30 34 1 1 30
M  V30 35 1 1 31
M  V30 36 1 1 32
M  V30 37 1 3 33
M  V30 38 1 5 34
M  V30 39 1 8 35
M  V30 40 1 11 36
M  V30 41 1 15 37
M  V30 42 1 16 38
M  V30 43 1 17 39
M  V30 44 1 20 40
M  V30 45 1 20 41
M  V30 46 1 21 42
M  V30 47 1 21 43
M  V30 48 1 22 44
M  V30 49 1 22 45
M  V30 50 1 23 46
M  V30 51 1 24 47
M  V30 52 1 24 48
M  V30 53 1 25 49
M  V30 54 1 25 50
M  V30 END BOND
M  V30 END CTAB
M  END
>  <Dataset>  (565) 
ChEMBL_Kinases

>  <Ligand_Instance>  (565) 
nan

>  <PDB_ID>  (565) 
nan

>  <Standardized_SMILES>  (565) 
Cc1cncc(-c2cc3c(cnn3-c3cccc(N4CCCNCC4)n3)nn2)n1

>  <Name>  (565) 
nan

>  <Pocket>  (565) 
nan

>  <ATP_Site>  (565) 
nan

>  <Peripheral>  (565) 
nan

>  <Num_H_Atoms_ProtBoundConf>  (565) 
nan

>  <Num_Resolved_Atoms>  (565) 
nan

>  <Num_Not_Resolved_Atoms>  (565) 
nan

$$$$
CHEMBL4091876
     RDKit          3D

  0  0  0  0  0  0  0  0  0  0999 V3000
M  V30 BEGIN CTAB
M  V30 COUNTS 53 56 0 0 0
M  V30 BEGIN ATOM
M  V30 1 C -0.514697 -4.242265 1.967402 0
M  V30 2 C 0.280875 -3.286405 2.818403 0
M  V30 3 C -0.583920 -2.549241 3.821118 0
M  V30 4 N 1.067414 -2.347412 2.043819 0
M  V30 5 C 2.374399 -2.073622 2.330712 0
M  V30 6 N 2.819417 -1.171056 1.439006 0
M  V30 7 C 1.773532 -0.916704 0.630855 0
M  V30 8 C 1.743235 -0.051078 -0.440478 0
M  V30 9 N 2.801440 0.760375 -0.934182 0
M  V30 10 C 3.133364 2.079910 -0.522912 0
M  V30 11 C 2.420007 2.690405 0.485535 0
M  V30 12 C 2.806471 3.982807 0.829491 0
M  V30 13 N 2.148651 4.725969 1.859645 0
M  V30 14 C 3.856908 4.608340 0.180633 0
M  V30 15 C 4.550692 3.955359 -0.832746 0
M  V30 16 Cl 5.872029 4.744331 -1.648941 0
M  V30 17 C 4.182905 2.676349 -1.186843 0
M  V30 18 N 0.573930 0.030146 -1.094976 0
M  V30 19 C -0.535758 -0.687027 -0.746255 0
M  V30 20 N -1.745874 -0.538127 -1.502880 0
M  V30 21 C -2.937786 -1.274935 -1.176029 0 CFG=2
M  V30 22 C -3.478392 -1.036352 0.192800 0
M  V30 23 C -3.836344 -2.268356 0.947084 0
M  V30 24 C -4.408774 -3.386949 0.152479 0
M  V30 25 N -3.961453 -3.503493 -1.195673 0
M  V30 26 C -2.770858 -2.747103 -1.488392 0
M  V30 27 N -0.512249 -1.535859 0.301463 0
M  V30 28 C 0.643405 -1.642167 0.980065 0
M  V30 29 H -1.548960 -4.395492 2.382232 0
M  V30 30 H -0.073569 -5.273230 1.951518 0
M  V30 31 H -0.603099 -3.931428 0.924237 0
M  V30 32 H 0.951103 -3.938727 3.447165 0
M  V30 33 H -0.045887 -1.575762 4.017520 0
M  V30 34 H -1.560223 -2.260230 3.415971 0
M  V30 35 H -0.649027 -3.089283 4.794837 0
M  V30 36 H 2.940625 -2.504379 3.126601 0
M  V30 37 H 3.297470 0.227009 -1.651213 0
M  V30 38 H 1.602355 2.219654 0.999442 0
M  V30 39 H 2.269948 4.675995 2.901614 0
M  V30 40 H 1.423270 5.451210 1.657904 0
M  V30 41 H 4.147979 5.627210 0.464513 0
M  V30 42 H 4.747030 2.207269 -1.976802 0
M  V30 43 H -1.720550 0.145012 -2.319892 0
M  V30 44 H -3.735487 -0.927309 -1.898514 0
M  V30 45 H -2.756867 -0.463053 0.816438 0
M  V30 46 H -4.383383 -0.369633 0.170216 0
M  V30 47 H -2.999382 -2.681676 1.547862 0
M  V30 48 H -4.601744 -1.978834 1.724696 0
M  V30 49 H -5.530784 -3.355185 0.137804 0
M  V30 50 H -4.185272 -4.381961 0.640290 0
M  V30 51 H -4.704267 -3.396392 -1.913554 0
M  V30 52 H -1.903197 -3.158732 -0.935892 0
M  V30 53 H -2.554583 -2.881876 -2.567593 0
M  V30 END ATOM
M  V30 BEGIN BOND
M  V30 1 1 1 2
M  V30 2 1 2 3
M  V30 3 1 2 4
M  V30 4 1 4 5
M  V30 5 2 5 6
M  V30 6 1 6 7
M  V30 7 2 7 8
M  V30 8 1 8 9
M  V30 9 1 9 10
M  V30 10 2 10 11
M  V30 11 1 11 12
M  V30 12 1 12 13
M  V30 13 2 12 14
M  V30 14 1 14 15
M  V30 15 1 15 16
M  V30 16 2 15 17
M  V30 17 1 8 18
M  V30 18 2 18 19
M  V30 19 1 19 20
M  V30 20 1 20 21
M  V30 21 1 21 22
M  V30 22 1 22 23
M  V30 23 1 23 24
M  V30 24 1 24 25
M  V30 25 1 25 26
M  V30 26 1 19 27
M  V30 27 2 27 28
M  V30 28 1 28 4
M  V30 29 1 28 7
M  V30 30 1 17 10
M  V30 31 1 26 21
M  V30 32 1 1 29
M  V30 33 1 1 30
M  V30 34 1 1 31
M  V30 35 1 2 32
M  V30 36 1 3 33
M  V30 37 1 3 34
M  V30 38 1 3 35
M  V30 39 1 5 36
M  V30 40 1 9 37
M  V30 41 1 11 38
M  V30 42 1 13 39
M  V30 43 1 13 40
M  V30 44 1 14 41
M  V30 45 1 17 42
M  V30 46 1 20 43
M  V30 47 1 21 44 CFG=3
M  V30 48 1 22 45
M  V30 49 1 22 46
M  V30 50 1 23 47
M  V30 51 1 23 48
M  V30 52 1 24 49
M  V30 53 1 24 50
M  V30 54 1 25 51
M  V30 55 1 26 52
M  V30 56 1 26 53
M  V30 END BOND
M  V30 END CTAB
M  END
>  <Dataset>  (566) 
ChEMBL_Kinases

>  <Ligand_Instance>  (566) 
nan

>  <PDB_ID>  (566) 
nan

>  <Standardized_SMILES>  (566) 
CC(C)n1cnc2c(Nc3cc(N)cc(Cl)c3)nc(N[C@@H]3CCCNC3)nc21

>  <Name>  (566) 
nan

>  <Pocket>  (566) 
nan

>  <ATP_Site>  (566) 
nan

>  <Peripheral>  (566) 
nan

>  <Num_H_Atoms_ProtBoundConf>  (566) 
nan

>  <Num_Resolved_Atoms>  (566) 
nan

>  <Num_Not_Resolved_Atoms>  (566) 
nan

$$$$
CHEMBL3415608
     RDKit          3D

  0  0  0  0  0  0  0  0  0  0999 V3000
M  V30 BEGIN CTAB
M  V30 COUNTS 48 51 0 0 0
M  V30 BEGIN ATOM
M  V30 1 N 0.443787 -5.947541 2.006189 0
M  V30 2 C -0.318567 -4.736631 1.793504 0
M  V30 3 O -1.227931 -5.440011 2.258796 0
M  V30 4 C 0.370536 -3.591173 1.235440 0
M  V30 5 N 1.688429 -3.765534 1.037649 0
M  V30 6 C 2.490793 -2.809022 0.572921 0
M  V30 7 C 1.867067 -1.623916 0.309549 0
M  V30 8 N 2.644111 -0.554057 -0.206564 0
M  V30 9 C 2.187030 0.767546 -0.493227 0 CFG=2
M  V30 10 C 3.204649 1.605558 -1.258377 0
M  V30 11 C 2.515304 2.952369 -1.481188 0
M  V30 12 C 2.219996 3.652001 -0.182481 0
M  V30 13 C 1.334336 2.772283 0.679995 0
M  V30 14 C 2.061646 1.475732 0.867622 0 CFG=2
M  V30 15 N 3.454242 1.718336 1.284623 0
M  V30 16 C 0.529449 -1.440859 0.506912 0
M  V30 17 C -0.315404 -2.432029 0.989854 0
M  V30 18 C -1.721200 -2.217293 1.115262 0
M  V30 19 N -2.177169 -0.940214 1.101560 0
M  V30 20 C -3.493105 -0.849757 1.266206 0
M  V30 21 C -4.340954 0.248034 1.313851 0
M  V30 22 C -5.694247 -0.024248 1.504028 0
M  V30 23 C -6.170316 -1.333720 1.639236 0
M  V30 24 C -5.279912 -2.392271 1.583912 0
M  V30 25 C -3.940132 -2.141753 1.396706 0
M  V30 26 N -2.835054 -2.878711 1.295407 0
M  V30 27 H 0.610420 -6.775660 1.353145 0
M  V30 28 H 1.005126 -6.238126 2.866048 0
M  V30 29 H 3.539370 -2.996104 0.430714 0
M  V30 30 H 3.676283 -0.704471 -0.416494 0
M  V30 31 H 1.204117 0.845489 -0.972781 0
M  V30 32 H 4.091025 1.790155 -0.639415 0
M  V30 33 H 3.416119 1.176342 -2.251617 0
M  V30 34 H 1.515772 2.691347 -1.937681 0
M  V30 35 H 3.099332 3.590418 -2.163466 0
M  V30 36 H 1.670314 4.587108 -0.452239 0
M  V30 37 H 3.125297 3.892910 0.384921 0
M  V30 38 H 0.366426 2.563796 0.205897 0
M  V30 39 H 1.223896 3.245741 1.684573 0
M  V30 40 H 1.564705 0.807794 1.564373 0
M  V30 41 H 3.398923 2.568557 1.915356 0
M  V30 42 H 3.693858 0.942923 1.968971 0
M  V30 43 H 0.110418 -0.455395 0.254085 0
M  V30 44 H -3.937210 1.234075 1.206264 0
M  V30 45 H -6.392919 0.820424 1.546881 0
M  V30 46 H -7.228927 -1.522743 1.786611 0
M  V30 47 H -5.598557 -3.420297 1.682807 0
M  V30 48 H -2.907149 -3.884612 1.340387 0
M  V30 END ATOM
M  V30 BEGIN BOND
M  V30 1 1 1 2
M  V30 2 2 2 3
M  V30 3 1 2 4
M  V30 4 2 4 5
M  V30 5 1 5 6
M  V30 6 2 6 7
M  V30 7 1 7 8
M  V30 8 1 8 9
M  V30 9 1 9 10
M  V30 10 1 10 11
M  V30 11 1 11 12
M  V30 12 1 12 13
M  V30 13 1 13 14
M  V30 14 1 14 15
M  V30 15 1 7 16
M  V30 16 2 16 17
M  V30 17 1 17 18
M  V30 18 2 18 19
M  V30 19 1 19 20
M  V30 20 2 20 21
M  V30 21 1 21 22
M  V30 22 2 22 23
M  V30 23 1 23 24
M  V30 24 2 24 25
M  V30 25 1 25 26
M  V30 26 1 17 4
M  V30 27 1 26 18
M  V30 28 1 14 9
M  V30 29 1 25 20
M  V30 30 1 1 27
M  V30 31 1 1 28
M  V30 32 1 6 29
M  V30 33 1 8 30
M  V30 34 1 9 31 CFG=3
M  V30 35 1 10 32
M  V30 36 1 10 33
M  V30 37 1 11 34
M  V30 38 1 11 35
M  V30 39 1 12 36
M  V30 40 1 12 37
M  V30 41 1 13 38
M  V30 42 1 13 39
M  V30 43 1 14 40 CFG=1
M  V30 44 1 15 41
M  V30 45 1 15 42
M  V30 46 1 16 43
M  V30 47 1 21 44
M  V30 48 1 22 45
M  V30 49 1 23 46
M  V30 50 1 24 47
M  V30 51 1 26 48
M  V30 END BOND
M  V30 END CTAB
M  END
>  <Dataset>  (567) 
ChEMBL_Kinases

>  <Ligand_Instance>  (567) 
nan

>  <PDB_ID>  (567) 
nan

>  <Standardized_SMILES>  (567) 
NC(=O)c1ncc(N[C@@H]2CCCC[C@@H]2N)cc1-c1nc2ccccc2[nH]1

>  <Name>  (567) 
nan

>  <Pocket>  (567) 
nan

>  <ATP_Site>  (567) 
nan

>  <Peripheral>  (567) 
nan

>  <Num_H_Atoms_ProtBoundConf>  (567) 
nan

>  <Num_Resolved_Atoms>  (567) 
nan

>  <Num_Not_Resolved_Atoms>  (567) 
nan

$$$$
CHEMBL4092848
     RDKit          3D

  0  0  0  0  0  0  0  0  0  0999 V3000
M  V30 BEGIN CTAB
M  V30 COUNTS 130 132 0 0 0
M  V30 BEGIN ATOM
M  V30 1 C 6.991754 -0.006398 0.642429 0
M  V30 2 C 5.943707 0.232965 -0.399194 0
M  V30 3 O 6.205448 1.047990 -1.347753 0
M  V30 4 N 4.679341 -0.452418 -0.308739 0
M  V30 5 C 4.312062 -1.387899 0.737125 0
M  V30 6 C 3.115858 -2.093303 0.150588 0
M  V30 7 C 3.024904 -1.679756 -1.315043 0
M  V30 8 C 3.610610 -0.273596 -1.282856 0 CFG=1
M  V30 9 C 2.671185 0.687431 -0.696795 0
M  V30 10 O 2.934133 1.186928 0.422690 0
M  V30 11 N 1.479429 1.083886 -1.325476 0
M  V30 12 C 0.312286 1.887929 -1.247659 0 CFG=1
M  V30 13 C 0.227363 3.066551 -2.130445 0
M  V30 14 C 0.309250 2.872827 -3.596305 0
M  V30 15 C 0.172102 4.286404 -4.206401 0
M  V30 16 C 1.640375 2.360670 -4.071444 0
M  V30 17 C -0.895260 1.050657 -1.119913 0
M  V30 18 O -0.278632 -0.068622 -1.005463 0
M  V30 19 N -2.273945 1.338735 -1.115891 0
M  V30 20 C -3.304204 0.338615 -0.949379 0 CFG=1
M  V30 21 C -4.432065 0.777192 -0.055202 0
M  V30 22 C -5.472044 -0.260278 0.142876 0
M  V30 23 C -6.551037 -0.511170 -0.671330 0
M  V30 24 N -7.198626 -1.580956 -0.146125 0
M  V30 25 C -6.500024 -1.939448 0.960201 0
M  V30 26 N -5.418432 -1.129411 1.165652 0
M  V30 27 C -4.639287 -1.318694 2.344264 0
M  V30 28 C -3.359514 -2.074191 2.233174 0
M  V30 29 C -2.814795 -2.136778 3.668842 0
M  V30 30 C -1.477892 -2.780619 3.768110 0
M  V30 31 C -0.432073 -2.001033 2.982171 0
M  V30 32 C -0.338664 -0.580027 3.488186 0
M  V30 33 C 0.724389 0.153291 2.694574 0
M  V30 34 C 0.813888 1.597138 3.156413 0
M  V30 35 C 1.165453 1.689422 4.592675 0
M  V30 36 C 2.488414 1.756871 5.029255 0
M  V30 37 C 2.864159 1.857113 6.358447 0
M  V30 38 C 1.843752 1.889296 7.275636 0
M  V30 39 C 2.279412 2.007212 8.701346 0
M  V30 40 C 2.459818 0.583836 9.197585 0
M  V30 41 O 2.866030 0.659414 10.523431 0
M  V30 42 C 0.508815 1.828097 6.947264 0
M  V30 43 C 0.221530 1.729991 5.609272 0
M  V30 44 C -3.918569 -0.040545 -2.289223 0
M  V30 45 O -4.811251 -0.691239 -2.953133 0
M  V30 46 N -3.279226 0.544310 -3.429084 0
M  V30 47 C -3.591205 0.428602 -4.837368 0 CFG=1
M  V30 48 C -3.177669 1.546821 -5.694063 0
M  V30 49 O -3.544989 1.306477 -7.039076 0
M  V30 50 C -2.948180 -0.846453 -5.347079 0
M  V30 51 O -3.079919 -0.903249 -6.621296 0
M  V30 52 N -2.282794 -1.896419 -4.665898 0
M  V30 53 C -1.770367 -3.004303 -5.428718 0 CFG=2
M  V30 54 C -2.714670 -4.186318 -5.320257 0
M  V30 55 N -2.422347 -5.408240 -5.983309 0
M  V30 56 O -3.807150 -4.324164 -4.707504 0
M  V30 57 C -0.376049 -3.423596 -5.057807 0 CFG=1
M  V30 58 C 0.659121 -2.420755 -5.431045 0
M  V30 59 O -0.319163 -3.806608 -3.723935 0
M  V30 60 P -0.087356 -5.424209 -3.442247 0
M  V30 61 O 0.339689 -6.215187 -4.658999 0
M  V30 62 O -1.614126 -6.070744 -3.003165 0
M  V30 63 O 0.940295 -5.752677 -2.134240 0
M  V30 64 H 6.710749 0.568994 1.544148 0
M  V30 65 H 7.045205 -1.068898 0.954007 0
M  V30 66 H 7.956756 0.394751 0.281066 0
M  V30 67 H 4.084092 -0.874060 1.691167 0
M  V30 68 H 5.146380 -2.097802 0.958411 0
M  V30 69 H 3.201599 -3.197478 0.227485 0
M  V30 70 H 2.210300 -1.744985 0.707041 0
M  V30 71 H 3.589209 -2.339880 -1.977297 0
M  V30 72 H 1.968909 -1.676471 -1.655787 0
M  V30 73 H 4.003784 0.023625 -2.271916 0
M  V30 74 H 1.309529 0.627204 -2.248978 0
M  V30 75 H 0.390559 2.364074 -0.182527 0
M  V30 76 H -0.774169 3.548017 -1.926810 0
M  V30 77 H 0.963901 3.823009 -1.784234 0
M  V30 78 H -0.477829 2.292120 -4.056111 0
M  V30 79 H -0.527667 4.892820 -3.594524 0
M  V30 80 H 1.148915 4.822358 -4.184001 0
M  V30 81 H -0.220858 4.248771 -5.238384 0
M  V30 82 H 1.497584 1.346522 -4.498875 0
M  V30 83 H 2.450106 2.426346 -3.316582 0
M  V30 84 H 1.988836 2.978229 -4.921779 0
M  V30 85 H -2.313082 2.365528 -1.250446 0
M  V30 86 H -2.853001 -0.587912 -0.509603 0
M  V30 87 H -4.055549 1.128788 0.929661 0
M  V30 88 H -4.895556 1.680910 -0.552847 0
M  V30 89 H -6.934616 -0.034187 -1.554955 0
M  V30 90 H -6.860074 -2.796633 1.543700 0
M  V30 91 H -4.376973 -0.319099 2.823944 0
M  V30 92 H -5.227522 -1.832020 3.164862 0
M  V30 93 H -2.611137 -1.635605 1.570989 0
M  V30 94 H -3.500766 -3.131729 1.904109 0
M  V30 95 H -3.521952 -2.760818 4.295208 0
M  V30 96 H -2.760036 -1.106434 4.060740 0
M  V30 97 H -1.517765 -3.782740 3.251629 0
M  V30 98 H -1.144720 -2.969607 4.784044 0
M  V30 99 H -0.662142 -2.043386 1.907848 0
M  V30 100 H 0.524270 -2.546125 3.107250 0
M  V30 101 H -0.138620 -0.585005 4.558337 0
M  V30 102 H -1.276660 -0.016350 3.319867 0
M  V30 103 H 0.501383 0.144457 1.618599 0
M  V30 104 H 1.718645 -0.370346 2.805742 0
M  V30 105 H -0.225557 2.002357 3.007967 0
M  V30 106 H 1.543851 2.117743 2.525052 0
M  V30 107 H 3.282959 1.729600 4.285893 0
M  V30 108 H 3.918135 1.903241 6.603054 0
M  V30 109 H 1.525525 2.557297 9.297633 0
M  V30 110 H 3.239517 2.576105 8.773855 0
M  V30 111 H 3.205144 0.073173 8.573204 0
M  V30 112 H 1.467765 0.085970 9.180675 0
M  V30 113 H 3.691982 0.104895 10.621459 0
M  V30 114 H -0.267118 1.856788 7.705824 0
M  V30 115 H -0.820549 1.677828 5.286873 0
M  V30 116 H -2.425411 1.186018 -3.320140 0
M  V30 117 H -4.689191 0.209023 -4.977254 0
M  V30 118 H -3.632982 2.523530 -5.458006 0
M  V30 119 H -2.076969 1.688592 -5.726781 0
M  V30 120 H -4.519930 1.142037 -7.114151 0
M  V30 121 H -2.260329 -1.699618 -3.643824 0
M  V30 122 H -1.819773 -2.728667 -6.498536 0
M  V30 123 H -1.759705 -5.492772 -6.782170 0
M  V30 124 H -1.951241 -6.029217 -6.697546 0
M  V30 125 H -0.179125 -4.360591 -5.647423 0
M  V30 126 H 1.671848 -2.872421 -5.385164 0
M  V30 127 H 0.580830 -1.475870 -4.838593 0
M  V30 128 H 0.482649 -2.138957 -6.490345 0
M  V30 129 H -1.911518 -5.781782 -2.126798 0
M  V30 130 H 0.403389 -5.621565 -1.313075 0
M  V30 END ATOM
M  V30 BEGIN BOND
M  V30 1 1 1 2
M  V30 2 2 2 3
M  V30 3 1 2 4
M  V30 4 1 4 5
M  V30 5 1 5 6
M  V30 6 1 6 7
M  V30 7 1 7 8
M  V30 8 1 8 9
M  V30 9 2 9 10
M  V30 10 1 9 11
M  V30 11 1 11 12
M  V30 12 1 12 13
M  V30 13 1 13 14
M  V30 14 1 14 15
M  V30 15 1 14 16
M  V30 16 1 12 17
M  V30 17 2 17 18
M  V30 18 1 17 19
M  V30 19 1 19 20
M  V30 20 1 20 21
M  V30 21 1 21 22
M  V30 22 2 22 23
M  V30 23 1 23 24
M  V30 24 2 24 25
M  V30 25 1 25 26
M  V30 26 1 26 27
M  V30 27 1 27 28
M  V30 28 1 28 29
M  V30 29 1 29 30
M  V30 30 1 30 31
M  V30 31 1 31 32
M  V30 32 1 32 33
M  V30 33 1 33 34
M  V30 34 1 34 35
M  V30 35 2 35 36
M  V30 36 1 36 37
M  V30 37 2 37 38
M  V30 38 1 38 39
M  V30 39 1 39 40
M  V30 40 1 40 41
M  V30 41 1 38 42
M  V30 42 2 42 43
M  V30 43 1 20 44
M  V30 44 2 44 45
M  V30 45 1 44 46
M  V30 46 1 46 47
M  V30 47 1 47 48
M  V30 48 1 48 49
M  V30 49 1 47 50
M  V30 50 2 50 51
M  V30 51 1 50 52
M  V30 52 1 52 53
M  V30 53 1 53 54
M  V30 54 1 54 55
M  V30 55 2 54 56
M  V30 56 1 53 57
M  V30 57 1 57 58
M  V30 58 1 57 59
M  V30 59 1 59 60
M  V30 60 2 60 61
M  V30 61 1 60 62
M  V30 62 1 60 63
M  V30 63 1 8 4
M  V30 64 1 26 22
M  V30 65 1 43 35
M  V30 66 1 1 64
M  V30 67 1 1 65
M  V30 68 1 1 66
M  V30 69 1 5 67
M  V30 70 1 5 68
M  V30 71 1 6 69
M  V30 72 1 6 70
M  V30 73 1 7 71
M  V30 74 1 7 72
M  V30 75 1 8 73 CFG=3
M  V30 76 1 11 74
M  V30 77 1 12 75 CFG=1
M  V30 78 1 13 76
M  V30 79 1 13 77
M  V30 80 1 14 78
M  V30 81 1 15 79
M  V30 82 1 15 80
M  V30 83 1 15 81
M  V30 84 1 16 82
M  V30 85 1 16 83
M  V30 86 1 16 84
M  V30 87 1 19 85
M  V30 88 1 20 86 CFG=1
M  V30 89 1 21 87
M  V30 90 1 21 88
M  V30 91 1 23 89
M  V30 92 1 25 90
M  V30 93 1 27 91
M  V30 94 1 27 92
M  V30 95 1 28 93
M  V30 96 1 28 94
M  V30 97 1 29 95
M  V30 98 1 29 96
M  V30 99 1 30 97
M  V30 100 1 30 98
M  V30 101 1 31 99
M  V30 102 1 31 100
M  V30 103 1 32 101
M  V30 104 1 32 102
M  V30 105 1 33 103
M  V30 106 1 33 104
M  V30 107 1 34 105
M  V30 108 1 34 106
M  V30 109 1 36 107
M  V30 110 1 37 108
M  V30 111 1 39 109
M  V30 112 1 39 110
M  V30 113 1 40 111
M  V30 114 1 40 112
M  V30 115 1 41 113
M  V30 116 1 42 114
M  V30 117 1 43 115
M  V30 118 1 46 116
M  V30 119 1 47 117 CFG=1
M  V30 120 1 48 118
M  V30 121 1 48 119
M  V30 122 1 49 120
M  V30 123 1 52 121
M  V30 124 1 53 122 CFG=3
M  V30 125 1 55 123
M  V30 126 1 55 124
M  V30 127 1 57 125 CFG=3
M  V30 128 1 58 126
M  V30 129 1 58 127
M  V30 130 1 58 128
M  V30 131 1 62 129
M  V30 132 1 63 130
M  V30 END BOND
M  V30 END CTAB
M  END
>  <Dataset>  (568) 
ChEMBL_Kinases

>  <Ligand_Instance>  (568) 
nan

>  <PDB_ID>  (568) 
nan

>  <Standardized_SMILES>  (568) 
CC(=O)N1CCC[C@H]1C(=O)N[C@@H](CC(C)C)C(=O)N[C@@H](Cc1cncn1CCCCCCCCc1ccc(CCO)cc1)C(=O)N[C@@H](CO)C(=O)N[C@H](C(N)=O)[C@@H](C)OP(=O)(O)O

>  <Name>  (568) 
nan

>  <Pocket>  (568) 
nan

>  <ATP_Site>  (568) 
nan

>  <Peripheral>  (568) 
nan

>  <Num_H_Atoms_ProtBoundConf>  (568) 
nan

>  <Num_Resolved_Atoms>  (568) 
nan

>  <Num_Not_Resolved_Atoms>  (568) 
nan

$$$$
CHEMBL482767
     RDKit          3D

  0  0  0  0  0  0  0  0  0  0999 V3000
M  V30 BEGIN CTAB
M  V30 COUNTS 43 46 0 0 0
M  V30 BEGIN ATOM
M  V30 1 O 0.080809 1.161600 -0.934561 0
M  V30 2 C -0.535413 2.094763 -0.362595 0
M  V30 3 N -1.684462 2.624761 -0.989580 0
M  V30 4 C -2.291422 2.265760 -2.214228 0
M  V30 5 C -1.885761 1.291029 -3.091920 0
M  V30 6 C -2.515067 0.980029 -4.276169 0
M  V30 7 C -3.639806 1.681006 -4.637687 0
M  V30 8 C -4.075450 2.667553 -3.779209 0
M  V30 9 Cl -5.503351 3.590769 -4.191516 0
M  V30 10 C -3.417083 2.942153 -2.611155 0
M  V30 11 N -0.026819 2.543527 0.871394 0
M  V30 12 C 1.197005 1.879987 1.400219 0
M  V30 13 N 2.317666 2.230894 1.176583 0
M  V30 14 C 3.416915 1.673121 1.622959 0
M  V30 15 C 3.244980 0.570916 2.431035 0
M  V30 16 C 4.298907 -0.302049 3.107723 0
M  V30 17 C 3.592468 -1.392567 3.890115 0
M  V30 18 N 2.793917 -2.195266 2.999554 0
M  V30 19 C 2.100537 -3.234099 3.637819 0
M  V30 20 N 2.108924 -3.538062 4.937037 0
M  V30 21 C 1.362381 -4.584931 5.328897 0
M  V30 22 N 0.618063 -5.343448 4.541838 0
M  V30 23 C 0.531549 -5.134057 3.221691 0
M  V30 24 C -0.195434 -5.845336 2.330933 0
M  V30 25 C -0.157850 -5.456768 0.924463 0
M  V30 26 S 1.022281 -3.967213 0.987710 0
M  V30 27 C 1.325605 -4.019972 2.802575 0
M  V30 28 S 1.389229 0.422592 2.481957 0
M  V30 29 H -2.105690 3.390528 -0.420160 0
M  V30 30 H -1.014977 0.710931 -2.863823 0
M  V30 31 H -2.144054 0.202006 -4.920547 0
M  V30 32 H -4.191720 1.499121 -5.549328 0
M  V30 33 H -3.820435 3.743219 -1.973285 0
M  V30 34 H -0.500293 3.308111 1.377568 0
M  V30 35 H 4.442463 1.991854 1.420132 0
M  V30 36 H 4.794497 0.357875 3.817233 0
M  V30 37 H 4.954268 -0.747924 2.332227 0
M  V30 38 H 3.039993 -0.979860 4.734202 0
M  V30 39 H 4.399709 -2.038611 4.289485 0
M  V30 40 H 2.767653 -1.983522 1.986780 0
M  V30 41 H 1.343645 -4.866752 6.394165 0
M  V30 42 H -0.819158 -6.691598 2.541089 0
M  V30 43 H -0.644254 -5.881451 0.117171 0
M  V30 END ATOM
M  V30 BEGIN BOND
M  V30 1 2 1 2
M  V30 2 1 2 3
M  V30 3 1 3 4
M  V30 4 2 4 5
M  V30 5 1 5 6
M  V30 6 2 6 7
M  V30 7 1 7 8
M  V30 8 1 8 9
M  V30 9 2 8 10
M  V30 10 1 2 11
M  V30 11 1 11 12
M  V30 12 2 12 13
M  V30 13 1 13 14
M  V30 14 2 14 15
M  V30 15 1 15 16
M  V30 16 1 16 17
M  V30 17 1 17 18
M  V30 18 1 18 19
M  V30 19 2 19 20
M  V30 20 1 20 21
M  V30 21 2 21 22
M  V30 22 1 22 23
M  V30 23 1 23 24
M  V30 24 2 24 25
M  V30 25 1 25 26
M  V30 26 1 26 27
M  V30 27 1 15 28
M  V30 28 1 10 4
M  V30 29 1 28 12
M  V30 30 1 27 19
M  V30 31 2 27 23
M  V30 32 1 3 29
M  V30 33 1 5 30
M  V30 34 1 6 31
M  V30 35 1 7 32
M  V30 36 1 10 33
M  V30 37 1 11 34
M  V30 38 1 14 35
M  V30 39 1 16 36
M  V30 40 1 16 37
M  V30 41 1 17 38
M  V30 42 1 17 39
M  V30 43 1 18 40
M  V30 44 1 21 41
M  V30 45 1 24 42
M  V30 46 1 25 43
M  V30 END BOND
M  V30 END CTAB
M  END
>  <Dataset>  (569) 
ChEMBL_Kinases

>  <Ligand_Instance>  (569) 
nan

>  <PDB_ID>  (569) 
nan

>  <Standardized_SMILES>  (569) 
O=C(Nc1cccc(Cl)c1)Nc1ncc(CCNc2ncnc3ccsc23)s1

>  <Name>  (569) 
SNS-314

>  <Pocket>  (569) 
nan

>  <ATP_Site>  (569) 
nan

>  <Peripheral>  (569) 
nan

>  <Num_H_Atoms_ProtBoundConf>  (569) 
nan

>  <Num_Resolved_Atoms>  (569) 
nan

>  <Num_Not_Resolved_Atoms>  (569) 
nan

$$$$
CHEMBL4797723
     RDKit          3D

  0  0  0  0  0  0  0  0  0  0999 V3000
M  V30 BEGIN CTAB
M  V30 COUNTS 56 61 0 0 0
M  V30 BEGIN ATOM
M  V30 1 C 0.957570 -2.606430 3.329326 0
M  V30 2 N 1.214180 -3.550802 2.278703 0
M  V30 3 C 2.493633 -4.116815 2.219322 0
M  V30 4 C 3.397507 -3.710901 1.100139 0
M  V30 5 N 2.742628 -2.582709 0.410912 0
M  V30 6 C 3.409350 -1.355500 0.334165 0
M  V30 7 C 4.786504 -1.346345 0.391503 0
M  V30 8 N 5.497309 -0.210666 0.283843 0
M  V30 9 C 4.903716 1.005204 0.111151 0
M  V30 10 C 3.525011 1.067694 0.045518 0
M  V30 11 N 2.614282 2.041919 -0.103091 0
M  V30 12 C 1.345805 1.584981 -0.094690 0
M  V30 13 C 0.234338 2.494083 -0.243807 0
M  V30 14 N 0.349624 3.822913 -0.397604 0
M  V30 15 N -0.821794 4.401148 -0.512412 0
M  V30 16 C -1.811566 3.493161 -0.442954 0
M  V30 17 C -3.182958 3.560891 -0.505547 0
M  V30 18 C -3.910150 2.405216 -0.397128 0
M  V30 19 C -3.256981 1.194750 -0.227197 0
M  V30 20 C -4.086507 0.001458 -0.119155 0
M  V30 21 C -5.355691 0.015886 0.449189 0
M  V30 22 N -6.081150 -1.112842 0.526210 0
M  V30 23 C -5.655889 -2.295317 0.079084 0
M  V30 24 C -4.386743 -2.317256 -0.490888 0
M  V30 25 N -3.924984 -3.583977 -0.972291 0
M  V30 26 C -3.585869 -1.197779 -0.603546 0
M  V30 27 C -1.899671 1.188701 -0.172520 0
M  V30 28 C -1.123317 2.309574 -0.274924 0
M  V30 29 C 1.524429 0.240428 0.071360 0
M  V30 30 C 2.831805 -0.116884 0.160009 0
M  V30 31 C 1.454453 -3.032564 -0.106282 0
M  V30 32 C 0.539713 -3.305156 1.047920 0
M  V30 33 H 0.036837 -2.027196 3.060969 0
M  V30 34 H 1.795211 -1.861443 3.327575 0
M  V30 35 H 0.924033 -3.027997 4.342437 0
M  V30 36 H 2.476718 -5.246111 2.275496 0
M  V30 37 H 3.022804 -3.841826 3.182593 0
M  V30 38 H 3.431668 -4.562185 0.356506 0
M  V30 39 H 4.400017 -3.487493 1.451873 0
M  V30 40 H 5.483880 -2.154475 0.512136 0
M  V30 41 H 5.461983 1.930534 0.022116 0
M  V30 42 H 2.981805 3.020171 -0.205963 0
M  V30 43 H -0.918092 5.437236 -0.639529 0
M  V30 44 H -3.596400 4.542641 -0.638802 0
M  V30 45 H -5.001087 2.510084 -0.453070 0
M  V30 46 H -5.721748 0.967931 0.819654 0
M  V30 47 H -6.302682 -3.135103 0.184096 0
M  V30 48 H -4.087080 -3.461509 -2.013767 0
M  V30 49 H -3.581223 -4.229429 -0.214385 0
M  V30 50 H -2.615246 -1.275810 -1.052723 0
M  V30 51 H -1.437770 0.230674 -0.040376 0
M  V30 52 H 0.696554 -0.438147 0.132181 0
M  V30 53 H 1.652971 -4.049464 -0.572942 0
M  V30 54 H 1.054718 -2.445881 -0.924242 0
M  V30 55 H -0.118016 -2.423115 1.178712 0
M  V30 56 H -0.154940 -4.164014 0.857983 0
M  V30 END ATOM
M  V30 BEGIN BOND
M  V30 1 1 1 2
M  V30 2 1 2 3
M  V30 3 1 3 4
M  V30 4 1 4 5
M  V30 5 1 5 6
M  V30 6 2 6 7
M  V30 7 1 7 8
M  V30 8 2 8 9
M  V30 9 1 9 10
M  V30 10 1 10 11
M  V30 11 1 11 12
M  V30 12 1 12 13
M  V30 13 2 13 14
M  V30 14 1 14 15
M  V30 15 1 15 16
M  V30 16 2 16 17
M  V30 17 1 17 18
M  V30 18 2 18 19
M  V30 19 1 19 20
M  V30 20 2 20 21
M  V30 21 1 21 22
M  V30 22 2 22 23
M  V30 23 1 23 24
M  V30 24 1 24 25
M  V30 25 2 24 26
M  V30 26 1 19 27
M  V30 27 2 27 28
M  V30 28 2 12 29
M  V30 29 1 29 30
M  V30 30 1 5 31
M  V30 31 1 31 32
M  V30 32 1 32 2
M  V30 33 1 30 6
M  V30 34 2 30 10
M  V30 35 1 28 13
M  V30 36 1 28 16
M  V30 37 1 26 20
M  V30 38 1 1 33
M  V30 39 1 1 34
M  V30 40 1 1 35
M  V30 41 1 3 36
M  V30 42 1 3 37
M  V30 43 1 4 38
M  V30 44 1 4 39
M  V30 45 1 7 40
M  V30 46 1 9 41
M  V30 47 1 11 42
M  V30 48 1 15 43
M  V30 49 1 17 44
M  V30 50 1 18 45
M  V30 51 1 21 46
M  V30 52 1 23 47
M  V30 53 1 25 48
M  V30 54 1 25 49
M  V30 55 1 26 50
M  V30 56 1 27 51
M  V30 57 1 29 52
M  V30 58 1 31 53
M  V30 59 1 31 54
M  V30 60 1 32 55
M  V30 61 1 32 56
M  V30 END BOND
M  V30 END CTAB
M  END
>  <Dataset>  (570) 
ChEMBL_Kinases

>  <Ligand_Instance>  (570) 
nan

>  <PDB_ID>  (570) 
nan

>  <Standardized_SMILES>  (570) 
CN1CCN(c2cncc3[nH]c(-c4n[nH]c5ccc(-c6cncc(N)c6)cc45)cc23)CC1

>  <Name>  (570) 
nan

>  <Pocket>  (570) 
nan

>  <ATP_Site>  (570) 
nan

>  <Peripheral>  (570) 
nan

>  <Num_H_Atoms_ProtBoundConf>  (570) 
nan

>  <Num_Resolved_Atoms>  (570) 
nan

>  <Num_Not_Resolved_Atoms>  (570) 
nan

$$$$
CHEMBL4093075
     RDKit          3D

  0  0  0  0  0  0  0  0  0  0999 V3000
M  V30 BEGIN CTAB
M  V30 COUNTS 49 52 0 0 0
M  V30 BEGIN ATOM
M  V30 1 O 3.958510 -1.247842 -0.207117 0
M  V30 2 C 3.177001 -1.279510 0.761216 0
M  V30 3 C 3.725743 -2.089024 1.857885 0
M  V30 4 C 5.067960 -2.645609 1.498877 0
M  V30 5 C 6.233446 -1.959187 1.771883 0
M  V30 6 C 7.497111 -2.439322 1.455863 0
M  V30 7 C 7.550404 -3.682325 0.831322 0
M  V30 8 C 6.411636 -4.403340 0.539408 0
M  V30 9 C 5.165903 -3.890068 0.870916 0
M  V30 10 N 1.978644 -0.577666 0.643198 0
M  V30 11 C 1.336874 0.205664 -0.320530 0
M  V30 12 C 0.301032 0.973978 0.156326 0
M  V30 13 C -0.451887 1.788598 -0.615831 0
M  V30 14 N -1.517409 2.553972 -0.075572 0
M  V30 15 C -2.070942 2.657961 1.234701 0
M  V30 16 C -2.742113 1.372347 1.594668 0
M  V30 17 N -4.030453 1.199223 1.182173 0
M  V30 18 C -4.516272 0.014077 1.580630 0
M  V30 19 C -5.857614 -0.506923 1.319597 0
M  V30 20 C -7.003343 0.262051 1.292567 0
M  V30 21 C -8.198072 -0.400192 1.028113 0
M  V30 22 N -8.239987 -1.728010 0.808308 0
M  V30 23 C -7.125750 -2.481951 0.833613 0
M  V30 24 C -5.890089 -1.882323 1.093361 0
M  V30 25 N -3.504208 -0.559203 2.255750 0
M  V30 26 N -2.454717 0.244387 2.264299 0
M  V30 27 C -0.175862 1.863193 -1.961781 0
M  V30 28 C 0.839871 1.131036 -2.526403 0
M  V30 29 C 1.547132 0.333743 -1.665001 0
M  V30 30 Cl 2.796959 -0.609808 -2.430555 0
M  V30 31 H 3.056937 -2.959599 2.019933 0
M  V30 32 H 3.762165 -1.546337 2.824423 0
M  V30 33 H 6.206963 -1.010430 2.247749 0
M  V30 34 H 8.384675 -1.867269 1.688437 0
M  V30 35 H 8.547001 -4.069673 0.577722 0
M  V30 36 H 6.462875 -5.373424 0.051401 0
M  V30 37 H 4.250500 -4.440649 0.650762 0
M  V30 38 H 1.509219 -0.765580 1.579708 0
M  V30 39 H 0.030227 0.978841 1.196407 0
M  V30 40 H -2.014093 3.175854 -0.757351 0
M  V30 41 H -2.791766 3.473561 1.321043 0
M  V30 42 H -1.237148 2.780435 2.000800 0
M  V30 43 H -6.903919 1.321452 1.476636 0
M  V30 44 H -9.114648 0.209791 1.005628 0
M  V30 45 H -7.116677 -3.559604 0.660883 0
M  V30 46 H -4.993187 -2.508285 1.110630 0
M  V30 47 H -1.524573 0.118812 2.694542 0
M  V30 48 H -0.762451 2.508962 -2.606185 0
M  V30 49 H 1.031296 1.207762 -3.569451 0
M  V30 END ATOM
M  V30 BEGIN BOND
M  V30 1 2 1 2
M  V30 2 1 2 3
M  V30 3 1 3 4
M  V30 4 2 4 5
M  V30 5 1 5 6
M  V30 6 2 6 7
M  V30 7 1 7 8
M  V30 8 2 8 9
M  V30 9 1 2 10
M  V30 10 1 10 11
M  V30 11 2 11 12
M  V30 12 1 12 13
M  V30 13 1 13 14
M  V30 14 1 14 15
M  V30 15 1 15 16
M  V30 16 2 16 17
M  V30 17 1 17 18
M  V30 18 1 18 19
M  V30 19 2 19 20
M  V30 20 1 20 21
M  V30 21 2 21 22
M  V30 22 1 22 23
M  V30 23 2 23 24
M  V30 24 2 18 25
M  V30 25 1 25 26
M  V30 26 2 13 27
M  V30 27 1 27 28
M  V30 28 2 28 29
M  V30 29 1 29 30
M  V30 30 1 9 4
M  V30 31 1 29 11
M  V30 32 1 26 16
M  V30 33 1 24 19
M  V30 34 1 3 31
M  V30 35 1 3 32
M  V30 36 1 5 33
M  V30 37 1 6 34
M  V30 38 1 7 35
M  V30 39 1 8 36
M  V30 40 1 9 37
M  V30 41 1 10 38
M  V30 42 1 12 39
M  V30 43 1 14 40
M  V30 44 1 15 41
M  V30 45 1 15 42
M  V30 46 1 20 43
M  V30 47 1 21 44
M  V30 48 1 23 45
M  V30 49 1 24 46
M  V30 50 1 26 47
M  V30 51 1 27 48
M  V30 52 1 28 49
M  V30 END BOND
M  V30 END CTAB
M  END
>  <Dataset>  (571) 
ChEMBL_Kinases

>  <Ligand_Instance>  (571) 
nan

>  <PDB_ID>  (571) 
nan

>  <Standardized_SMILES>  (571) 
O=C(Cc1ccccc1)Nc1cc(NCc2nc(-c3ccncc3)n[nH]2)ccc1Cl

>  <Name>  (571) 
nan

>  <Pocket>  (571) 
nan

>  <ATP_Site>  (571) 
nan

>  <Peripheral>  (571) 
nan

>  <Num_H_Atoms_ProtBoundConf>  (571) 
nan

>  <Num_Resolved_Atoms>  (571) 
nan

>  <Num_Not_Resolved_Atoms>  (571) 
nan

$$$$
CHEMBL4093592
     RDKit          3D

  0  0  0  0  0  0  0  0  0  0999 V3000
M  V30 BEGIN CTAB
M  V30 COUNTS 34 36 0 0 0
M  V30 BEGIN ATOM
M  V30 1 N 0.348270 -1.159450 4.550773 0
M  V30 2 C 1.626724 -1.321682 3.995403 0
M  V30 3 O 2.371218 -1.849439 4.845212 0
M  V30 4 C 1.998393 -0.930297 2.646460 0
M  V30 5 C 3.275399 -1.135724 2.209031 0
M  V30 6 C 3.632256 -0.763212 0.922727 0
M  V30 7 Cl 5.256052 -1.003564 0.310017 0
M  V30 8 C 2.684332 -0.184540 0.093482 0
M  V30 9 C 2.667270 0.299150 -1.198812 0
M  V30 10 Cl 4.061875 0.278764 -2.227025 0
M  V30 11 C 1.381573 0.750715 -1.418992 0
M  V30 12 I 0.881145 1.585538 -3.283353 0
M  V30 13 N 0.605887 0.562755 -0.309339 0
M  V30 14 C -0.778626 0.984542 -0.361977 0
M  V30 15 C -1.662247 -0.106302 -0.862801 0
M  V30 16 C -1.570157 -1.310562 0.060725 0
M  V30 17 C -2.949669 -1.975089 -0.081498 0
M  V30 18 N -3.852578 -0.907863 -0.386399 0
M  V30 19 C -3.114655 0.202463 -0.926920 0
M  V30 20 C 1.409149 0.001035 0.583060 0
M  V30 21 N 1.099076 -0.366713 1.820153 0
M  V30 22 H -0.067378 -0.390592 5.084410 0
M  V30 23 H -0.270871 -1.992240 4.370397 0
M  V30 24 H 4.039893 -1.581377 2.820832 0
M  V30 25 H -0.895620 1.919275 -0.949058 0
M  V30 26 H -1.087643 1.245837 0.688611 0
M  V30 27 H -1.279849 -0.373560 -1.887189 0
M  V30 28 H -0.790638 -1.965041 -0.323610 0
M  V30 29 H -1.509953 -1.018917 1.111623 0
M  V30 30 H -3.200470 -2.529131 0.834297 0
M  V30 31 H -2.844401 -2.713633 -0.898577 0
M  V30 32 H -4.626518 -1.249477 -0.990763 0
M  V30 33 H -3.434729 0.327528 -1.992015 0
M  V30 34 H -3.404115 1.127321 -0.390642 0
M  V30 END ATOM
M  V30 BEGIN BOND
M  V30 1 1 1 2
M  V30 2 2 2 3
M  V30 3 1 2 4
M  V30 4 2 4 5
M  V30 5 1 5 6
M  V30 6 1 6 7
M  V30 7 2 6 8
M  V30 8 1 8 9
M  V30 9 1 9 10
M  V30 10 2 9 11
M  V30 11 1 11 12
M  V30 12 1 11 13
M  V30 13 1 13 14
M  V30 14 1 14 15
M  V30 15 1 15 16
M  V30 16 1 16 17
M  V30 17 1 17 18
M  V30 18 1 18 19
M  V30 19 1 13 20
M  V30 20 2 20 21
M  V30 21 1 21 4
M  V30 22 1 20 8
M  V30 23 1 19 15
M  V30 24 1 1 22
M  V30 25 1 1 23
M  V30 26 1 5 24
M  V30 27 1 14 25
M  V30 28 1 14 26
M  V30 29 1 15 27
M  V30 30 1 16 28
M  V30 31 1 16 29
M  V30 32 1 17 30
M  V30 33 1 17 31
M  V30 34 1 18 32
M  V30 35 1 19 33
M  V30 36 1 19 34
M  V30 END BOND
M  V30 END CTAB
M  END
>  <Dataset>  (572) 
ChEMBL_Kinases

>  <Ligand_Instance>  (572) 
nan

>  <PDB_ID>  (572) 
nan

>  <Standardized_SMILES>  (572) 
NC(=O)c1cc(Cl)c2c(Cl)c(I)n(CC3CCNC3)c2n1

>  <Name>  (572) 
nan

>  <Pocket>  (572) 
nan

>  <ATP_Site>  (572) 
nan

>  <Peripheral>  (572) 
nan

>  <Num_H_Atoms_ProtBoundConf>  (572) 
nan

>  <Num_Resolved_Atoms>  (572) 
nan

>  <Num_Not_Resolved_Atoms>  (572) 
nan

$$$$
CHEMBL4094492
     RDKit          3D

  0  0  0  0  0  0  0  0  0  0999 V3000
M  V30 BEGIN CTAB
M  V30 COUNTS 61 64 0 0 0
M  V30 BEGIN ATOM
M  V30 1 C 1.816049 -3.213893 5.169145 0
M  V30 2 C 2.447124 -1.978640 4.607113 0
M  V30 3 O 2.221825 -0.811711 5.022374 0
M  V30 4 N 3.367559 -2.188642 3.518901 0
M  V30 5 C 4.070891 -1.134315 2.849586 0
M  V30 6 C 5.317160 -0.662413 3.236714 0
M  V30 7 C 5.923484 0.359279 2.532863 0
M  V30 8 Cl 7.495192 0.939508 3.037843 0
M  V30 9 C 5.263172 0.906818 1.429413 0
M  V30 10 C 4.024572 0.445854 1.035629 0
M  V30 11 N 3.336974 1.006157 -0.102114 0
M  V30 12 C 2.061663 0.489753 -0.461172 0
M  V30 13 N 0.986618 1.044587 0.076971 0
M  V30 14 C -0.270460 0.601417 -0.221113 0
M  V30 15 N -1.408701 1.215724 0.370071 0
M  V30 16 C -2.784473 0.864362 0.159715 0 CFG=2
M  V30 17 C -3.754894 1.743855 0.950670 0
M  V30 18 C -5.102055 1.523849 0.274933 0
M  V30 19 C -5.549937 0.098514 0.419885 0
M  V30 20 C -4.495029 -0.892462 0.041074 0
M  V30 21 C -3.122245 -0.560046 0.522078 0 CFG=2
M  V30 22 N -3.035907 -0.798151 1.946644 0
M  V30 23 N -0.457772 -0.419259 -1.076258 0
M  V30 24 C 0.598202 -1.019477 -1.651766 0
M  V30 25 C 1.856185 -0.552288 -1.333335 0
M  V30 26 N 2.763087 -1.289911 -2.016381 0
M  V30 27 C 2.120892 -2.213796 -2.761140 0
M  V30 28 N 0.789032 -2.030434 -2.522405 0
M  V30 29 C -0.261200 -2.818082 -3.126579 0
M  V30 30 C -1.089729 -1.996266 -4.100324 0
M  V30 31 C -1.190530 -3.415957 -2.092462 0
M  V30 32 C 3.452428 -0.568900 1.756848 0
M  V30 33 H 1.344734 -2.890030 6.126384 0
M  V30 34 H 2.557102 -4.016975 5.329511 0
M  V30 35 H 0.977922 -3.581343 4.533652 0
M  V30 36 H 3.606460 -3.125297 3.118620 0
M  V30 37 H 5.776671 -1.140173 4.113566 0
M  V30 38 H 5.750777 1.706219 0.888375 0
M  V30 39 H 3.811472 1.776282 -0.619227 0
M  V30 40 H -1.246472 2.023908 1.043253 0
M  V30 41 H -3.049098 1.003723 -0.908809 0
M  V30 42 H -3.784217 1.491972 2.019490 0
M  V30 43 H -3.487881 2.802104 0.803623 0
M  V30 44 H -5.881978 2.191890 0.650573 0
M  V30 45 H -4.942443 1.726183 -0.797733 0
M  V30 46 H -5.982123 -0.101168 1.441708 0
M  V30 47 H -6.397336 -0.051342 -0.299524 0
M  V30 48 H -4.768761 -1.878060 0.484634 0
M  V30 49 H -4.492404 -1.011947 -1.061791 0
M  V30 50 H -2.406571 -1.236121 0.012051 0
M  V30 51 H -3.895639 -0.503084 2.446986 0
M  V30 52 H -2.986534 -1.852170 2.066741 0
M  V30 53 H 2.545429 -2.957966 -3.419676 0
M  V30 54 H 0.166361 -3.653334 -3.717333 0
M  V30 55 H -1.072741 -0.916395 -3.844730 0
M  V30 56 H -2.127841 -2.361771 -4.143656 0
M  V30 57 H -0.650952 -2.089636 -5.135848 0
M  V30 58 H -2.025228 -2.705018 -1.845233 0
M  V30 59 H -0.616183 -3.737102 -1.220599 0
M  V30 60 H -1.628179 -4.344472 -2.547494 0
M  V30 61 H 2.488658 -0.904524 1.424496 0
M  V30 END ATOM
M  V30 BEGIN BOND
M  V30 1 1 1 2
M  V30 2 2 2 3
M  V30 3 1 2 4
M  V30 4 1 4 5
M  V30 5 2 5 6
M  V30 6 1 6 7
M  V30 7 1 7 8
M  V30 8 2 7 9
M  V30 9 1 9 10
M  V30 10 1 10 11
M  V30 11 1 11 12
M  V30 12 2 12 13
M  V30 13 1 13 14
M  V30 14 1 14 15
M  V30 15 1 15 16
M  V30 16 1 16 17
M  V30 17 1 17 18
M  V30 18 1 18 19
M  V30 19 1 19 20
M  V30 20 1 20 21
M  V30 21 1 21 22
M  V30 22 2 14 23
M  V30 23 1 23 24
M  V30 24 2 24 25
M  V30 25 1 25 26
M  V30 26 2 26 27
M  V30 27 1 27 28
M  V30 28 1 28 29
M  V30 29 1 29 30
M  V30 30 1 29 31
M  V30 31 2 10 32
M  V30 32 1 32 5
M  V30 33 1 25 12
M  V30 34 1 21 16
M  V30 35 1 28 24
M  V30 36 1 1 33
M  V30 37 1 1 34
M  V30 38 1 1 35
M  V30 39 1 4 36
M  V30 40 1 6 37
M  V30 41 1 9 38
M  V30 42 1 11 39
M  V30 43 1 15 40
M  V30 44 1 16 41 CFG=3
M  V30 45 1 17 42
M  V30 46 1 17 43
M  V30 47 1 18 44
M  V30 48 1 18 45
M  V30 49 1 19 46
M  V30 50 1 19 47
M  V30 51 1 20 48
M  V30 52 1 20 49
M  V30 53 1 21 50 CFG=3
M  V30 54 1 22 51
M  V30 55 1 22 52
M  V30 56 1 27 53
M  V30 57 1 29 54
M  V30 58 1 30 55
M  V30 59 1 30 56
M  V30 60 1 30 57
M  V30 61 1 31 58
M  V30 62 1 31 59
M  V30 63 1 31 60
M  V30 64 1 32 61
M  V30 END BOND
M  V30 END CTAB
M  END
>  <Dataset>  (573) 
ChEMBL_Kinases

>  <Ligand_Instance>  (573) 
nan

>  <PDB_ID>  (573) 
nan

>  <Standardized_SMILES>  (573) 
CC(=O)Nc1cc(Cl)cc(Nc2nc(N[C@@H]3CCCC[C@@H]3N)nc3c2ncn3C(C)C)c1

>  <Name>  (573) 
nan

>  <Pocket>  (573) 
nan

>  <ATP_Site>  (573) 
nan

>  <Peripheral>  (573) 
nan

>  <Num_H_Atoms_ProtBoundConf>  (573) 
nan

>  <Num_Resolved_Atoms>  (573) 
nan

>  <Num_Not_Resolved_Atoms>  (573) 
nan

$$$$
CHEMBL4095220
     RDKit          3D

  0  0  0  0  0  0  0  0  0  0999 V3000
M  V30 BEGIN CTAB
M  V30 COUNTS 37 39 0 0 0
M  V30 BEGIN ATOM
M  V30 1 N 2.402348 -3.590546 2.820292 0
M  V30 2 C 2.382931 -2.390912 3.583738 0
M  V30 3 O 2.763852 -2.566942 4.756991 0
M  V30 4 C 1.961493 -1.105205 3.039633 0
M  V30 5 C 1.989238 -0.015675 3.882404 0
M  V30 6 C 1.586640 1.189871 3.346172 0
M  V30 7 Cl 1.596024 2.618020 4.360611 0
M  V30 8 C 1.185379 1.224389 2.009707 0
M  V30 9 C 0.752451 2.321305 1.289031 0
M  V30 10 Cl 0.596665 3.974327 1.893737 0
M  V30 11 C 0.477470 1.841594 0.023773 0
M  V30 12 I -0.215789 3.100334 -1.494954 0
M  V30 13 N 0.722247 0.518702 -0.050388 0
M  V30 14 C 0.575943 -0.362040 -1.155068 0
M  V30 15 C 0.512517 -1.820981 -0.673843 0
M  V30 16 C -0.731911 -2.010803 0.112824 0
M  V30 17 C -1.892969 -2.015119 -0.898015 0
M  V30 18 C -1.931946 -0.608354 -1.462559 0
M  V30 19 N -2.521801 0.355109 -0.602728 0
M  V30 20 C -0.592540 -0.241759 -2.034455 0
M  V30 21 C 1.160418 0.133027 1.175391 0
M  V30 22 N 1.567387 -0.983130 1.787736 0
M  V30 23 H 2.315170 -3.951720 1.845241 0
M  V30 24 H 2.309027 -3.907665 1.829715 0
M  V30 25 H 2.315113 -0.133939 4.906311 0
M  V30 26 H 1.480874 -0.360672 -1.836073 0
M  V30 27 H 0.375912 -2.416838 -1.625317 0
M  V30 28 H 1.447550 -2.183641 -0.252935 0
M  V30 29 H -1.016484 -1.152001 0.774026 0
M  V30 30 H -0.696575 -2.974168 0.681127 0
M  V30 31 H -2.791226 -2.232595 -0.326484 0
M  V30 32 H -1.613884 -2.706924 -1.688800 0
M  V30 33 H -2.613555 -0.691522 -2.357396 0
M  V30 34 H -2.085838 0.519279 0.305384 0
M  V30 35 H -3.059793 1.108707 -1.033398 0
M  V30 36 H -0.680128 0.633418 -2.684285 0
M  V30 37 H -0.434563 -1.071354 -2.804178 0
M  V30 END ATOM
M  V30 BEGIN BOND
M  V30 1 1 1 2
M  V30 2 2 2 3
M  V30 3 1 2 4
M  V30 4 2 4 5
M  V30 5 1 5 6
M  V30 6 1 6 7
M  V30 7 2 6 8
M  V30 8 1 8 9
M  V30 9 1 9 10
M  V30 10 2 9 11
M  V30 11 1 11 12
M  V30 12 1 11 13
M  V30 13 1 13 14
M  V30 14 1 14 15
M  V30 15 1 15 16
M  V30 16 1 16 17
M  V30 17 1 17 18
M  V30 18 1 18 19
M  V30 19 1 18 20
M  V30 20 1 13 21
M  V30 21 2 21 22
M  V30 22 1 22 4
M  V30 23 1 21 8
M  V30 24 1 20 14
M  V30 25 1 1 23
M  V30 26 1 1 24
M  V30 27 1 5 25
M  V30 28 1 14 26
M  V30 29 1 15 27
M  V30 30 1 15 28
M  V30 31 1 16 29
M  V30 32 1 16 30
M  V30 33 1 17 31
M  V30 34 1 17 32
M  V30 35 1 18 33
M  V30 36 1 19 34
M  V30 37 1 19 35
M  V30 38 1 20 36
M  V30 39 1 20 37
M  V30 END BOND
M  V30 END CTAB
M  END
>  <Dataset>  (574) 
ChEMBL_Kinases

>  <Ligand_Instance>  (574) 
nan

>  <PDB_ID>  (574) 
nan

>  <Standardized_SMILES>  (574) 
NC(=O)c1cc(Cl)c2c(Cl)c(I)n(C3CCCC(N)C3)c2n1

>  <Name>  (574) 
nan

>  <Pocket>  (574) 
nan

>  <ATP_Site>  (574) 
nan

>  <Peripheral>  (574) 
nan

>  <Num_H_Atoms_ProtBoundConf>  (574) 
nan

>  <Num_Resolved_Atoms>  (574) 
nan

>  <Num_Not_Resolved_Atoms>  (574) 
nan

$$$$
CHEMBL4095595
     RDKit          3D

  0  0  0  0  0  0  0  0  0  0999 V3000
M  V30 BEGIN CTAB
M  V30 COUNTS 39 41 0 0 0
M  V30 BEGIN ATOM
M  V30 1 C -2.703741 -5.770138 1.791930 0
M  V30 2 N -1.798163 -5.194768 0.816074 0
M  V30 3 C -1.782494 -3.799051 0.584832 0
M  V30 4 O -2.575078 -3.049198 1.245036 0
M  V30 5 C -0.882741 -3.196545 -0.389518 0
M  V30 6 C 0.008960 -3.921275 -1.150685 0
M  V30 7 C 0.825836 -3.297644 -2.047116 0
M  V30 8 C 0.786445 -1.947718 -2.217107 0
M  V30 9 C -0.084635 -1.143343 -1.488212 0
M  V30 10 N -0.140950 0.259807 -1.667053 0
M  V30 11 C -0.913564 1.305216 -1.032587 0
M  V30 12 C -0.470911 1.413296 0.381832 0
M  V30 13 N 0.611634 2.204379 0.608708 0
M  V30 14 C 0.922370 2.245113 1.914035 0
M  V30 15 C 2.004200 2.971298 2.567982 0
M  V30 16 C 2.195503 4.337360 2.543348 0
M  V30 17 C 3.269974 4.911161 3.209552 0
M  V30 18 N 4.166129 4.168428 3.903612 0
M  V30 19 C 4.012041 2.813782 3.952279 0
M  V30 20 C 2.939011 2.220708 3.289241 0
M  V30 21 N 0.006388 1.458359 2.504665 0
M  V30 22 N -0.820433 0.965018 1.595454 0
M  V30 23 C -0.884937 -1.834595 -0.598018 0
M  V30 24 H -3.278704 -4.972093 2.314075 0
M  V30 25 H -3.424847 -6.442700 1.307439 0
M  V30 26 H -2.129356 -6.326719 2.570996 0
M  V30 27 H -1.183523 -5.850607 0.315581 0
M  V30 28 H 0.065503 -4.993543 -1.040251 0
M  V30 29 H 1.530034 -3.852164 -2.651151 0
M  V30 30 H 1.453694 -1.474663 -2.943713 0
M  V30 31 H 0.524668 0.612271 -2.424250 0
M  V30 32 H -0.798118 2.254547 -1.587010 0
M  V30 33 H -2.012775 1.053268 -1.073021 0
M  V30 34 H 1.467859 4.917641 1.982385 0
M  V30 35 H 3.401061 5.990754 3.176409 0
M  V30 36 H 4.680841 2.130778 4.484844 0
M  V30 37 H 2.823172 1.135663 3.333380 0
M  V30 38 H -1.641190 0.335562 1.674885 0
M  V30 39 H -1.582199 -1.278447 -0.012767 0
M  V30 END ATOM
M  V30 BEGIN BOND
M  V30 1 1 1 2
M  V30 2 1 2 3
M  V30 3 2 3 4
M  V30 4 1 3 5
M  V30 5 2 5 6
M  V30 6 1 6 7
M  V30 7 2 7 8
M  V30 8 1 8 9
M  V30 9 1 9 10
M  V30 10 1 10 11
M  V30 11 1 11 12
M  V30 12 2 12 13
M  V30 13 1 13 14
M  V30 14 1 14 15
M  V30 15 2 15 16
M  V30 16 1 16 17
M  V30 17 2 17 18
M  V30 18 1 18 19
M  V30 19 2 19 20
M  V30 20 2 14 21
M  V30 21 1 21 22
M  V30 22 2 9 23
M  V30 23 1 23 5
M  V30 24 1 22 12
M  V30 25 1 20 15
M  V30 26 1 1 24
M  V30 27 1 1 25
M  V30 28 1 1 26
M  V30 29 1 2 27
M  V30 30 1 6 28
M  V30 31 1 7 29
M  V30 32 1 8 30
M  V30 33 1 10 31
M  V30 34 1 11 32
M  V30 35 1 11 33
M  V30 36 1 16 34
M  V30 37 1 17 35
M  V30 38 1 19 36
M  V30 39 1 20 37
M  V30 40 1 22 38
M  V30 41 1 23 39
M  V30 END BOND
M  V30 END CTAB
M  END
>  <Dataset>  (575) 
ChEMBL_Kinases

>  <Ligand_Instance>  (575) 
nan

>  <PDB_ID>  (575) 
nan

>  <Standardized_SMILES>  (575) 
CNC(=O)c1cccc(NCc2nc(-c3ccncc3)n[nH]2)c1

>  <Name>  (575) 
nan

>  <Pocket>  (575) 
nan

>  <ATP_Site>  (575) 
nan

>  <Peripheral>  (575) 
nan

>  <Num_H_Atoms_ProtBoundConf>  (575) 
nan

>  <Num_Resolved_Atoms>  (575) 
nan

>  <Num_Not_Resolved_Atoms>  (575) 
nan

$$$$
CHEMBL4095659
     RDKit          3D

  0  0  0  0  0  0  0  0  0  0999 V3000
M  V30 BEGIN CTAB
M  V30 COUNTS 53 56 0 0 0
M  V30 BEGIN ATOM
M  V30 1 C 3.725507 3.937697 5.027517 0
M  V30 2 O 3.749328 3.156681 3.824893 0
M  V30 3 C 4.711023 2.152404 3.767013 0
M  V30 4 C 5.611739 1.901794 4.809475 0
M  V30 5 C 6.558284 0.898835 4.729016 0
M  V30 6 C 6.629107 0.114628 3.595669 0
M  V30 7 C 5.731691 0.376612 2.576717 0
M  V30 8 C 4.760224 1.382994 2.622693 0
M  V30 9 C 3.872625 1.552853 1.475748 0
M  V30 10 N 2.547894 1.049329 1.655906 0
M  V30 11 C 1.492755 1.085383 0.705089 0
M  V30 12 O 1.813981 1.631567 -0.402790 0
M  V30 13 C 0.155348 0.558503 0.935260 0
M  V30 14 C -0.183582 -0.027857 2.140142 0
M  V30 15 C -1.469266 -0.512450 2.305202 0
M  V30 16 C -2.336914 -0.378795 1.249884 0
M  V30 17 C -2.054430 0.192094 0.036499 0
M  V30 18 N -2.960759 0.311525 -1.039396 0
M  V30 19 C -4.320685 -0.149289 -1.105646 0
M  V30 20 C -4.449790 -1.631677 -1.061957 0
M  V30 21 N -4.615116 -2.604683 -0.149568 0
M  V30 22 N -4.659530 -3.783371 -0.708056 0
M  V30 23 C -4.524914 -3.663110 -2.038875 0
M  V30 24 C -4.523101 -4.750759 -3.002606 0
M  V30 25 C -4.378981 -4.559247 -4.356239 0
M  V30 26 C -4.394552 -5.680864 -5.166304 0
M  V30 27 N -4.539423 -6.926728 -4.721267 0
M  V30 28 C -4.683903 -7.154186 -3.396122 0
M  V30 29 C -4.671876 -6.052494 -2.565985 0
M  V30 30 N -4.399881 -2.343419 -2.216681 0
M  V30 31 C -0.760157 0.656205 -0.068900 0
M  V30 32 H 3.579107 3.301167 5.907454 0
M  V30 33 H 3.070200 4.808547 4.964520 0
M  V30 34 H 4.774596 4.335975 5.116125 0
M  V30 35 H 5.541267 2.534060 5.702015 0
M  V30 36 H 7.231060 0.752927 5.573230 0
M  V30 37 H 7.356043 -0.673813 3.505591 0
M  V30 38 H 5.802176 -0.254692 1.684782 0
M  V30 39 H 3.852979 2.653969 1.229428 0
M  V30 40 H 4.308239 1.067767 0.577421 0
M  V30 41 H 2.367116 0.617654 2.589009 0
M  V30 42 H 0.513160 -0.120950 2.952278 0
M  V30 43 H -1.738119 -0.971421 3.245504 0
M  V30 44 H -3.324824 -0.766606 1.437664 0
M  V30 45 H -2.590391 0.802569 -1.906406 0
M  V30 46 H -4.800940 0.219851 -2.030333 0
M  V30 47 H -4.923856 0.245935 -0.234145 0
M  V30 48 H -4.260073 -3.560538 -4.745930 0
M  V30 49 H -4.277867 -5.483906 -6.224613 0
M  V30 50 H -4.803048 -8.162055 -3.011931 0
M  V30 51 H -4.787956 -6.243846 -1.506855 0
M  V30 52 H -4.277310 -1.981172 -3.207984 0
M  V30 53 H -0.458140 1.124420 -1.005552 0
M  V30 END ATOM
M  V30 BEGIN BOND
M  V30 1 1 1 2
M  V30 2 1 2 3
M  V30 3 2 3 4
M  V30 4 1 4 5
M  V30 5 2 5 6
M  V30 6 1 6 7
M  V30 7 2 7 8
M  V30 8 1 8 9
M  V30 9 1 9 10
M  V30 10 1 10 11
M  V30 11 2 11 12
M  V30 12 1 11 13
M  V30 13 2 13 14
M  V30 14 1 14 15
M  V30 15 2 15 16
M  V30 16 1 16 17
M  V30 17 1 17 18
M  V30 18 1 18 19
M  V30 19 1 19 20
M  V30 20 2 20 21
M  V30 21 1 21 22
M  V30 22 2 22 23
M  V30 23 1 23 24
M  V30 24 2 24 25
M  V30 25 1 25 26
M  V30 26 2 26 27
M  V30 27 1 27 28
M  V30 28 2 28 29
M  V30 29 1 23 30
M  V30 30 2 17 31
M  V30 31 1 8 3
M  V30 32 1 31 13
M  V30 33 1 30 20
M  V30 34 1 29 24
M  V30 35 1 1 32
M  V30 36 1 1 33
M  V30 37 1 1 34
M  V30 38 1 4 35
M  V30 39 1 5 36
M  V30 40 1 6 37
M  V30 41 1 7 38
M  V30 42 1 9 39
M  V30 43 1 9 40
M  V30 44 1 10 41
M  V30 45 1 14 42
M  V30 46 1 15 43
M  V30 47 1 16 44
M  V30 48 1 18 45
M  V30 49 1 19 46
M  V30 50 1 19 47
M  V30 51 1 25 48
M  V30 52 1 26 49
M  V30 53 1 28 50
M  V30 54 1 29 51
M  V30 55 1 30 52
M  V30 56 1 31 53
M  V30 END BOND
M  V30 END CTAB
M  END
>  <Dataset>  (576) 
ChEMBL_Kinases

>  <Ligand_Instance>  (576) 
nan

>  <PDB_ID>  (576) 
nan

>  <Standardized_SMILES>  (576) 
COc1ccccc1CNC(=O)c1cccc(NCc2nnc(-c3ccncc3)[nH]2)c1

>  <Name>  (576) 
nan

>  <Pocket>  (576) 
nan

>  <ATP_Site>  (576) 
nan

>  <Peripheral>  (576) 
nan

>  <Num_H_Atoms_ProtBoundConf>  (576) 
nan

>  <Num_Resolved_Atoms>  (576) 
nan

>  <Num_Not_Resolved_Atoms>  (576) 
nan

$$$$
CHEMBL4096575
     RDKit          3D

  0  0  0  0  0  0  0  0  0  0999 V3000
M  V30 BEGIN CTAB
M  V30 COUNTS 38 41 0 0 0
M  V30 BEGIN ATOM
M  V30 1 N -1.070796 -5.195442 4.506073 0
M  V30 2 C -0.410796 -4.324628 3.575802 0
M  V30 3 C 0.419676 -4.910466 2.614950 0
M  V30 4 C 1.082719 -4.100596 1.688418 0
M  V30 5 C 0.901289 -2.731726 1.743596 0
M  V30 6 C 1.576755 -1.843736 0.792317 0
M  V30 7 C 2.830389 -2.120030 0.253974 0
M  V30 8 N 3.426414 -1.286350 -0.618203 0
M  V30 9 C 2.842370 -0.126084 -1.026231 0
M  V30 10 N 3.229656 0.846612 -1.868142 0
M  V30 11 C 2.253819 1.770839 -1.902173 0
M  V30 12 C 1.199573 1.412888 -1.072745 0
M  V30 13 C -0.050508 2.137903 -0.827274 0
M  V30 14 C -0.088440 3.510708 -0.575666 0
M  V30 15 C -1.326531 4.125441 -0.353884 0
M  V30 16 C -2.509744 3.421822 -0.375422 0
M  V30 17 O -3.741120 4.046027 -0.152721 0
M  V30 18 C -2.454586 2.047433 -0.628823 0
M  V30 19 C -1.229653 1.419361 -0.851862 0
M  V30 20 C 1.586800 0.187354 -0.510662 0
M  V30 21 C 0.974055 -0.669610 0.386066 0
M  V30 22 C 0.072230 -2.153155 2.703625 0
M  V30 23 C -0.590888 -2.937110 3.627033 0
M  V30 24 H -0.625581 -5.043391 5.448371 0
M  V30 25 H -1.852450 -5.862119 4.294195 0
M  V30 26 H 0.559298 -5.985312 2.574861 0
M  V30 27 H 1.733756 -4.545187 0.933208 0
M  V30 28 H 3.293685 -3.052297 0.585002 0
M  V30 29 H 4.136515 0.881414 -2.406941 0
M  V30 30 H 2.298015 2.668909 -2.500801 0
M  V30 31 H 0.845093 4.062988 -0.559017 0
M  V30 32 H -1.359133 5.184710 -0.159649 0
M  V30 33 H -4.395979 3.554198 0.440879 0
M  V30 34 H -3.410563 1.498515 -0.642621 0
M  V30 35 H -1.317392 0.350810 -1.038688 0
M  V30 36 H 0.004146 -0.438671 0.793264 0
M  V30 37 H -0.109027 -1.081312 2.795796 0
M  V30 38 H -1.248350 -2.541840 4.396276 0
M  V30 END ATOM
M  V30 BEGIN BOND
M  V30 1 1 1 2
M  V30 2 2 2 3
M  V30 3 1 3 4
M  V30 4 2 4 5
M  V30 5 1 5 6
M  V30 6 2 6 7
M  V30 7 1 7 8
M  V30 8 2 8 9
M  V30 9 1 9 10
M  V30 10 1 10 11
M  V30 11 2 11 12
M  V30 12 1 12 13
M  V30 13 2 13 14
M  V30 14 1 14 15
M  V30 15 2 15 16
M  V30 16 1 16 17
M  V30 17 1 16 18
M  V30 18 2 18 19
M  V30 19 1 12 20
M  V30 20 2 20 21
M  V30 21 1 5 22
M  V30 22 2 22 23
M  V30 23 1 23 2
M  V30 24 1 21 6
M  V30 25 1 20 9
M  V30 26 1 19 13
M  V30 27 1 1 24
M  V30 28 1 1 25
M  V30 29 1 3 26
M  V30 30 1 4 27
M  V30 31 1 7 28
M  V30 32 1 10 29
M  V30 33 1 11 30
M  V30 34 1 14 31
M  V30 35 1 15 32
M  V30 36 1 17 33
M  V30 37 1 18 34
M  V30 38 1 19 35
M  V30 39 1 21 36
M  V30 40 1 22 37
M  V30 41 1 23 38
M  V30 END BOND
M  V30 END CTAB
M  END
>  <Dataset>  (577) 
ChEMBL_Kinases

>  <Ligand_Instance>  (577) 
nan

>  <PDB_ID>  (577) 
nan

>  <Standardized_SMILES>  (577) 
Nc1ccc(-c2cnc3[nH]cc(-c4ccc(O)cc4)c3c2)cc1

>  <Name>  (577) 
nan

>  <Pocket>  (577) 
nan

>  <ATP_Site>  (577) 
nan

>  <Peripheral>  (577) 
nan

>  <Num_H_Atoms_ProtBoundConf>  (577) 
nan

>  <Num_Resolved_Atoms>  (577) 
nan

>  <Num_Not_Resolved_Atoms>  (577) 
nan

$$$$
CHEMBL3408947
     RDKit          3D

  0  0  0  0  0  0  0  0  0  0999 V3000
M  V30 BEGIN CTAB
M  V30 COUNTS 74 80 0 0 0
M  V30 BEGIN ATOM
M  V30 1 C 4.122522 -2.206167 1.782012 0
M  V30 2 O 4.061847 -2.245950 3.191920 0
M  V30 3 C 4.314127 -1.083109 3.903589 0
M  V30 4 C 4.227076 -1.249276 5.288372 0
M  V30 5 C 4.454340 -0.173187 6.123719 0
M  V30 6 C 4.762212 1.035667 5.535716 0
M  V30 7 C 4.860490 1.256253 4.163598 0
M  V30 8 C 4.624297 0.141906 3.343249 0
M  V30 9 C 5.192573 2.660022 3.861376 0 CFG=1
M  V30 10 C 5.938431 3.038961 2.669978 0
M  V30 11 C 4.538557 3.501639 2.874040 0 CFG=1
M  V30 12 C 3.397107 2.991431 2.122834 0
M  V30 13 C 2.361032 2.173497 2.522440 0
M  V30 14 C 1.348403 1.750356 1.698950 0
M  V30 15 C 1.370689 2.171761 0.390163 0
M  V30 16 C 0.508743 1.916859 -0.655116 0
M  V30 17 C -0.719389 1.097466 -0.667143 0
M  V30 18 C -1.420153 0.951893 -1.764525 0
M  V30 19 C -2.643210 0.166155 -1.882532 0
M  V30 20 C -3.200072 -0.505981 -0.817664 0
M  V30 21 C -4.354512 -1.242979 -0.978568 0
M  V30 22 C -5.025443 -1.365256 -2.176155 0
M  V30 23 C -6.265487 -2.133430 -2.421202 0
M  V30 24 N -6.072023 -3.501198 -2.791712 0
M  V30 25 C -5.274852 -3.720110 -3.908926 0
M  V30 26 C -4.658618 -5.081931 -4.046349 0 CFG=1
M  V30 27 C -3.200986 -5.020317 -4.444100 0
M  V30 28 O -4.851055 -5.904204 -2.961668 0
M  V30 29 C -4.883422 -5.301713 -1.730329 0 CFG=1
M  V30 30 C -3.579562 -4.783007 -1.224255 0
M  V30 31 C -6.012977 -4.331118 -1.664496 0
M  V30 32 C -4.421039 -0.664380 -3.228546 0
M  V30 33 C -3.268402 0.083304 -3.110192 0
M  V30 34 N 1.003837 2.577435 -1.715956 0
M  V30 35 N 2.113586 3.219456 -1.384575 0
M  V30 36 C 2.386903 3.000427 -0.084394 0
M  V30 37 C 3.388726 3.396094 0.802861 0
M  V30 38 C 5.359145 3.260480 5.204756 0
M  V30 39 O 5.708238 4.470346 5.350949 0
M  V30 40 N 5.066800 2.267483 6.179501 0
M  V30 41 H 3.621950 -3.096290 1.318267 0
M  V30 42 H 3.646972 -1.304661 1.364261 0
M  V30 43 H 5.178451 -2.260618 1.413625 0
M  V30 44 H 3.982052 -2.207670 5.761209 0
M  V30 45 H 4.397331 -0.256122 7.212236 0
M  V30 46 H 4.676170 0.204185 2.266227 0
M  V30 47 H 6.782691 3.755840 2.671256 0
M  V30 48 H 6.080928 2.236521 1.904014 0
M  V30 49 H 4.505381 4.631303 2.982276 0
M  V30 50 H 2.392232 1.886125 3.562646 0
M  V30 51 H 0.569261 1.108418 2.084362 0
M  V30 52 H -1.049748 0.608658 0.237720 0
M  V30 53 H -1.030352 1.467275 -2.625564 0
M  V30 54 H -2.755729 -0.477366 0.162748 0
M  V30 55 H -4.764370 -1.754122 -0.129032 0
M  V30 56 H -6.749193 -1.647161 -3.322689 0
M  V30 57 H -6.993816 -2.017531 -1.581467 0
M  V30 58 H -5.865412 -3.435500 -4.830041 0
M  V30 59 H -4.420731 -3.000893 -3.928883 0
M  V30 60 H -5.181236 -5.585997 -4.885880 0
M  V30 61 H -2.566081 -5.688178 -3.836428 0
M  V30 62 H -3.051751 -5.325518 -5.498768 0
M  V30 63 H -2.782175 -4.000337 -4.330841 0
M  V30 64 H -5.167845 -6.133551 -1.013263 0
M  V30 65 H -2.981224 -4.206876 -1.950739 0
M  V30 66 H -3.832769 -4.033273 -0.420630 0
M  V30 67 H -3.027852 -5.572176 -0.714846 0
M  V30 68 H -5.950339 -3.720785 -0.731951 0
M  V30 69 H -6.954308 -4.950738 -1.637596 0
M  V30 70 H -4.833064 -0.664077 -4.232570 0
M  V30 71 H -2.828832 0.610796 -3.943081 0
M  V30 72 H 2.705660 3.812264 -2.013421 0
M  V30 73 H 4.114495 4.028421 0.336468 0
M  V30 74 H 5.110985 2.558846 7.190219 0
M  V30 END ATOM
M  V30 BEGIN BOND
M  V30 1 1 1 2
M  V30 2 1 2 3
M  V30 3 2 3 4
M  V30 4 1 4 5
M  V30 5 2 5 6
M  V30 6 1 6 7
M  V30 7 2 7 8
M  V30 8 1 7 9
M  V30 9 1 9 10 CFG=3
M  V30 10 1 10 11
M  V30 11 1 11 12
M  V30 12 2 12 13
M  V30 13 1 13 14
M  V30 14 2 14 15
M  V30 15 1 15 16
M  V30 16 1 16 17
M  V30 17 2 17 18
M  V30 18 1 18 19
M  V30 19 2 19 20
M  V30 20 1 20 21
M  V30 21 2 21 22
M  V30 22 1 22 23
M  V30 23 1 23 24
M  V30 24 1 24 25
M  V30 25 1 25 26
M  V30 26 1 26 27
M  V30 27 1 26 28
M  V30 28 1 28 29
M  V30 29 1 29 30
M  V30 30 1 29 31
M  V30 31 1 22 32
M  V30 32 2 32 33
M  V30 33 2 16 34
M  V30 34 1 34 35
M  V30 35 1 35 36
M  V30 36 2 36 37
M  V30 37 1 9 38
M  V30 38 2 38 39
M  V30 39 1 38 40
M  V30 40 1 8 3
M  V30 41 1 11 9
M  V30 42 1 37 12
M  V30 43 1 40 6
M  V30 44 1 36 15
M  V30 45 1 33 19
M  V30 46 1 31 24
M  V30 47 1 1 41
M  V30 48 1 1 42
M  V30 49 1 1 43
M  V30 50 1 4 44
M  V30 51 1 5 45
M  V30 52 1 8 46
M  V30 53 1 10 47
M  V30 54 1 10 48
M  V30 55 1 11 49 CFG=1
M  V30 56 1 13 50
M  V30 57 1 14 51
M  V30 58 1 17 52
M  V30 59 1 18 53
M  V30 60 1 20 54
M  V30 61 1 21 55
M  V30 62 1 23 56
M  V30 63 1 23 57
M  V30 64 1 25 58
M  V30 65 1 25 59
M  V30 66 1 26 60 CFG=3
M  V30 67 1 27 61
M  V30 68 1 27 62
M  V30 69 1 27 63
M  V30 70 1 29 64 CFG=1
M  V30 71 1 30 65
M  V30 72 1 30 66
M  V30 73 1 30 67
M  V30 74 1 31 68
M  V30 75 1 31 69
M  V30 76 1 32 70
M  V30 77 1 33 71
M  V30 78 1 35 72
M  V30 79 1 37 73
M  V30 80 1 40 74
M  V30 END BOND
M  V30 END CTAB
M  END
>  <Dataset>  (578) 
ChEMBL_Kinases

>  <Ligand_Instance>  (578) 
nan

>  <PDB_ID>  (578) 
nan

>  <Standardized_SMILES>  (578) 
COc1ccc2c(c1)[C@]1(C[C@H]1c1ccc3c(/C=C/c4ccc(CN5C[C@@H](C)O[C@@H](C)C5)cc4)n[nH]c3c1)C(=O)N2

>  <Name>  (578) 
OCIFISERTIB

>  <Pocket>  (578) 
nan

>  <ATP_Site>  (578) 
nan

>  <Peripheral>  (578) 
nan

>  <Num_H_Atoms_ProtBoundConf>  (578) 
nan

>  <Num_Resolved_Atoms>  (578) 
nan

>  <Num_Not_Resolved_Atoms>  (578) 
nan

$$$$
CHEMBL4097308
     RDKit          3D

  0  0  0  0  0  0  0  0  0  0999 V3000
M  V30 BEGIN CTAB
M  V30 COUNTS 52 56 0 0 0
M  V30 BEGIN ATOM
M  V30 1 C 1.850422 -1.903633 4.775900 0
M  V30 2 C 2.952215 -1.950118 3.780664 0
M  V30 3 C 4.117082 -2.622781 4.089360 0
M  V30 4 N 5.117433 -2.654339 3.162537 0
M  V30 5 C 4.921449 -2.021445 1.976280 0
M  V30 6 C 3.765218 -1.344305 1.649259 0
M  V30 7 C 3.594354 -0.676785 0.362577 0
M  V30 8 C 4.510668 -0.634558 -0.641502 0
M  V30 9 C 4.243730 0.028505 -1.822906 0
M  V30 10 C 3.048587 0.678549 -2.052154 0
M  V30 11 C 2.451180 1.414898 -3.064565 0
M  V30 12 N 1.223516 1.782923 -2.645987 0
M  V30 13 N 1.009665 1.318144 -1.418873 0
M  V30 14 C -0.208851 1.529863 -0.668394 0
M  V30 15 C -0.737933 2.750392 -0.297363 0
M  V30 16 C -1.916808 2.730440 0.419788 0
M  V30 17 C -2.497674 1.517440 0.725033 0
M  V30 18 C -1.981800 0.314030 0.362744 0
M  V30 19 N -2.562917 -0.946530 0.666782 0
M  V30 20 C -3.774978 -0.939068 1.420030 0
M  V30 21 C -4.919984 -0.699289 0.437506 0
M  V30 22 C -5.076035 -1.987691 -0.373741 0
M  V30 23 N -3.865707 -2.297133 -1.088474 0
M  V30 24 C -2.912664 -3.068742 -0.342684 0
M  V30 25 C -1.838829 -2.097368 0.164463 0
M  V30 26 N -0.824227 0.381840 -0.339536 0
M  V30 27 C 2.116068 0.644424 -1.049620 0
M  V30 28 C 2.395427 -0.023983 0.131095 0
M  V30 29 N 2.803469 -1.337287 2.591214 0
M  V30 30 H 2.030467 -1.117525 5.555249 0
M  V30 31 H 0.916086 -1.568283 4.263321 0
M  V30 32 H 1.675631 -2.862869 5.295185 0
M  V30 33 H 4.272394 -3.126388 5.033996 0
M  V30 34 H 5.749065 -2.081714 1.283974 0
M  V30 35 H 5.449368 -1.131051 -0.492215 0
M  V30 36 H 4.978432 0.056155 -2.614457 0
M  V30 37 H 2.966228 1.611355 -4.005811 0
M  V30 38 H -0.169697 3.616853 -0.608730 0
M  V30 39 H -2.320671 3.687562 0.704040 0
M  V30 40 H -3.415467 1.553455 1.285084 0
M  V30 41 H -4.003890 -1.956279 1.855332 0
M  V30 42 H -3.828757 -0.198330 2.235815 0
M  V30 43 H -5.842776 -0.539921 1.000200 0
M  V30 44 H -4.677280 0.119172 -0.253804 0
M  V30 45 H -5.878477 -1.805779 -1.130417 0
M  V30 46 H -5.385086 -2.761991 0.343997 0
M  V30 47 H -3.463735 -1.441509 -1.499263 0
M  V30 48 H -3.396514 -3.511280 0.545244 0
M  V30 49 H -2.469086 -3.893550 -0.934560 0
M  V30 50 H -1.168927 -1.798410 -0.674408 0
M  V30 51 H -1.287198 -2.598766 0.974145 0
M  V30 52 H 1.632154 -0.033841 0.912341 0
M  V30 END ATOM
M  V30 BEGIN BOND
M  V30 1 1 1 2
M  V30 2 2 2 3
M  V30 3 1 3 4
M  V30 4 2 4 5
M  V30 5 1 5 6
M  V30 6 1 6 7
M  V30 7 2 7 8
M  V30 8 1 8 9
M  V30 9 2 9 10
M  V30 10 1 10 11
M  V30 11 2 11 12
M  V30 12 1 12 13
M  V30 13 1 13 14
M  V30 14 2 14 15
M  V30 15 1 15 16
M  V30 16 2 16 17
M  V30 17 1 17 18
M  V30 18 1 18 19
M  V30 19 1 19 20
M  V30 20 1 20 21
M  V30 21 1 21 22
M  V30 22 1 22 23
M  V30 23 1 23 24
M  V30 24 1 24 25
M  V30 25 2 18 26
M  V30 26 1 13 27
M  V30 27 2 27 28
M  V30 28 2 6 29
M  V30 29 1 29 2
M  V30 30 1 28 7
M  V30 31 1 27 10
M  V30 32 1 26 14
M  V30 33 1 25 19
M  V30 34 1 1 30
M  V30 35 1 1 31
M  V30 36 1 1 32
M  V30 37 1 3 33
M  V30 38 1 5 34
M  V30 39 1 8 35
M  V30 40 1 9 36
M  V30 41 1 11 37
M  V30 42 1 15 38
M  V30 43 1 16 39
M  V30 44 1 17 40
M  V30 45 1 20 41
M  V30 46 1 20 42
M  V30 47 1 21 43
M  V30 48 1 21 44
M  V30 49 1 22 45
M  V30 50 1 22 46
M  V30 51 1 23 47
M  V30 52 1 24 48
M  V30 53 1 24 49
M  V30 54 1 25 50
M  V30 55 1 25 51
M  V30 56 1 28 52
M  V30 END BOND
M  V30 END CTAB
M  END
>  <Dataset>  (579) 
ChEMBL_Kinases

>  <Ligand_Instance>  (579) 
nan

>  <PDB_ID>  (579) 
nan

>  <Standardized_SMILES>  (579) 
Cc1cncc(-c2ccc3cnn(-c4cccc(N5CCCNCC5)n4)c3c2)n1

>  <Name>  (579) 
nan

>  <Pocket>  (579) 
nan

>  <ATP_Site>  (579) 
nan

>  <Peripheral>  (579) 
nan

>  <Num_H_Atoms_ProtBoundConf>  (579) 
nan

>  <Num_Resolved_Atoms>  (579) 
nan

>  <Num_Not_Resolved_Atoms>  (579) 
nan

$$$$
CHEMBL4802156
     RDKit          3D

  0  0  0  0  0  0  0  0  0  0999 V3000
M  V30 BEGIN CTAB
M  V30 COUNTS 82 88 0 0 0
M  V30 BEGIN ATOM
M  V30 1 C -4.574300 -3.425891 -6.889331 0
M  V30 2 C -4.458746 -1.935159 -7.020245 0
M  V30 3 O -5.245453 -1.353651 -7.808305 0
M  V30 4 N -3.447481 -1.300565 -6.223796 0
M  V30 5 C -2.559412 -2.023023 -5.326962 0
M  V30 6 C -3.334121 0.172917 -6.350320 0
M  V30 7 C -2.011114 0.443647 -6.945973 0
M  V30 8 C -1.048695 1.293487 -6.204418 0
M  V30 9 N -1.434903 1.396808 -4.818183 0
M  V30 10 C -0.669500 1.020812 -3.684768 0
M  V30 11 C 0.619246 0.565703 -3.835534 0
M  V30 12 C 1.381440 0.188336 -2.744935 0
M  V30 13 C 0.794520 0.287719 -1.499835 0
M  V30 14 C -0.510905 0.746820 -1.324256 0
M  V30 15 C -1.003770 0.798147 0.042063 0
M  V30 16 C -2.260884 1.222181 0.410942 0
M  V30 17 C -2.729097 1.271385 1.709102 0
M  V30 18 C -1.841180 0.856653 2.679764 0
M  V30 19 N -1.929348 0.764554 4.007021 0
M  V30 20 C -0.785820 0.298321 4.532775 0
M  V30 21 C -0.620287 0.105701 5.957889 0
M  V30 22 C 0.492091 -0.360711 6.613489 0
M  V30 23 C 0.566079 -0.514294 7.980227 0
M  V30 24 C -0.515987 -0.193573 8.779860 0
M  V30 25 N -1.594819 0.258997 8.141124 0
M  V30 26 C -1.662994 0.407232 6.808593 0
M  V30 27 N -2.924298 0.909618 6.357263 0
M  V30 28 N 0.009118 0.106333 3.487380 0
M  V30 29 C 1.340212 -0.382877 3.515802 0
M  V30 30 C 1.428834 -1.779020 3.417876 0
M  V30 31 C 2.671042 -2.378526 3.421943 0
M  V30 32 C 3.825383 -1.630039 3.520560 0
M  V30 33 C 5.228245 -2.110621 3.539909 0
M  V30 34 N 6.085664 -1.490727 2.548901 0
M  V30 35 C 5.322881 -3.638854 3.453463 0
M  V30 36 C 6.594524 -3.474004 4.299325 0
M  V30 37 C 5.890745 -2.235877 4.876465 0
M  V30 38 C 3.742703 -0.235594 3.618855 0
M  V30 39 C 2.508743 0.386880 3.616761 0
M  V30 40 C -0.592938 0.434185 2.329878 0
M  V30 41 N -0.198039 0.410450 1.044212 0
M  V30 42 C -1.233727 1.111433 -2.432229 0
M  V30 43 C -2.767374 1.963309 -4.780156 0
M  V30 44 C -3.695335 0.817344 -5.065689 0
M  V30 45 H -5.549598 -3.777533 -7.332409 0
M  V30 46 H -3.729165 -3.919345 -7.407894 0
M  V30 47 H -4.593676 -3.692403 -5.802065 0
M  V30 48 H -2.659373 -3.100295 -5.543365 0
M  V30 49 H -2.842683 -1.863561 -4.287622 0
M  V30 50 H -1.515047 -1.705369 -5.522896 0
M  V30 51 H -4.130119 0.451819 -7.098420 0
M  V30 52 H -1.480256 -0.500101 -7.275910 0
M  V30 53 H -2.177026 0.964226 -7.945214 0
M  V30 54 H -0.021249 0.910958 -6.366859 0
M  V30 55 H -1.030069 2.331558 -6.618631 0
M  V30 56 H 1.127744 0.467442 -4.784822 0
M  V30 57 H 2.391891 -0.169814 -2.846327 0
M  V30 58 H 1.423716 -0.019140 -0.654383 0
M  V30 59 H -2.952714 1.545907 -0.351479 0
M  V30 60 H -3.716033 1.608107 1.955908 0
M  V30 61 H 1.356922 -0.620809 6.034748 0
M  V30 62 H 1.482939 -0.890330 8.430006 0
M  V30 63 H -0.471484 -0.308906 9.844357 0
M  V30 64 H -3.372632 1.740571 5.904692 0
M  V30 65 H -3.778822 0.299457 6.476937 0
M  V30 66 H 0.568858 -2.423234 3.338574 0
M  V30 67 H 2.825939 -3.436114 3.350344 0
M  V30 68 H 5.674837 -1.559273 1.593288 0
M  V30 69 H 6.430127 -0.555882 2.810867 0
M  V30 70 H 5.493081 -3.943737 2.419657 0
M  V30 71 H 4.584444 -4.187269 4.050006 0
M  V30 72 H 7.399216 -3.147154 3.615706 0
M  V30 73 H 6.799109 -4.268623 5.013743 0
M  V30 74 H 6.600230 -1.396477 5.068427 0
M  V30 75 H 5.253515 -2.555606 5.701949 0
M  V30 76 H 4.578956 0.429285 3.699518 0
M  V30 77 H 2.350471 1.459427 3.688361 0
M  V30 78 H -2.215851 1.449007 -2.227879 0
M  V30 79 H -2.923461 2.738430 -5.555237 0
M  V30 80 H -2.982212 2.450769 -3.802821 0
M  V30 81 H -3.595944 0.026460 -4.259924 0
M  V30 82 H -4.761907 1.132427 -5.095718 0
M  V30 END ATOM
M  V30 BEGIN BOND
M  V30 1 1 1 2
M  V30 2 2 2 3
M  V30 3 1 2 4
M  V30 4 1 4 5
M  V30 5 1 4 6
M  V30 6 1 6 7
M  V30 7 1 7 8
M  V30 8 1 8 9
M  V30 9 1 9 10
M  V30 10 2 10 11
M  V30 11 1 11 12
M  V30 12 2 12 13
M  V30 13 1 13 14
M  V30 14 1 14 15
M  V30 15 2 15 16
M  V30 16 1 16 17
M  V30 17 2 17 18
M  V30 18 1 18 19
M  V30 19 2 19 20
M  V30 20 1 20 21
M  V30 21 2 21 22
M  V30 22 1 22 23
M  V30 23 2 23 24
M  V30 24 1 24 25
M  V30 25 2 25 26
M  V30 26 1 26 27
M  V30 27 1 20 28
M  V30 28 1 28 29
M  V30 29 2 29 30
M  V30 30 1 30 31
M  V30 31 2 31 32
M  V30 32 1 32 33
M  V30 33 1 33 34
M  V30 34 1 33 35
M  V30 35 1 35 36
M  V30 36 1 36 37
M  V30 37 1 32 38
M  V30 38 2 38 39
M  V30 39 1 28 40
M  V30 40 2 40 41
M  V30 41 2 14 42
M  V30 42 1 9 43
M  V30 43 1 43 44
M  V30 44 1 44 6
M  V30 45 1 42 10
M  V30 46 1 41 15
M  V30 47 1 40 18
M  V30 48 1 26 21
M  V30 49 1 39 29
M  V30 50 1 37 33
M  V30 51 1 1 45
M  V30 52 1 1 46
M  V30 53 1 1 47
M  V30 54 1 5 48
M  V30 55 1 5 49
M  V30 56 1 5 50
M  V30 57 1 6 51
M  V30 58 1 7 52
M  V30 59 1 7 53
M  V30 60 1 8 54
M  V30 61 1 8 55
M  V30 62 1 11 56
M  V30 63 1 12 57
M  V30 64 1 13 58
M  V30 65 1 16 59
M  V30 66 1 17 60
M  V30 67 1 22 61
M  V30 68 1 23 62
M  V30 69 1 24 63
M  V30 70 1 27 64
M  V30 71 1 27 65
M  V30 72 1 30 66
M  V30 73 1 31 67
M  V30 74 1 34 68
M  V30 75 1 34 69
M  V30 76 1 35 70
M  V30 77 1 35 71
M  V30 78 1 36 72
M  V30 79 1 36 73
M  V30 80 1 37 74
M  V30 81 1 37 75
M  V30 82 1 38 76
M  V30 83 1 39 77
M  V30 84 1 42 78
M  V30 85 1 43 79
M  V30 86 1 43 80
M  V30 87 1 44 81
M  V30 88 1 44 82
M  V30 END BOND
M  V30 END CTAB
M  END
>  <Dataset>  (580) 
ChEMBL_Kinases

>  <Ligand_Instance>  (580) 
nan

>  <PDB_ID>  (580) 
nan

>  <Standardized_SMILES>  (580) 
CC(=O)N(C)C1CCN(c2cccc(-c3ccc4nc(-c5cccnc5N)n(-c5ccc(C6(N)CCC6)cc5)c4n3)c2)CC1

>  <Name>  (580) 
VEVORISERTIB

>  <Pocket>  (580) 
nan

>  <ATP_Site>  (580) 
nan

>  <Peripheral>  (580) 
nan

>  <Num_H_Atoms_ProtBoundConf>  (580) 
nan

>  <Num_Resolved_Atoms>  (580) 
nan

>  <Num_Not_Resolved_Atoms>  (580) 
nan

$$$$
CHEMBL4800596
     RDKit          3D

  0  0  0  0  0  0  0  0  0  0999 V3000
M  V30 BEGIN CTAB
M  V30 COUNTS 62 68 0 0 0
M  V30 BEGIN ATOM
M  V30 1 O 4.656735 1.616282 4.747093 0
M  V30 2 C 4.055311 0.642463 5.312170 0
M  V30 3 N 4.127496 -0.592910 4.576997 0
M  V30 4 C 4.797529 -0.756246 3.331343 0
M  V30 5 C 6.131957 -1.119737 3.175020 0
M  V30 6 N 6.678286 -1.249421 1.953413 0
M  V30 7 C 5.978108 -1.038715 0.824966 0
M  V30 8 C 4.632912 -0.671524 0.933043 0
M  V30 9 C 3.836813 -0.432902 -0.286091 0
M  V30 10 C 4.531055 0.075089 -1.366260 0
M  V30 11 N 3.816380 0.297611 -2.485017 0
M  V30 12 C 2.497645 0.049112 -2.576885 0
M  V30 13 N 1.569992 0.175790 -3.541144 0
M  V30 14 N 0.394479 -0.217315 -3.108346 0
M  V30 15 C 0.441975 -0.636175 -1.826639 0
M  V30 16 C -0.670931 -1.130518 -1.049970 0
M  V30 17 C -1.955662 -1.217916 -1.589515 0
M  V30 18 C -2.857186 -1.712394 -0.676401 0
M  V30 19 C -4.208322 -1.982007 -0.714032 0
M  V30 20 N -4.946390 -1.734221 -1.901408 0
M  V30 21 C -5.000322 -0.362041 -2.427945 0
M  V30 22 C -6.457694 -0.036832 -2.684278 0
M  V30 23 C -7.060682 -1.002382 -3.669070 0
M  V30 24 C -6.103587 -2.160289 -3.959947 0
M  V30 25 C -5.665343 -2.748453 -2.645459 0
M  V30 26 N -4.803710 -2.477452 0.390991 0
M  V30 27 C -4.113779 -2.718792 1.539401 0
M  V30 28 C -2.772524 -2.444425 1.557390 0
M  V30 29 C -2.127743 -1.944212 0.468765 0
M  V30 30 N -0.883584 -1.588834 0.183976 0
M  V30 31 C 1.770058 -0.457796 -1.521038 0
M  V30 32 C 2.485243 -0.691200 -0.369549 0
M  V30 33 C 4.056699 -0.534238 2.192308 0
M  V30 34 C 3.331851 0.717916 6.607379 0
M  V30 35 C 2.510336 1.993076 6.869003 0
M  V30 36 C 3.781937 1.728036 7.585580 0
M  V30 37 H 3.645911 -1.413860 5.009320 0
M  V30 38 H 6.694240 -1.289363 4.099811 0
M  V30 39 H 6.461072 -1.155156 -0.141791 0
M  V30 40 H 5.586904 0.284658 -1.324375 0
M  V30 41 H 1.717036 0.531388 -4.510718 0
M  V30 42 H -2.287849 -0.950564 -2.595466 0
M  V30 43 H -4.609442 0.358347 -1.711130 0
M  V30 44 H -4.439707 -0.258092 -3.377371 0
M  V30 45 H -6.491261 0.979034 -3.128339 0
M  V30 46 H -7.011518 -0.012533 -1.726897 0
M  V30 47 H -7.956970 -1.454698 -3.197949 0
M  V30 48 H -7.313486 -0.487553 -4.628034 0
M  V30 49 H -5.215772 -1.777741 -4.487599 0
M  V30 50 H -6.654764 -2.907078 -4.584915 0
M  V30 51 H -6.606092 -2.950993 -2.076030 0
M  V30 52 H -5.050109 -3.642197 -2.748621 0
M  V30 53 H -4.637031 -3.115789 2.395315 0
M  V30 54 H -2.186499 -2.622893 2.453757 0
M  V30 55 H -0.144379 -1.673066 0.895140 0
M  V30 56 H 2.000276 -1.082723 0.494498 0
M  V30 57 H 3.020505 -0.249910 2.189481 0
M  V30 58 H 2.847653 -0.192664 7.003609 0
M  V30 59 H 1.551225 1.892104 7.413962 0
M  V30 60 H 2.526882 2.756259 6.052823 0
M  V30 61 H 3.665945 1.554981 8.689467 0
M  V30 62 H 4.630712 2.421433 7.375919 0
M  V30 END ATOM
M  V30 BEGIN BOND
M  V30 1 2 1 2
M  V30 2 1 2 3
M  V30 3 1 3 4
M  V30 4 2 4 5
M  V30 5 1 5 6
M  V30 6 2 6 7
M  V30 7 1 7 8
M  V30 8 1 8 9
M  V30 9 2 9 10
M  V30 10 1 10 11
M  V30 11 2 11 12
M  V30 12 1 12 13
M  V30 13 1 13 14
M  V30 14 2 14 15
M  V30 15 1 15 16
M  V30 16 2 16 17
M  V30 17 1 17 18
M  V30 18 2 18 19
M  V30 19 1 19 20
M  V30 20 1 20 21
M  V30 21 1 21 22
M  V30 22 1 22 23
M  V30 23 1 23 24
M  V30 24 1 24 25
M  V30 25 1 19 26
M  V30 26 2 26 27
M  V30 27 1 27 28
M  V30 28 2 28 29
M  V30 29 1 29 30
M  V30 30 1 15 31
M  V30 31 2 31 32
M  V30 32 2 8 33
M  V30 33 1 2 34
M  V30 34 1 34 35
M  V30 35 1 35 36
M  V30 36 1 33 4
M  V30 37 1 36 34
M  V30 38 1 32 9
M  V30 39 1 31 12
M  V30 40 1 30 16
M  V30 41 1 29 18
M  V30 42 1 25 20
M  V30 43 1 3 37
M  V30 44 1 5 38
M  V30 45 1 7 39
M  V30 46 1 10 40
M  V30 47 1 13 41
M  V30 48 1 17 42
M  V30 49 1 21 43
M  V30 50 1 21 44
M  V30 51 1 22 45
M  V30 52 1 22 46
M  V30 53 1 23 47
M  V30 54 1 23 48
M  V30 55 1 24 49
M  V30 56 1 24 50
M  V30 57 1 25 51
M  V30 58 1 25 52
M  V30 59 1 27 53
M  V30 60 1 28 54
M  V30 61 1 30 55
M  V30 62 1 32 56
M  V30 63 1 33 57
M  V30 64 1 34 58
M  V30 65 1 35 59
M  V30 66 1 35 60
M  V30 67 1 36 61
M  V30 68 1 36 62
M  V30 END BOND
M  V30 END CTAB
M  END
>  <Dataset>  (581) 
ChEMBL_Kinases

>  <Ligand_Instance>  (581) 
nan

>  <PDB_ID>  (581) 
nan

>  <Standardized_SMILES>  (581) 
O=C(Nc1cncc(-c2cnc3[nH]nc(-c4cc5c(N6CCCCC6)nccc5[nH]4)c3c2)c1)C1CC1

>  <Name>  (581) 
nan

>  <Pocket>  (581) 
nan

>  <ATP_Site>  (581) 
nan

>  <Peripheral>  (581) 
nan

>  <Num_H_Atoms_ProtBoundConf>  (581) 
nan

>  <Num_Resolved_Atoms>  (581) 
nan

>  <Num_Not_Resolved_Atoms>  (581) 
nan

$$$$
CHEMBL4097816
     RDKit          3D

  0  0  0  0  0  0  0  0  0  0999 V3000
M  V30 BEGIN CTAB
M  V30 COUNTS 51 55 0 0 0
M  V30 BEGIN ATOM
M  V30 1 C 0.952383 -1.546283 4.325248 0
M  V30 2 C 0.787248 -3.060287 4.104394 0 CFG=2
M  V30 3 C 1.305647 -3.335282 2.722580 0
M  V30 4 N 0.294937 -3.065555 1.711248 0
M  V30 5 C 0.576789 -2.014938 0.793505 0
M  V30 6 O 1.685776 -1.551661 1.120599 0
M  V30 7 C -0.239484 -1.552466 -0.310521 0
M  V30 8 N 0.011149 -0.281587 -0.743161 0
M  V30 9 C -0.667335 0.240442 -1.764113 0
M  V30 10 N -0.423314 1.598323 -2.184906 0
M  V30 11 C 0.335856 2.280850 -1.201705 0
M  V30 12 C 1.463893 2.119511 -0.446578 0
M  V30 13 C 1.485005 3.241700 0.352215 0
M  V30 14 C 2.533593 3.475305 1.377766 0
M  V30 15 C 2.678859 2.353601 2.374000 0
M  V30 16 C 3.755812 2.675489 1.375023 0
M  V30 17 N 0.434505 4.049110 0.102847 0
M  V30 18 N -0.250422 3.453796 -0.839792 0
M  V30 19 C -1.642564 -0.511590 -2.399714 0
M  V30 20 C -2.401689 -0.049474 -3.458515 0
M  V30 21 C -3.379853 -0.812570 -4.072288 0
M  V30 22 Cl -4.292695 -0.131191 -5.407101 0
M  V30 23 C -3.622366 -2.113883 -3.611512 0
M  V30 24 C -2.874298 -2.609440 -2.547126 0
M  V30 25 C -1.898225 -1.802630 -1.959240 0
M  V30 26 N -1.182845 -2.289038 -0.918575 0
M  V30 27 C -0.796713 -4.001270 1.941590 0
M  V30 28 C -1.354121 -3.943439 3.314905 0
M  V30 29 N -0.570752 -3.358639 4.334420 0
M  V30 30 H 0.529187 -1.228457 5.300087 0
M  V30 31 H 0.413442 -0.959776 3.548442 0
M  V30 32 H 2.021514 -1.277366 4.228717 0
M  V30 33 H 1.513421 -3.525052 4.817593 0
M  V30 34 H 2.243438 -2.780013 2.527017 0
M  V30 35 H 1.586788 -4.402728 2.609642 0
M  V30 36 H -0.724459 2.051380 -3.064193 0
M  V30 37 H 2.059634 1.248525 -0.597489 0
M  V30 38 H 2.529825 4.491338 1.799206 0
M  V30 39 H 2.878129 2.677872 3.430064 0
M  V30 40 H 2.044215 1.473328 2.244305 0
M  V30 41 H 4.700300 3.130501 1.754811 0
M  V30 42 H 3.923031 1.859970 0.639447 0
M  V30 43 H 0.183677 4.963593 0.547697 0
M  V30 44 H -2.181149 0.955865 -3.780448 0
M  V30 45 H -4.398700 -2.731732 -4.087850 0
M  V30 46 H -3.071034 -3.606837 -2.212848 0
M  V30 47 H -0.365071 -5.015794 1.737759 0
M  V30 48 H -1.520993 -3.848629 1.114940 0
M  V30 49 H -1.780171 -4.938502 3.615811 0
M  V30 50 H -2.287833 -3.298526 3.233815 0
M  V30 51 H -0.754264 -3.822569 5.232642 0
M  V30 END ATOM
M  V30 BEGIN BOND
M  V30 1 1 1 2
M  V30 2 1 2 3
M  V30 3 1 3 4
M  V30 4 1 4 5
M  V30 5 2 5 6
M  V30 6 1 5 7
M  V30 7 2 7 8
M  V30 8 1 8 9
M  V30 9 1 9 10
M  V30 10 1 10 11
M  V30 11 1 11 12
M  V30 12 2 12 13
M  V30 13 1 13 14
M  V30 14 1 14 15
M  V30 15 1 15 16
M  V30 16 1 13 17
M  V30 17 1 17 18
M  V30 18 2 9 19
M  V30 19 1 19 20
M  V30 20 2 20 21
M  V30 21 1 21 22
M  V30 22 1 21 23
M  V30 23 2 23 24
M  V30 24 1 24 25
M  V30 25 2 25 26
M  V30 26 1 4 27
M  V30 27 1 27 28
M  V30 28 1 28 29
M  V30 29 1 29 2
M  V30 30 1 26 7
M  V30 31 2 18 11
M  V30 32 1 25 19
M  V30 33 1 16 14
M  V30 34 1 1 30
M  V30 35 1 1 31
M  V30 36 1 1 32
M  V30 37 1 2 33 CFG=1
M  V30 38 1 3 34
M  V30 39 1 3 35
M  V30 40 1 10 36
M  V30 41 1 12 37
M  V30 42 1 14 38
M  V30 43 1 15 39
M  V30 44 1 15 40
M  V30 45 1 16 41
M  V30 46 1 16 42
M  V30 47 1 17 43
M  V30 48 1 20 44
M  V30 49 1 23 45
M  V30 50 1 24 46
M  V30 51 1 27 47
M  V30 52 1 27 48
M  V30 53 1 28 49
M  V30 54 1 28 50
M  V30 55 1 29 51
M  V30 END BOND
M  V30 END CTAB
M  END
>  <Dataset>  (582) 
ChEMBL_Kinases

>  <Ligand_Instance>  (582) 
nan

>  <PDB_ID>  (582) 
nan

>  <Standardized_SMILES>  (582) 
C[C@@H]1CN(C(=O)c2nc(Nc3cc(C4CC4)[nH]n3)c3cc(Cl)ccc3n2)CCN1

>  <Name>  (582) 
nan

>  <Pocket>  (582) 
nan

>  <ATP_Site>  (582) 
nan

>  <Peripheral>  (582) 
nan

>  <Num_H_Atoms_ProtBoundConf>  (582) 
nan

>  <Num_Resolved_Atoms>  (582) 
nan

>  <Num_Not_Resolved_Atoms>  (582) 
nan

$$$$
CHEMBL482747
     RDKit          3D

  0  0  0  0  0  0  0  0  0  0999 V3000
M  V30 BEGIN CTAB
M  V30 COUNTS 41 43 0 0 0
M  V30 BEGIN ATOM
M  V30 1 C -2.561745 3.766924 -1.011572 0
M  V30 2 C -2.009290 2.698485 -1.891264 0
M  V30 3 C -1.145288 1.726404 -1.422937 0
M  V30 4 C -0.872629 0.946258 -2.524368 0
M  V30 5 C -0.056287 -0.164382 -2.588779 0
M  V30 6 C 0.703955 -0.761486 -1.496086 0
M  V30 7 C 0.626954 -2.151636 -1.409816 0
M  V30 8 C 1.284170 -2.901349 -0.433609 0
M  V30 9 C 2.057891 -2.236238 0.505551 0
M  V30 10 S 2.927029 -3.018980 1.768322 0
M  V30 11 O 4.134857 -2.187594 2.118292 0
M  V30 12 O 3.413119 -4.377069 1.360461 0
M  V30 13 N 2.006977 -3.198379 3.213858 0
M  V30 14 C 1.589235 -1.967396 3.804593 0
M  V30 15 C 0.780477 -2.208409 5.079391 0
M  V30 16 N -0.370008 -2.980744 4.728324 0
M  V30 17 C 2.136169 -0.840666 0.420233 0
M  V30 18 C 1.478404 -0.117018 -0.553182 0
M  V30 19 C 0.055800 -0.783509 -3.828755 0
M  V30 20 C -0.622289 -0.299529 -4.932350 0
M  V30 21 N -1.405578 0.788171 -4.812454 0
M  V30 22 C -1.537236 1.408828 -3.637167 0
M  V30 23 N -2.231847 2.496274 -3.206314 0
M  V30 24 H -1.789495 4.250523 -0.405992 0
M  V30 25 H -3.123747 4.519161 -1.593904 0
M  V30 26 H -3.274389 3.311674 -0.293770 0
M  V30 27 H -0.777452 1.618450 -0.416062 0
M  V30 28 H 0.041582 -2.752335 -2.107138 0
M  V30 29 H 1.210545 -3.966847 -0.386979 0
M  V30 30 H 2.527940 -3.750643 3.929039 0
M  V30 31 H 2.436342 -1.288424 4.027125 0
M  V30 32 H 0.923706 -1.441156 3.118592 0
M  V30 33 H 1.434582 -2.877838 5.703471 0
M  V30 34 H 0.591319 -1.271871 5.611317 0
M  V30 35 H -1.273418 -2.570864 5.062816 0
M  V30 36 H -0.293607 -3.998396 4.873657 0
M  V30 37 H 2.730502 -0.259553 1.132151 0
M  V30 38 H 1.513377 0.944823 -0.651006 0
M  V30 39 H 0.646941 -1.650340 -4.040438 0
M  V30 40 H -0.600734 -0.703952 -5.923559 0
M  V30 41 H -2.857189 3.108267 -3.786971 0
M  V30 END ATOM
M  V30 BEGIN BOND
M  V30 1 1 1 2
M  V30 2 2 2 3
M  V30 3 1 3 4
M  V30 4 2 4 5
M  V30 5 1 5 6
M  V30 6 2 6 7
M  V30 7 1 7 8
M  V30 8 2 8 9
M  V30 9 1 9 10
M  V30 10 2 10 11
M  V30 11 2 10 12
M  V30 12 1 10 13
M  V30 13 1 13 14
M  V30 14 1 14 15
M  V30 15 1 15 16
M  V30 16 1 9 17
M  V30 17 2 17 18
M  V30 18 1 5 19
M  V30 19 2 19 20
M  V30 20 1 20 21
M  V30 21 2 21 22
M  V30 22 1 22 23
M  V30 23 1 23 2
M  V30 24 1 22 4
M  V30 25 1 18 6
M  V30 26 1 1 24
M  V30 27 1 1 25
M  V30 28 1 1 26
M  V30 29 1 3 27
M  V30 30 1 7 28
M  V30 31 1 8 29
M  V30 32 1 13 30
M  V30 33 1 14 31
M  V30 34 1 14 32
M  V30 35 1 15 33
M  V30 36 1 15 34
M  V30 37 1 16 35
M  V30 38 1 16 36
M  V30 39 1 17 37
M  V30 40 1 18 38
M  V30 41 1 19 39
M  V30 42 1 20 40
M  V30 43 1 23 41
M  V30 END BOND
M  V30 END CTAB
M  END
>  <Dataset>  (583) 
ChEMBL_Kinases

>  <Ligand_Instance>  (583) 
nan

>  <PDB_ID>  (583) 
nan

>  <Standardized_SMILES>  (583) 
Cc1cc2c(-c3ccc(S(=O)(=O)NCCN)cc3)ccnc2[nH]1

>  <Name>  (583) 
nan

>  <Pocket>  (583) 
nan

>  <ATP_Site>  (583) 
nan

>  <Peripheral>  (583) 
nan

>  <Num_H_Atoms_ProtBoundConf>  (583) 
nan

>  <Num_Resolved_Atoms>  (583) 
nan

>  <Num_Not_Resolved_Atoms>  (583) 
nan

$$$$
CHEMBL3577635
     RDKit          3D

  0  0  0  0  0  0  0  0  0  0999 V3000
M  V30 BEGIN CTAB
M  V30 COUNTS 63 67 0 0 0
M  V30 BEGIN ATOM
M  V30 1 C 6.001258 1.963223 3.870436 0
M  V30 2 O 5.087865 1.605092 2.875997 0
M  V30 3 C 4.721191 2.356664 1.775197 0
M  V30 4 C 5.194239 3.617281 1.470151 0
M  V30 5 C 4.666278 4.109194 0.344410 0
M  V30 6 C 3.799595 3.747653 -0.606470 0
M  V30 7 C 3.354642 2.452826 -0.225110 0
M  V30 8 N 2.364554 1.582708 -0.825526 0
M  V30 9 C 2.739682 0.730202 -1.871288 0
M  V30 10 O 3.778651 0.439663 -2.543096 0
M  V30 11 C 1.562868 -0.081384 -2.330418 0
M  V30 12 C 1.271867 -1.023006 -3.288332 0
M  V30 13 C -0.146911 -1.408043 -3.180194 0
M  V30 14 C -1.051377 -1.316989 -4.268079 0
M  V30 15 C -2.300229 -1.721532 -3.915235 0
M  V30 16 C -2.699913 -2.179378 -2.647567 0
M  V30 17 O -4.064766 -2.521100 -2.465674 0
M  V30 18 C -4.547272 -3.002847 -1.260952 0
M  V30 19 C -4.145223 -4.427497 -0.955847 0
M  V30 20 O -3.729154 -5.578106 -0.879735 0
M  V30 21 N -4.777481 -4.565028 0.354236 0
M  V30 22 C -4.957438 -5.511746 1.424894 0
M  V30 23 C -5.901633 -6.463469 2.037337 0
M  V30 24 C -5.291530 -6.902278 3.055445 0
M  V30 25 C -4.219570 -6.952287 3.875597 0
M  V30 26 Cl -4.034763 -7.861581 5.319890 0
M  V30 27 C -3.292348 -6.040196 3.287854 0
M  V30 28 C -3.694745 -5.362970 2.100493 0
M  V30 29 C -1.796704 -2.257609 -1.640676 0
M  V30 30 C -0.519977 -1.855274 -1.948031 0
M  V30 31 N 0.577483 0.456566 -1.409369 0
M  V30 32 C 0.993614 1.318872 -0.626674 0
M  V30 33 C 0.458985 2.163409 0.464161 0
M  V30 34 C 0.627383 1.561224 1.724089 0
M  V30 35 C 0.174347 2.257342 2.863488 0
M  V30 36 C -0.436658 3.520263 2.763046 0
M  V30 37 C -0.505825 3.919897 1.482397 0
M  V30 38 C -0.143921 3.426501 0.298164 0
M  V30 39 C 3.778424 1.737877 0.923248 0
M  V30 40 H 6.116990 3.082714 3.793859 0
M  V30 41 H 5.648194 1.698677 4.900493 0
M  V30 42 H 7.001645 1.545597 3.652666 0
M  V30 43 H 5.890061 4.125842 2.082666 0
M  V30 44 H 4.964962 5.118113 -0.005859 0
M  V30 45 H 3.232168 3.835763 -1.490836 0
M  V30 46 H 2.173527 -1.172072 -3.823599 0
M  V30 47 H -0.764605 -0.973677 -5.237815 0
M  V30 48 H -3.112615 -1.694161 -4.640077 0
M  V30 49 H -5.562172 -2.738610 -1.015019 0
M  V30 50 H -3.922495 -2.384093 -0.492616 0
M  V30 51 H -5.367852 -3.802714 0.897205 0
M  V30 52 H -6.663196 -6.323567 1.322807 0
M  V30 53 H -6.110488 -7.604392 3.431796 0
M  V30 54 H -2.368007 -5.959133 3.830865 0
M  V30 55 H -2.803522 -4.751492 1.876736 0
M  V30 56 H -2.037440 -2.590104 -0.657512 0
M  V30 57 H 0.185465 -1.914209 -1.103401 0
M  V30 58 H 1.093298 0.574872 1.857651 0
M  V30 59 H 0.357476 1.698407 3.787999 0
M  V30 60 H -0.716975 3.912861 3.695942 0
M  V30 61 H -0.997062 4.922603 1.394767 0
M  V30 62 H -0.238197 3.789329 -0.702856 0
M  V30 63 H 3.449887 0.736741 1.242175 0
M  V30 END ATOM
M  V30 BEGIN BOND
M  V30 1 1 1 2
M  V30 2 1 2 3
M  V30 3 2 3 4
M  V30 4 1 4 5
M  V30 5 2 5 6
M  V30 6 1 6 7
M  V30 7 1 7 8
M  V30 8 1 8 9
M  V30 9 2 9 10
M  V30 10 1 9 11
M  V30 11 2 11 12
M  V30 12 1 12 13
M  V30 13 2 13 14
M  V30 14 1 14 15
M  V30 15 2 15 16
M  V30 16 1 16 17
M  V30 17 1 17 18
M  V30 18 1 18 19
M  V30 19 2 19 20
M  V30 20 1 19 21
M  V30 21 1 21 22
M  V30 22 2 22 23
M  V30 23 1 23 24
M  V30 24 2 24 25
M  V30 25 1 25 26
M  V30 26 1 25 27
M  V30 27 2 27 28
M  V30 28 1 16 29
M  V30 29 2 29 30
M  V30 30 1 11 31
M  V30 31 2 31 32
M  V30 32 1 32 33
M  V30 33 2 33 34
M  V30 34 1 34 35
M  V30 35 2 35 36
M  V30 36 1 36 37
M  V30 37 2 37 38
M  V30 38 2 7 39
M  V30 39 1 39 3
M  V30 40 1 32 8
M  V30 41 1 38 33
M  V30 42 1 30 13
M  V30 43 1 28 22
M  V30 44 1 1 40
M  V30 45 1 1 41
M  V30 46 1 1 42
M  V30 47 1 4 43
M  V30 48 1 5 44
M  V30 49 1 6 45
M  V30 50 1 12 46
M  V30 51 1 14 47
M  V30 52 1 15 48
M  V30 53 1 18 49
M  V30 54 1 18 50
M  V30 55 1 21 51
M  V30 56 1 23 52
M  V30 57 1 24 53
M  V30 58 1 27 54
M  V30 59 1 28 55
M  V30 60 1 29 56
M  V30 61 1 30 57
M  V30 62 1 34 58
M  V30 63 1 35 59
M  V30 64 1 36 60
M  V30 65 1 37 61
M  V30 66 1 38 62
M  V30 67 1 39 63
M  V30 END BOND
M  V30 END CTAB
M  END
>  <Dataset>  (584) 
ChEMBL_Kinases

>  <Ligand_Instance>  (584) 
nan

>  <PDB_ID>  (584) 
nan

>  <Standardized_SMILES>  (584) 
COc1cccc(N2C(=O)/C(=C/c3ccc(OCC(=O)Nc4ccc(Cl)cc4)cc3)N=C2c2ccccc2)c1

>  <Name>  (584) 
nan

>  <Pocket>  (584) 
nan

>  <ATP_Site>  (584) 
nan

>  <Peripheral>  (584) 
nan

>  <Num_H_Atoms_ProtBoundConf>  (584) 
nan

>  <Num_Resolved_Atoms>  (584) 
nan

>  <Num_Not_Resolved_Atoms>  (584) 
nan

$$$$
CHEMBL3577634
     RDKit          3D

  0  0  0  0  0  0  0  0  0  0999 V3000
M  V30 BEGIN CTAB
M  V30 COUNTS 63 67 0 0 0
M  V30 BEGIN ATOM
M  V30 1 C 7.565830 -1.855032 2.742360 0
M  V30 2 O 6.321308 -1.637030 2.109556 0
M  V30 3 C 5.834664 -0.367703 1.843055 0
M  V30 4 C 6.583676 0.720630 2.201577 0
M  V30 5 C 6.064788 1.977544 1.921035 0
M  V30 6 C 4.841132 2.155844 1.304067 0
M  V30 7 C 4.087685 1.057995 0.943382 0
M  V30 8 N 2.812082 1.055910 0.314943 0
M  V30 9 C 2.586432 1.115656 -1.090634 0
M  V30 10 O 3.378529 1.187733 -2.039393 0
M  V30 11 C 1.129299 1.070759 -1.184129 0
M  V30 12 C 0.344132 1.108261 -2.267953 0
M  V30 13 C -1.117662 1.052472 -2.202174 0
M  V30 14 C -2.009365 1.784903 -2.955977 0
M  V30 15 C -3.369762 1.630388 -2.805759 0
M  V30 16 C -3.913792 0.730672 -1.889225 0
M  V30 17 O -5.289440 0.613523 -1.775954 0
M  V30 18 C -5.937800 -0.273943 -0.888854 0
M  V30 19 C -5.530432 -1.681029 -1.259773 0
M  V30 20 O -4.790091 -2.268805 -2.122720 0
M  V30 21 N -6.093331 -2.723318 -0.460969 0
M  V30 22 C -5.604657 -3.991382 -0.945340 0
M  V30 23 C -6.207825 -4.758893 -1.916803 0
M  V30 24 C -5.594037 -5.944591 -2.255172 0
M  V30 25 C -4.416289 -6.327361 -1.627754 0
M  V30 26 C -3.805948 -5.547232 -0.642006 0
M  V30 27 Cl -2.324824 -6.159625 0.058886 0
M  V30 28 C -4.435149 -4.360344 -0.314626 0
M  V30 29 C -2.994538 0.013762 -1.150838 0
M  V30 30 C -1.624881 0.149374 -1.281617 0
M  V30 31 N 0.664572 0.990900 0.147136 0
M  V30 32 C 1.582777 0.980431 1.020178 0
M  V30 33 C 1.219336 0.892455 2.423665 0
M  V30 34 C 1.881936 1.505224 3.461885 0
M  V30 35 C 1.547485 1.422976 4.794810 0
M  V30 36 C 0.450997 0.661231 5.136990 0
M  V30 37 C -0.275017 0.009104 4.157776 0
M  V30 38 C 0.125154 0.142920 2.852180 0
M  V30 39 C 4.627048 -0.199555 1.234162 0
M  V30 40 H 7.794404 -1.118539 3.526008 0
M  V30 41 H 7.529773 -2.849313 3.258258 0
M  V30 42 H 8.362020 -1.855239 1.965974 0
M  V30 43 H 7.539316 0.706951 2.680430 0
M  V30 44 H 6.615232 2.870185 2.181564 0
M  V30 45 H 4.399234 3.111416 1.067985 0
M  V30 46 H 0.837170 1.184998 -3.241638 0
M  V30 47 H -1.534141 2.461978 -3.645846 0
M  V30 48 H -4.008927 2.246601 -3.440566 0
M  V30 49 H -5.701559 -0.123881 0.164415 0
M  V30 50 H -7.037171 -0.221476 -1.018997 0
M  V30 51 H -6.751698 -2.626444 0.346965 0
M  V30 52 H -7.121674 -4.357530 -2.332470 0
M  V30 53 H -6.068535 -6.547807 -3.018703 0
M  V30 54 H -3.967412 -7.267406 -1.924319 0
M  V30 55 H -3.920343 -3.798063 0.452647 0
M  V30 56 H -3.374961 -0.705036 -0.408614 0
M  V30 57 H -1.007159 -0.482819 -0.635566 0
M  V30 58 H 2.742486 2.114191 3.247099 0
M  V30 59 H 2.105900 1.926175 5.566020 0
M  V30 60 H 0.149681 0.567833 6.172298 0
M  V30 61 H -1.153882 -0.606468 4.400335 0
M  V30 62 H -0.470060 -0.386337 2.096691 0
M  V30 63 H 4.072817 -1.111362 0.970348 0
M  V30 END ATOM
M  V30 BEGIN BOND
M  V30 1 1 1 2
M  V30 2 1 2 3
M  V30 3 2 3 4
M  V30 4 1 4 5
M  V30 5 2 5 6
M  V30 6 1 6 7
M  V30 7 1 7 8
M  V30 8 1 8 9
M  V30 9 2 9 10
M  V30 10 1 9 11
M  V30 11 2 11 12
M  V30 12 1 12 13
M  V30 13 2 13 14
M  V30 14 1 14 15
M  V30 15 2 15 16
M  V30 16 1 16 17
M  V30 17 1 17 18
M  V30 18 1 18 19
M  V30 19 2 19 20
M  V30 20 1 19 21
M  V30 21 1 21 22
M  V30 22 2 22 23
M  V30 23 1 23 24
M  V30 24 2 24 25
M  V30 25 1 25 26
M  V30 26 1 26 27
M  V30 27 2 26 28
M  V30 28 1 16 29
M  V30 29 2 29 30
M  V30 30 1 11 31
M  V30 31 2 31 32
M  V30 32 1 32 33
M  V30 33 2 33 34
M  V30 34 1 34 35
M  V30 35 2 35 36
M  V30 36 1 36 37
M  V30 37 2 37 38
M  V30 38 2 7 39
M  V30 39 1 39 3
M  V30 40 1 32 8
M  V30 41 1 38 33
M  V30 42 1 30 13
M  V30 43 1 28 22
M  V30 44 1 1 40
M  V30 45 1 1 41
M  V30 46 1 1 42
M  V30 47 1 4 43
M  V30 48 1 5 44
M  V30 49 1 6 45
M  V30 50 1 12 46
M  V30 51 1 14 47
M  V30 52 1 15 48
M  V30 53 1 18 49
M  V30 54 1 18 50
M  V30 55 1 21 51
M  V30 56 1 23 52
M  V30 57 1 24 53
M  V30 58 1 25 54
M  V30 59 1 28 55
M  V30 60 1 29 56
M  V30 61 1 30 57
M  V30 62 1 34 58
M  V30 63 1 35 59
M  V30 64 1 36 60
M  V30 65 1 37 61
M  V30 66 1 38 62
M  V30 67 1 39 63
M  V30 END BOND
M  V30 END CTAB
M  END
>  <Dataset>  (585) 
ChEMBL_Kinases

>  <Ligand_Instance>  (585) 
nan

>  <PDB_ID>  (585) 
nan

>  <Standardized_SMILES>  (585) 
COc1cccc(N2C(=O)/C(=C/c3ccc(OCC(=O)Nc4cccc(Cl)c4)cc3)N=C2c2ccccc2)c1

>  <Name>  (585) 
nan

>  <Pocket>  (585) 
nan

>  <ATP_Site>  (585) 
nan

>  <Peripheral>  (585) 
nan

>  <Num_H_Atoms_ProtBoundConf>  (585) 
nan

>  <Num_Resolved_Atoms>  (585) 
nan

>  <Num_Not_Resolved_Atoms>  (585) 
nan

$$$$
CHEMBL3577633
     RDKit          3D

  0  0  0  0  0  0  0  0  0  0999 V3000
M  V30 BEGIN CTAB
M  V30 COUNTS 63 67 0 0 0
M  V30 BEGIN ATOM
M  V30 1 C 8.737559 1.130772 3.006363 0
M  V30 2 O 7.546013 0.803547 2.319074 0
M  V30 3 C 6.506856 1.739724 2.309436 0
M  V30 4 C 6.614704 2.957761 2.942928 0
M  V30 5 C 5.571826 3.850821 2.910481 0
M  V30 6 C 4.381741 3.583093 2.254986 0
M  V30 7 C 4.242145 2.365816 1.607916 0
M  V30 8 N 3.161070 1.817039 0.864193 0
M  V30 9 C 2.953556 1.988774 -0.551349 0
M  V30 10 O 3.616917 2.619134 -1.379880 0
M  V30 11 C 1.729229 1.225432 -0.838193 0
M  V30 12 C 1.094077 1.049977 -2.010054 0
M  V30 13 C -0.126976 0.243460 -2.079405 0
M  V30 14 C -1.061171 0.345775 -1.051807 0
M  V30 15 C -2.232733 -0.421025 -1.086978 0
M  V30 16 C -2.373179 -1.250602 -2.181921 0
M  V30 17 O -3.529321 -2.012512 -2.222941 0
M  V30 18 C -4.524752 -1.967718 -1.223609 0
M  V30 19 C -5.591166 -2.924595 -1.610999 0
M  V30 20 O -5.139705 -3.388383 -2.708639 0
M  V30 21 N -6.778363 -3.225504 -0.930707 0
M  V30 22 C -7.516877 -4.204191 -1.651200 0
M  V30 23 C -8.493147 -4.109916 -2.617486 0
M  V30 24 C -9.049641 -5.242747 -3.166510 0
M  V30 25 C -8.638095 -6.500899 -2.757269 0
M  V30 26 C -7.649985 -6.640381 -1.779041 0
M  V30 27 C -7.104441 -5.478538 -1.240958 0
M  V30 28 Cl -5.878278 -5.833745 -0.026976 0
M  V30 29 C -1.493700 -1.403820 -3.233932 0
M  V30 30 C -0.343043 -0.614298 -3.145697 0
M  V30 31 N 1.307969 0.668072 0.398177 0
M  V30 32 C 2.109080 0.998683 1.355479 0
M  V30 33 C 1.834337 0.504153 2.695896 0
M  V30 34 C 2.021745 1.191217 3.865595 0
M  V30 35 C 1.782349 0.759485 5.141472 0
M  V30 36 C 1.286849 -0.538005 5.270735 0
M  V30 37 C 1.067562 -1.301455 4.156246 0
M  V30 38 C 1.335011 -0.795210 2.879070 0
M  V30 39 C 5.310776 1.450559 1.640772 0
M  V30 40 H 9.201560 1.985694 2.463829 0
M  V30 41 H 8.570010 1.444629 4.040041 0
M  V30 42 H 9.438251 0.264995 3.031631 0
M  V30 43 H 7.518753 3.218481 3.468317 0
M  V30 44 H 5.587441 4.837308 3.392475 0
M  V30 45 H 3.499786 4.182281 2.152466 0
M  V30 46 H 1.603805 1.568517 -2.828338 0
M  V30 47 H -0.956754 0.991523 -0.200412 0
M  V30 48 H -2.983236 -0.376513 -0.318635 0
M  V30 49 H -4.122238 -2.278987 -0.238305 0
M  V30 50 H -4.985204 -0.975915 -1.101974 0
M  V30 51 H -6.929342 -2.702396 -0.036202 0
M  V30 52 H -8.707121 -3.069146 -2.830701 0
M  V30 53 H -9.799868 -5.030426 -3.908822 0
M  V30 54 H -9.138733 -7.328652 -3.251966 0
M  V30 55 H -7.392663 -7.637526 -1.524670 0
M  V30 56 H -1.702774 -2.086028 -4.045007 0
M  V30 57 H 0.397618 -0.690684 -3.951440 0
M  V30 58 H 2.400665 2.199582 3.806519 0
M  V30 59 H 1.946543 1.338154 6.021537 0
M  V30 60 H 1.078650 -0.932250 6.251823 0
M  V30 61 H 0.684600 -2.296526 4.305483 0
M  V30 62 H 1.137891 -1.454736 2.036986 0
M  V30 63 H 5.310096 0.456301 1.162389 0
M  V30 END ATOM
M  V30 BEGIN BOND
M  V30 1 1 1 2
M  V30 2 1 2 3
M  V30 3 2 3 4
M  V30 4 1 4 5
M  V30 5 2 5 6
M  V30 6 1 6 7
M  V30 7 1 7 8
M  V30 8 1 8 9
M  V30 9 2 9 10
M  V30 10 1 9 11
M  V30 11 2 11 12
M  V30 12 1 12 13
M  V30 13 2 13 14
M  V30 14 1 14 15
M  V30 15 2 15 16
M  V30 16 1 16 17
M  V30 17 1 17 18
M  V30 18 1 18 19
M  V30 19 2 19 20
M  V30 20 1 19 21
M  V30 21 1 21 22
M  V30 22 2 22 23
M  V30 23 1 23 24
M  V30 24 2 24 25
M  V30 25 1 25 26
M  V30 26 2 26 27
M  V30 27 1 27 28
M  V30 28 1 16 29
M  V30 29 2 29 30
M  V30 30 1 11 31
M  V30 31 2 31 32
M  V30 32 1 32 33
M  V30 33 2 33 34
M  V30 34 1 34 35
M  V30 35 2 35 36
M  V30 36 1 36 37
M  V30 37 2 37 38
M  V30 38 2 7 39
M  V30 39 1 39 3
M  V30 40 1 32 8
M  V30 41 1 38 33
M  V30 42 1 30 13
M  V30 43 1 27 22
M  V30 44 1 1 40
M  V30 45 1 1 41
M  V30 46 1 1 42
M  V30 47 1 4 43
M  V30 48 1 5 44
M  V30 49 1 6 45
M  V30 50 1 12 46
M  V30 51 1 14 47
M  V30 52 1 15 48
M  V30 53 1 18 49
M  V30 54 1 18 50
M  V30 55 1 21 51
M  V30 56 1 23 52
M  V30 57 1 24 53
M  V30 58 1 25 54
M  V30 59 1 26 55
M  V30 60 1 29 56
M  V30 61 1 30 57
M  V30 62 1 34 58
M  V30 63 1 35 59
M  V30 64 1 36 60
M  V30 65 1 37 61
M  V30 66 1 38 62
M  V30 67 1 39 63
M  V30 END BOND
M  V30 END CTAB
M  END
>  <Dataset>  (586) 
ChEMBL_Kinases

>  <Ligand_Instance>  (586) 
nan

>  <PDB_ID>  (586) 
nan

>  <Standardized_SMILES>  (586) 
COc1cccc(N2C(=O)/C(=C/c3ccc(OCC(=O)Nc4ccccc4Cl)cc3)N=C2c2ccccc2)c1

>  <Name>  (586) 
nan

>  <Pocket>  (586) 
nan

>  <ATP_Site>  (586) 
nan

>  <Peripheral>  (586) 
nan

>  <Num_H_Atoms_ProtBoundConf>  (586) 
nan

>  <Num_Resolved_Atoms>  (586) 
nan

>  <Num_Not_Resolved_Atoms>  (586) 
nan

$$$$
CHEMBL4848796
     RDKit          3D

  0  0  0  0  0  0  0  0  0  0999 V3000
M  V30 BEGIN CTAB
M  V30 COUNTS 55 57 0 0 0
M  V30 BEGIN ATOM
M  V30 1 C 2.036014 -5.887268 1.830911 0
M  V30 2 O 1.131456 -5.947742 0.772127 0
M  V30 3 C 1.056652 -4.672031 0.219402 0 CFG=1
M  V30 4 C 1.477777 -4.639295 -1.224539 0
M  V30 5 C 0.790030 -3.542475 -1.970839 0
M  V30 6 C 0.549762 -2.308899 -1.139219 0 CFG=2
M  V30 7 N 1.769986 -1.599738 -0.795245 0
M  V30 8 C 1.861923 -0.383321 -0.026171 0
M  V30 9 N 3.066226 0.148883 0.213658 0
M  V30 10 C 3.174431 1.282264 0.927336 0
M  V30 11 C 1.998117 1.833910 1.376140 0
M  V30 12 C 2.162228 3.056387 2.140220 0
M  V30 13 N 3.393709 3.681563 2.438938 0
M  V30 14 O 1.555989 3.957149 2.761533 0
M  V30 15 C 0.738722 1.324749 1.155503 0
M  V30 16 N -0.452338 1.928657 1.643452 0
M  V30 17 C -1.750615 1.326534 1.353916 0 CFG=1
M  V30 18 C -2.801061 2.148659 2.012334 0
M  V30 19 C -3.981920 2.520623 1.188187 0
M  V30 20 C -4.357091 1.271194 0.378693 0
M  V30 21 C -3.267955 1.216345 -0.669358 0 CFG=2
M  V30 22 O -3.561396 0.149781 -1.537997 0
M  V30 23 C -1.904346 1.118521 -0.111305 0
M  V30 24 N 0.742695 0.193323 0.433834 0
M  V30 25 C -0.232146 -2.611507 0.118613 0
M  V30 26 C -0.357770 -4.130900 0.253875 0
M  V30 27 H 2.170209 -6.850288 2.341301 0
M  V30 28 H 3.027103 -5.612812 1.385337 0
M  V30 29 H 1.776326 -5.058993 2.530154 0
M  V30 30 H 1.740087 -4.009314 0.794733 0
M  V30 31 H 1.126488 -5.607886 -1.683156 0
M  V30 32 H 2.582350 -4.653589 -1.366840 0
M  V30 33 H -0.180669 -3.837452 -2.418510 0
M  V30 34 H 1.467944 -3.237208 -2.797841 0
M  V30 35 H -0.070103 -1.619914 -1.748621 0
M  V30 36 H 2.647054 -2.042060 -1.156380 0
M  V30 37 H 4.148682 1.710049 1.119754 0
M  V30 38 H 3.964015 4.380913 1.942110 0
M  V30 39 H 4.055409 3.596675 3.249733 0
M  V30 40 H -0.374869 2.801609 2.206337 0
M  V30 41 H -1.733080 0.332679 1.848393 0
M  V30 42 H -2.380880 3.101641 2.427934 0
M  V30 43 H -3.214312 1.638422 2.929923 0
M  V30 44 H -4.805526 2.817173 1.851425 0
M  V30 45 H -3.721519 3.322353 0.459144 0
M  V30 46 H -4.254152 0.417115 1.050405 0
M  V30 47 H -5.313618 1.385635 -0.128034 0
M  V30 48 H -3.402921 2.129553 -1.284862 0
M  V30 49 H -2.728813 -0.296138 -1.831155 0
M  V30 50 H -1.268035 1.905213 -0.609884 0
M  V30 51 H -1.456552 0.167080 -0.465558 0
M  V30 52 H 0.350284 -2.279062 1.002927 0
M  V30 53 H -1.216522 -2.129934 0.158818 0
M  V30 54 H -0.882283 -4.389636 1.187024 0
M  V30 55 H -0.946094 -4.458124 -0.631361 0
M  V30 END ATOM
M  V30 BEGIN BOND
M  V30 1 1 1 2
M  V30 2 1 2 3
M  V30 3 1 3 4
M  V30 4 1 4 5
M  V30 5 1 5 6
M  V30 6 1 6 7
M  V30 7 1 7 8
M  V30 8 2 8 9
M  V30 9 1 9 10
M  V30 10 2 10 11
M  V30 11 1 11 12
M  V30 12 1 12 13
M  V30 13 2 12 14
M  V30 14 1 11 15
M  V30 15 1 15 16
M  V30 16 1 16 17
M  V30 17 1 17 18
M  V30 18 1 18 19
M  V30 19 1 19 20
M  V30 20 1 20 21
M  V30 21 1 21 22
M  V30 22 1 21 23
M  V30 23 2 15 24
M  V30 24 1 6 25
M  V30 25 1 25 26
M  V30 26 1 26 3
M  V30 27 1 24 8
M  V30 28 1 23 17
M  V30 29 1 1 27
M  V30 30 1 1 28
M  V30 31 1 1 29
M  V30 32 1 3 30 CFG=1
M  V30 33 1 4 31
M  V30 34 1 4 32
M  V30 35 1 5 33
M  V30 36 1 5 34
M  V30 37 1 6 35 CFG=3
M  V30 38 1 7 36
M  V30 39 1 10 37
M  V30 40 1 13 38
M  V30 41 1 13 39
M  V30 42 1 16 40
M  V30 43 1 17 41 CFG=1
M  V30 44 1 18 42
M  V30 45 1 18 43
M  V30 46 1 19 44
M  V30 47 1 19 45
M  V30 48 1 20 46
M  V30 49 1 20 47
M  V30 50 1 21 48 CFG=3
M  V30 51 1 22 49
M  V30 52 1 23 50
M  V30 53 1 23 51
M  V30 54 1 25 52
M  V30 55 1 25 53
M  V30 56 1 26 54
M  V30 57 1 26 55
M  V30 END BOND
M  V30 END CTAB
M  END
>  <Dataset>  (587) 
ChEMBL_Kinases

>  <Ligand_Instance>  (587) 
nan

>  <PDB_ID>  (587) 
nan

>  <Standardized_SMILES>  (587) 
CO[C@H]1CC[C@H](Nc2ncc(C(N)=O)c(N[C@H]3CCC[C@H](O)C3)n2)CC1

>  <Name>  (587) 
nan

>  <Pocket>  (587) 
nan

>  <ATP_Site>  (587) 
nan

>  <Peripheral>  (587) 
nan

>  <Num_H_Atoms_ProtBoundConf>  (587) 
nan

>  <Num_Resolved_Atoms>  (587) 
nan

>  <Num_Not_Resolved_Atoms>  (587) 
nan

$$$$
CHEMBL3577632
     RDKit          3D

  0  0  0  0  0  0  0  0  0  0999 V3000
M  V30 BEGIN CTAB
M  V30 COUNTS 67 71 0 0 0
M  V30 BEGIN ATOM
M  V30 1 C 8.204411 -2.122383 3.690280 0
M  V30 2 O 7.755662 -1.315287 2.605892 0
M  V30 3 C 7.089593 -0.134889 2.881482 0
M  V30 4 C 6.909715 0.174306 4.211114 0
M  V30 5 C 6.235522 1.368637 4.450135 0
M  V30 6 C 5.821672 2.111784 3.365273 0
M  V30 7 N 5.150354 3.340647 3.701954 0
M  V30 8 C 3.803769 2.781275 3.741883 0
M  V30 9 O 3.665638 1.519891 3.490832 0
M  V30 10 C 2.440630 3.345062 4.022306 0
M  V30 11 O 1.535306 2.280744 3.893637 0
M  V30 12 C 1.371491 1.661014 2.671601 0
M  V30 13 C 0.440255 0.631192 2.851573 0
M  V30 14 C 0.056186 -0.190326 1.784778 0
M  V30 15 C 0.580759 -0.013040 0.523365 0
M  V30 16 C 0.207496 -0.847345 -0.607314 0
M  V30 17 C -1.002560 -1.332424 -0.832704 0
M  V30 18 N -2.117707 -1.116797 -0.012906 0
M  V30 19 C -3.163608 -1.708861 -0.469859 0
M  V30 20 C -4.507430 -1.732397 0.079551 0
M  V30 21 C -5.452730 -2.706656 0.061889 0
M  V30 22 C -6.684294 -2.479300 0.663034 0
M  V30 23 C -7.027288 -1.302229 1.295507 0
M  V30 24 C -6.074374 -0.306258 1.319618 0
M  V30 25 C -4.859915 -0.539123 0.722700 0
M  V30 26 N -2.871025 -2.403050 -1.669708 0
M  V30 27 C -3.524490 -3.210679 -2.637467 0
M  V30 28 C -3.591702 -4.607089 -2.608029 0
M  V30 29 C -4.239891 -5.341626 -3.575836 0
M  V30 30 C -4.826933 -4.613078 -4.588713 0
M  V30 31 C -4.803742 -3.235245 -4.686999 0
M  V30 32 O -5.449140 -2.667893 -5.776250 0
M  V30 33 C -5.436499 -1.244345 -5.895198 0
M  V30 34 C -4.138482 -2.563290 -3.685839 0
M  V30 35 C -1.472381 -2.181071 -1.938195 0
M  V30 36 O -0.671107 -2.538596 -2.840402 0
M  V30 37 C 1.493811 1.008311 0.377597 0
M  V30 38 C 1.890394 1.831261 1.405905 0
M  V30 39 C 6.009484 1.788266 2.042466 0
M  V30 40 C 6.679683 0.601123 1.811482 0
M  V30 41 H 8.707112 -3.031658 3.297578 0
M  V30 42 H 7.303044 -2.377492 4.319114 0
M  V30 43 H 8.974435 -1.583658 4.300422 0
M  V30 44 H 7.248271 -0.434985 5.033266 0
M  V30 45 H 6.055891 1.678640 5.470036 0
M  V30 46 H 4.838957 4.293067 3.936940 0
M  V30 47 H 2.387626 3.812652 5.035751 0
M  V30 48 H 2.183479 4.157787 3.301528 0
M  V30 49 H -0.094963 0.319901 3.763510 0
M  V30 50 H -0.660645 -1.004254 1.859748 0
M  V30 51 H 0.988402 -1.100379 -1.340056 0
M  V30 52 H -5.163295 -3.611348 -0.431110 0
M  V30 53 H -7.412839 -3.296236 0.622223 0
M  V30 54 H -8.010993 -1.215184 1.735433 0
M  V30 55 H -6.338226 0.614327 1.813311 0
M  V30 56 H -4.180661 0.324600 0.805149 0
M  V30 57 H -3.101084 -5.100486 -1.770030 0
M  V30 58 H -4.272034 -6.413680 -3.520627 0
M  V30 59 H -5.337847 -5.198487 -5.349809 0
M  V30 60 H -4.438709 -0.816367 -5.688592 0
M  V30 61 H -6.130435 -0.782917 -5.147375 0
M  V30 62 H -5.848085 -0.931654 -6.883398 0
M  V30 63 H -4.127998 -1.484634 -3.776188 0
M  V30 64 H 1.966429 1.231758 -0.573041 0
M  V30 65 H 2.584990 2.655928 1.359751 0
M  V30 66 H 5.624282 2.477000 1.312583 0
M  V30 67 H 6.839125 0.327310 0.778220 0
M  V30 END ATOM
M  V30 BEGIN BOND
M  V30 1 1 1 2
M  V30 2 1 2 3
M  V30 3 2 3 4
M  V30 4 1 4 5
M  V30 5 2 5 6
M  V30 6 1 6 7
M  V30 7 1 7 8
M  V30 8 2 8 9
M  V30 9 1 8 10
M  V30 10 1 10 11
M  V30 11 1 11 12
M  V30 12 2 12 13
M  V30 13 1 13 14
M  V30 14 2 14 15
M  V30 15 1 15 16
M  V30 16 2 16 17
M  V30 17 1 17 18
M  V30 18 2 18 19
M  V30 19 1 19 20
M  V30 20 2 20 21
M  V30 21 1 21 22
M  V30 22 2 22 23
M  V30 23 1 23 24
M  V30 24 2 24 25
M  V30 25 1 19 26
M  V30 26 1 26 27
M  V30 27 2 27 28
M  V30 28 1 28 29
M  V30 29 2 29 30
M  V30 30 1 30 31
M  V30 31 1 31 32
M  V30 32 1 32 33
M  V30 33 2 31 34
M  V30 34 1 26 35
M  V30 35 2 35 36
M  V30 36 1 15 37
M  V30 37 2 37 38
M  V30 38 1 6 39
M  V30 39 2 39 40
M  V30 40 1 40 3
M  V30 41 1 38 12
M  V30 42 1 35 17
M  V30 43 1 25 20
M  V30 44 1 34 27
M  V30 45 1 1 41
M  V30 46 1 1 42
M  V30 47 1 1 43
M  V30 48 1 4 44
M  V30 49 1 5 45
M  V30 50 1 7 46
M  V30 51 1 10 47
M  V30 52 1 10 48
M  V30 53 1 13 49
M  V30 54 1 14 50
M  V30 55 1 16 51
M  V30 56 1 21 52
M  V30 57 1 22 53
M  V30 58 1 23 54
M  V30 59 1 24 55
M  V30 60 1 25 56
M  V30 61 1 28 57
M  V30 62 1 29 58
M  V30 63 1 30 59
M  V30 64 1 33 60
M  V30 65 1 33 61
M  V30 66 1 33 62
M  V30 67 1 34 63
M  V30 68 1 37 64
M  V30 69 1 38 65
M  V30 70 1 39 66
M  V30 71 1 40 67
M  V30 END BOND
M  V30 END CTAB
M  END
>  <Dataset>  (588) 
ChEMBL_Kinases

>  <Ligand_Instance>  (588) 
nan

>  <PDB_ID>  (588) 
nan

>  <Standardized_SMILES>  (588) 
COc1ccc(NC(=O)COc2ccc(/C=C3\N=C(c4ccccc4)N(c4cccc(OC)c4)C3=O)cc2)cc1

>  <Name>  (588) 
nan

>  <Pocket>  (588) 
nan

>  <ATP_Site>  (588) 
nan

>  <Peripheral>  (588) 
nan

>  <Num_H_Atoms_ProtBoundConf>  (588) 
nan

>  <Num_Resolved_Atoms>  (588) 
nan

>  <Num_Not_Resolved_Atoms>  (588) 
nan

$$$$
CHEMBL3577631
     RDKit          3D

  0  0  0  0  0  0  0  0  0  0999 V3000
M  V30 BEGIN CTAB
M  V30 COUNTS 67 71 0 0 0
M  V30 BEGIN ATOM
M  V30 1 C 9.980394 -3.574336 4.066930 0
M  V30 2 O 8.937466 -2.689893 4.407510 0
M  V30 3 C 7.616834 -3.027185 4.095214 0
M  V30 4 C 7.284670 -4.202097 3.460355 0
M  V30 5 C 5.941234 -4.458072 3.186919 0
M  V30 6 C 4.950925 -3.565213 3.537368 0
M  V30 7 C 5.248748 -2.378903 4.174454 0
M  V30 8 N 4.361200 -1.357792 4.602365 0
M  V30 9 C 3.879232 -0.187758 3.911143 0
M  V30 10 O 4.411922 -0.220836 2.780907 0
M  V30 11 C 2.964724 0.517712 4.877256 0
M  V30 12 O 2.447594 1.686113 4.272224 0
M  V30 13 C 1.683761 1.667168 3.117369 0
M  V30 14 C 1.276956 0.597360 2.348753 0
M  V30 15 C 0.514278 0.795963 1.227487 0
M  V30 16 C 0.136407 2.043871 0.838345 0
M  V30 17 C -0.676111 2.368279 -0.328348 0
M  V30 18 C -1.700141 1.653592 -0.745916 0
M  V30 19 N -2.177711 0.478769 -0.152253 0
M  V30 20 C -3.199409 0.018439 -0.796261 0
M  V30 21 C -3.915750 -1.187754 -0.425696 0
M  V30 22 C -5.249895 -1.466865 -0.537099 0
M  V30 23 C -5.796571 -2.669404 -0.144210 0
M  V30 24 C -5.001443 -3.658542 0.387972 0
M  V30 25 C -3.645470 -3.456691 0.534264 0
M  V30 26 C -3.161112 -2.233417 0.122468 0
M  V30 27 N -3.513314 0.845376 -1.898145 0
M  V30 28 C -4.500669 0.814136 -2.917767 0
M  V30 29 C -5.736086 1.467431 -2.828905 0
M  V30 30 C -6.688407 1.430139 -3.823223 0
M  V30 31 C -6.348351 0.695480 -4.938171 0
M  V30 32 C -5.165610 0.014781 -5.131763 0
M  V30 33 O -4.908422 -0.702474 -6.292897 0
M  V30 34 C -5.970233 -0.670542 -7.258704 0
M  V30 35 C -4.253783 0.102034 -4.078361 0
M  V30 36 C -2.560108 1.922963 -1.901886 0
M  V30 37 O -2.425431 2.909078 -2.680878 0
M  V30 38 C 0.537010 3.147404 1.602241 0
M  V30 39 C 1.316684 2.967932 2.752223 0
M  V30 40 C 6.600046 -2.131205 4.444483 0
M  V30 41 H 10.967766 -3.045904 4.181923 0
M  V30 42 H 9.930860 -3.953225 3.034465 0
M  V30 43 H 10.046619 -4.423251 4.801565 0
M  V30 44 H 8.069233 -4.891581 3.191612 0
M  V30 45 H 5.668556 -5.377619 2.688503 0
M  V30 46 H 3.893465 -3.713161 3.349635 0
M  V30 47 H 4.190438 -1.750891 5.569454 0
M  V30 48 H 3.548144 0.757280 5.784728 0
M  V30 49 H 2.103335 -0.129613 5.136224 0
M  V30 50 H 1.609470 -0.346113 2.712937 0
M  V30 51 H 0.202767 -0.034655 0.636943 0
M  V30 52 H -0.431416 3.269301 -0.913828 0
M  V30 53 H -5.861884 -0.684646 -0.951607 0
M  V30 54 H -6.864695 -2.805406 -0.268901 0
M  V30 55 H -5.454716 -4.591232 0.687886 0
M  V30 56 H -2.983206 -4.199689 0.945119 0
M  V30 57 H -2.079894 -2.091709 0.247022 0
M  V30 58 H -5.917671 2.024647 -1.909690 0
M  V30 59 H -7.633237 1.945395 -3.725460 0
M  V30 60 H -7.117813 0.673084 -5.726358 0
M  V30 61 H -6.917772 -1.043702 -6.809266 0
M  V30 62 H -6.180141 0.404271 -7.536191 0
M  V30 63 H -5.693423 -1.194273 -8.176992 0
M  V30 64 H -3.320192 -0.445986 -4.252141 0
M  V30 65 H 0.245299 4.169372 1.310719 0
M  V30 66 H 1.579188 3.885142 3.280864 0
M  V30 67 H 6.915623 -1.211088 4.947846 0
M  V30 END ATOM
M  V30 BEGIN BOND
M  V30 1 1 1 2
M  V30 2 1 2 3
M  V30 3 2 3 4
M  V30 4 1 4 5
M  V30 5 2 5 6
M  V30 6 1 6 7
M  V30 7 1 7 8
M  V30 8 1 8 9
M  V30 9 2 9 10
M  V30 10 1 9 11
M  V30 11 1 11 12
M  V30 12 1 12 13
M  V30 13 2 13 14
M  V30 14 1 14 15
M  V30 15 2 15 16
M  V30 16 1 16 17
M  V30 17 2 17 18
M  V30 18 1 18 19
M  V30 19 2 19 20
M  V30 20 1 20 21
M  V30 21 2 21 22
M  V30 22 1 22 23
M  V30 23 2 23 24
M  V30 24 1 24 25
M  V30 25 2 25 26
M  V30 26 1 20 27
M  V30 27 1 27 28
M  V30 28 2 28 29
M  V30 29 1 29 30
M  V30 30 2 30 31
M  V30 31 1 31 32
M  V30 32 1 32 33
M  V30 33 1 33 34
M  V30 34 2 32 35
M  V30 35 1 27 36
M  V30 36 2 36 37
M  V30 37 1 16 38
M  V30 38 2 38 39
M  V30 39 2 7 40
M  V30 40 1 40 3
M  V30 41 1 39 13
M  V30 42 1 36 18
M  V30 43 1 26 21
M  V30 44 1 35 28
M  V30 45 1 1 41
M  V30 46 1 1 42
M  V30 47 1 1 43
M  V30 48 1 4 44
M  V30 49 1 5 45
M  V30 50 1 6 46
M  V30 51 1 8 47
M  V30 52 1 11 48
M  V30 53 1 11 49
M  V30 54 1 14 50
M  V30 55 1 15 51
M  V30 56 1 17 52
M  V30 57 1 22 53
M  V30 58 1 23 54
M  V30 59 1 24 55
M  V30 60 1 25 56
M  V30 61 1 26 57
M  V30 62 1 29 58
M  V30 63 1 30 59
M  V30 64 1 31 60
M  V30 65 1 34 61
M  V30 66 1 34 62
M  V30 67 1 34 63
M  V30 68 1 35 64
M  V30 69 1 38 65
M  V30 70 1 39 66
M  V30 71 1 40 67
M  V30 END BOND
M  V30 END CTAB
M  END
>  <Dataset>  (589) 
ChEMBL_Kinases

>  <Ligand_Instance>  (589) 
nan

>  <PDB_ID>  (589) 
nan

>  <Standardized_SMILES>  (589) 
COc1cccc(NC(=O)COc2ccc(/C=C3\N=C(c4ccccc4)N(c4cccc(OC)c4)C3=O)cc2)c1

>  <Name>  (589) 
nan

>  <Pocket>  (589) 
nan

>  <ATP_Site>  (589) 
nan

>  <Peripheral>  (589) 
nan

>  <Num_H_Atoms_ProtBoundConf>  (589) 
nan

>  <Num_Resolved_Atoms>  (589) 
nan

>  <Num_Not_Resolved_Atoms>  (589) 
nan

$$$$
CHEMBL3577567
     RDKit          3D

  0  0  0  0  0  0  0  0  0  0999 V3000
M  V30 BEGIN CTAB
M  V30 COUNTS 67 71 0 0 0
M  V30 BEGIN ATOM
M  V30 1 C 7.302669 4.665306 4.586096 0
M  V30 2 O 6.121391 4.379385 3.897234 0
M  V30 3 C 6.082062 3.539215 2.801341 0
M  V30 4 C 7.180267 2.897034 2.266621 0
M  V30 5 C 7.080481 2.058298 1.157064 0
M  V30 6 C 5.811739 1.914649 0.631770 0
M  V30 7 C 4.679968 2.536087 1.130879 0
M  V30 8 N 3.510101 2.217662 0.410888 0
M  V30 9 C 2.914818 2.874051 -0.728384 0
M  V30 10 O 3.357125 3.883735 -1.288410 0
M  V30 11 C 1.728048 2.066854 -1.012275 0
M  V30 12 C 0.867369 2.286695 -2.005607 0
M  V30 13 C -0.263379 1.340526 -2.098402 0
M  V30 14 C -0.886030 1.051910 -0.882089 0
M  V30 15 C -1.954786 0.171892 -0.746098 0
M  V30 16 C -2.391513 -0.429292 -1.917821 0
M  V30 17 O -3.456494 -1.331078 -1.895197 0
M  V30 18 C -4.053987 -1.582574 -0.660000 0
M  V30 19 C -5.147939 -2.575858 -0.736755 0
M  V30 20 O -4.915634 -2.658266 -1.987772 0
M  V30 21 N -5.977870 -3.078979 0.294150 0
M  V30 22 C -6.863765 -4.030053 -0.335933 0
M  V30 23 C -8.094487 -3.840187 -0.911979 0
M  V30 24 C -8.735908 -4.927192 -1.451525 0
M  V30 25 C -8.168939 -6.178296 -1.420475 0
M  V30 26 C -6.917395 -6.408797 -0.841369 0
M  V30 27 C -6.264849 -5.299926 -0.292137 0
M  V30 28 O -5.027393 -5.580538 0.269887 0
M  V30 29 C -4.429381 -6.836885 0.314058 0
M  V30 30 C -1.805630 -0.173493 -3.152868 0
M  V30 31 C -0.744187 0.711911 -3.229356 0
M  V30 32 N 1.679672 1.020877 -0.071995 0
M  V30 33 C 2.675021 1.089523 0.736888 0
M  V30 34 C 2.762855 0.052507 1.753905 0
M  V30 35 C 3.111413 0.199300 3.080693 0
M  V30 36 C 3.189019 -0.840224 3.973926 0
M  V30 37 C 2.912297 -2.125286 3.572957 0
M  V30 38 C 2.557547 -2.369144 2.274375 0
M  V30 39 C 2.495708 -1.291936 1.422750 0
M  V30 40 C 4.832266 3.367855 2.244962 0
M  V30 41 H 8.148096 4.777044 3.875096 0
M  V30 42 H 7.533344 3.885279 5.337210 0
M  V30 43 H 7.241309 5.619517 5.147647 0
M  V30 44 H 8.147511 3.060184 2.735883 0
M  V30 45 H 7.959460 1.569436 0.761482 0
M  V30 46 H 5.804793 1.248197 -0.230242 0
M  V30 47 H 1.091439 3.152623 -2.650689 0
M  V30 48 H -0.616774 1.478886 0.077570 0
M  V30 49 H -2.443311 -0.061134 0.177586 0
M  V30 50 H -3.284822 -1.975675 0.031024 0
M  V30 51 H -4.442784 -0.638745 -0.220336 0
M  V30 52 H -5.771732 -2.669678 1.226158 0
M  V30 53 H -8.415952 -2.830879 -0.870030 0
M  V30 54 H -9.701941 -4.750222 -1.898286 0
M  V30 55 H -8.654815 -7.050885 -1.839424 0
M  V30 56 H -6.484798 -7.402900 -0.825709 0
M  V30 57 H -3.338444 -6.688470 0.555988 0
M  V30 58 H -4.417158 -7.380489 -0.669709 0
M  V30 59 H -4.899294 -7.516618 1.073220 0
M  V30 60 H -2.135333 -0.636328 -4.074906 0
M  V30 61 H -0.222400 0.975519 -4.138078 0
M  V30 62 H 3.327515 1.205252 3.407771 0
M  V30 63 H 3.465705 -0.683154 5.004062 0
M  V30 64 H 2.957238 -2.978251 4.230325 0
M  V30 65 H 2.317222 -3.327037 1.822896 0
M  V30 66 H 2.215403 -1.439146 0.369295 0
M  V30 67 H 3.879015 3.790188 2.534971 0
M  V30 END ATOM
M  V30 BEGIN BOND
M  V30 1 1 1 2
M  V30 2 1 2 3
M  V30 3 2 3 4
M  V30 4 1 4 5
M  V30 5 2 5 6
M  V30 6 1 6 7
M  V30 7 1 7 8
M  V30 8 1 8 9
M  V30 9 2 9 10
M  V30 10 1 9 11
M  V30 11 2 11 12
M  V30 12 1 12 13
M  V30 13 2 13 14
M  V30 14 1 14 15
M  V30 15 2 15 16
M  V30 16 1 16 17
M  V30 17 1 17 18
M  V30 18 1 18 19
M  V30 19 2 19 20
M  V30 20 1 19 21
M  V30 21 1 21 22
M  V30 22 2 22 23
M  V30 23 1 23 24
M  V30 24 2 24 25
M  V30 25 1 25 26
M  V30 26 2 26 27
M  V30 27 1 27 28
M  V30 28 1 28 29
M  V30 29 1 16 30
M  V30 30 2 30 31
M  V30 31 1 11 32
M  V30 32 2 32 33
M  V30 33 1 33 34
M  V30 34 2 34 35
M  V30 35 1 35 36
M  V30 36 2 36 37
M  V30 37 1 37 38
M  V30 38 2 38 39
M  V30 39 2 7 40
M  V30 40 1 40 3
M  V30 41 1 33 8
M  V30 42 1 39 34
M  V30 43 1 31 13
M  V30 44 1 27 22
M  V30 45 1 1 41
M  V30 46 1 1 42
M  V30 47 1 1 43
M  V30 48 1 4 44
M  V30 49 1 5 45
M  V30 50 1 6 46
M  V30 51 1 12 47
M  V30 52 1 14 48
M  V30 53 1 15 49
M  V30 54 1 18 50
M  V30 55 1 18 51
M  V30 56 1 21 52
M  V30 57 1 23 53
M  V30 58 1 24 54
M  V30 59 1 25 55
M  V30 60 1 26 56
M  V30 61 1 29 57
M  V30 62 1 29 58
M  V30 63 1 29 59
M  V30 64 1 30 60
M  V30 65 1 31 61
M  V30 66 1 35 62
M  V30 67 1 36 63
M  V30 68 1 37 64
M  V30 69 1 38 65
M  V30 70 1 39 66
M  V30 71 1 40 67
M  V30 END BOND
M  V30 END CTAB
M  END
>  <Dataset>  (590) 
ChEMBL_Kinases

>  <Ligand_Instance>  (590) 
nan

>  <PDB_ID>  (590) 
nan

>  <Standardized_SMILES>  (590) 
COc1cccc(N2C(=O)/C(=C/c3ccc(OCC(=O)Nc4ccccc4OC)cc3)N=C2c2ccccc2)c1

>  <Name>  (590) 
nan

>  <Pocket>  (590) 
nan

>  <ATP_Site>  (590) 
nan

>  <Peripheral>  (590) 
nan

>  <Num_H_Atoms_ProtBoundConf>  (590) 
nan

>  <Num_Resolved_Atoms>  (590) 
nan

>  <Num_Not_Resolved_Atoms>  (590) 
nan

$$$$
CHEMBL3577566
     RDKit          3D

  0  0  0  0  0  0  0  0  0  0999 V3000
M  V30 BEGIN CTAB
M  V30 COUNTS 66 70 0 0 0
M  V30 BEGIN ATOM
M  V30 1 C 8.617463 0.899363 -2.320964 0
M  V30 2 O 7.225298 0.881865 -2.368066 0
M  V30 3 C 6.421016 0.852953 -1.251590 0
M  V30 4 C 7.053105 0.843066 -0.026445 0
M  V30 5 C 6.257237 0.812646 1.094693 0
M  V30 6 C 4.896319 0.794248 0.940475 0
M  V30 7 C 4.207689 0.803178 -0.245703 0
M  V30 8 N 2.811173 0.795567 -0.423126 0
M  V30 9 C 2.072917 0.718162 -1.633107 0
M  V30 10 O 2.475522 0.640904 -2.809958 0
M  V30 11 C 0.646060 0.739704 -1.340137 0
M  V30 12 C -0.401927 0.668899 -2.160362 0
M  V30 13 C -1.739906 0.721022 -1.528233 0
M  V30 14 C -1.984504 1.631261 -0.511496 0
M  V30 15 C -3.203016 1.720031 0.127360 0
M  V30 16 C -4.203200 0.857132 -0.278888 0
M  V30 17 O -5.437770 0.903265 0.321084 0
M  V30 18 C -6.493714 -0.000569 -0.049675 0
M  V30 19 C -5.978139 -1.372271 0.299954 0
M  V30 20 O -4.837584 -1.638306 0.820601 0
M  V30 21 N -6.652626 -2.625719 0.120063 0
M  V30 22 C -5.640557 -3.512838 0.640336 0
M  V30 23 C -4.743526 -3.968997 -0.294976 0
M  V30 24 C -3.726260 -4.816259 0.086250 0
M  V30 25 C -3.677513 -5.157879 1.420323 0
M  V30 26 C -2.603503 -6.066207 1.894604 0
M  V30 27 C -4.586260 -4.690015 2.342492 0
M  V30 28 C -5.607485 -3.843915 1.977465 0
M  V30 29 C -3.968726 -0.049618 -1.288271 0
M  V30 30 C -2.734906 -0.143757 -1.939826 0
M  V30 31 N 0.595561 0.832878 0.082679 0
M  V30 32 C 1.801655 0.862543 0.563496 0
M  V30 33 C 1.851268 0.948280 2.009553 0
M  V30 34 C 1.607048 -0.272907 2.613834 0
M  V30 35 C 1.567109 -0.478931 3.954630 0
M  V30 36 C 1.781128 0.583599 4.829403 0
M  V30 37 C 2.028693 1.822537 4.228465 0
M  V30 38 C 2.067230 2.022196 2.875131 0
M  V30 39 C 5.030050 0.833449 -1.346053 0
M  V30 40 H 9.072341 1.869959 -2.043526 0
M  V30 41 H 9.021442 0.148135 -1.581519 0
M  V30 42 H 8.992220 0.675759 -3.344226 0
M  V30 43 H 8.112498 0.858411 0.092229 0
M  V30 44 H 6.735953 0.804966 2.059395 0
M  V30 45 H 4.337788 0.758808 1.860180 0
M  V30 46 H -0.152646 0.579979 -3.216355 0
M  V30 47 H -1.220013 2.337290 -0.155909 0
M  V30 48 H -3.392636 2.438738 0.928357 0
M  V30 49 H -6.677833 0.100524 -1.138376 0
M  V30 50 H -7.435795 0.241718 0.470025 0
M  V30 51 H -7.618691 -2.558892 -0.305562 0
M  V30 52 H -4.760876 -3.715214 -1.346691 0
M  V30 53 H -2.995305 -5.202456 -0.609308 0
M  V30 54 H -2.552163 -6.114017 2.995086 0
M  V30 55 H -1.603813 -5.723855 1.501900 0
M  V30 56 H -2.786420 -7.108730 1.548404 0
M  V30 57 H -4.522905 -4.976813 3.394471 0
M  V30 58 H -6.348577 -3.445910 2.654389 0
M  V30 59 H -4.676635 -0.762402 -1.699043 0
M  V30 60 H -2.520684 -0.850226 -2.740235 0
M  V30 61 H 1.418607 -1.215144 2.076729 0
M  V30 62 H 1.380908 -1.411134 4.464117 0
M  V30 63 H 1.786469 0.607492 5.906206 0
M  V30 64 H 2.217836 2.766909 4.746868 0
M  V30 65 H 2.247686 2.926380 2.332815 0
M  V30 66 H 4.705609 0.844861 -2.359197 0
M  V30 END ATOM
M  V30 BEGIN BOND
M  V30 1 1 1 2
M  V30 2 1 2 3
M  V30 3 2 3 4
M  V30 4 1 4 5
M  V30 5 2 5 6
M  V30 6 1 6 7
M  V30 7 1 7 8
M  V30 8 1 8 9
M  V30 9 2 9 10
M  V30 10 1 9 11
M  V30 11 2 11 12
M  V30 12 1 12 13
M  V30 13 2 13 14
M  V30 14 1 14 15
M  V30 15 2 15 16
M  V30 16 1 16 17
M  V30 17 1 17 18
M  V30 18 1 18 19
M  V30 19 2 19 20
M  V30 20 1 19 21
M  V30 21 1 21 22
M  V30 22 2 22 23
M  V30 23 1 23 24
M  V30 24 2 24 25
M  V30 25 1 25 26
M  V30 26 1 25 27
M  V30 27 2 27 28
M  V30 28 1 16 29
M  V30 29 2 29 30
M  V30 30 1 11 31
M  V30 31 2 31 32
M  V30 32 1 32 33
M  V30 33 2 33 34
M  V30 34 1 34 35
M  V30 35 2 35 36
M  V30 36 1 36 37
M  V30 37 2 37 38
M  V30 38 2 7 39
M  V30 39 1 39 3
M  V30 40 1 32 8
M  V30 41 1 38 33
M  V30 42 1 30 13
M  V30 43 1 28 22
M  V30 44 1 1 40
M  V30 45 1 1 41
M  V30 46 1 1 42
M  V30 47 1 4 43
M  V30 48 1 5 44
M  V30 49 1 6 45
M  V30 50 1 12 46
M  V30 51 1 14 47
M  V30 52 1 15 48
M  V30 53 1 18 49
M  V30 54 1 18 50
M  V30 55 1 21 51
M  V30 56 1 23 52
M  V30 57 1 24 53
M  V30 58 1 26 54
M  V30 59 1 26 55
M  V30 60 1 26 56
M  V30 61 1 27 57
M  V30 62 1 28 58
M  V30 63 1 29 59
M  V30 64 1 30 60
M  V30 65 1 34 61
M  V30 66 1 35 62
M  V30 67 1 36 63
M  V30 68 1 37 64
M  V30 69 1 38 65
M  V30 70 1 39 66
M  V30 END BOND
M  V30 END CTAB
M  END
>  <Dataset>  (591) 
ChEMBL_Kinases

>  <Ligand_Instance>  (591) 
nan

>  <PDB_ID>  (591) 
nan

>  <Standardized_SMILES>  (591) 
COc1cccc(N2C(=O)/C(=C/c3ccc(OCC(=O)Nc4ccc(C)cc4)cc3)N=C2c2ccccc2)c1

>  <Name>  (591) 
nan

>  <Pocket>  (591) 
nan

>  <ATP_Site>  (591) 
nan

>  <Peripheral>  (591) 
nan

>  <Num_H_Atoms_ProtBoundConf>  (591) 
nan

>  <Num_Resolved_Atoms>  (591) 
nan

>  <Num_Not_Resolved_Atoms>  (591) 
nan

$$$$
CHEMBL3577565
     RDKit          3D

  0  0  0  0  0  0  0  0  0  0999 V3000
M  V30 BEGIN CTAB
M  V30 COUNTS 66 70 0 0 0
M  V30 BEGIN ATOM
M  V30 1 C 6.829385 2.241743 -4.454200 0
M  V30 2 O 7.234696 2.178270 -3.130552 0
M  V30 3 C 6.491084 1.930269 -2.014223 0
M  V30 4 C 7.336381 1.963876 -0.900716 0
M  V30 5 C 6.770630 1.731402 0.370813 0
M  V30 6 C 5.425535 1.494373 0.378769 0
M  V30 7 C 4.557150 1.450816 -0.676753 0
M  V30 8 N 3.168073 1.231648 -0.699904 0
M  V30 9 C 2.284363 1.018508 -1.787564 0
M  V30 10 O 2.561323 0.973757 -2.993476 0
M  V30 11 C 0.915708 0.849333 -1.244576 0
M  V30 12 C -0.160548 0.642843 -1.954450 0
M  V30 13 C -1.410661 0.507292 -1.206799 0
M  V30 14 C -1.711750 1.265303 -0.093145 0
M  V30 15 C -2.884041 1.155083 0.630322 0
M  V30 16 C -3.838967 0.236143 0.241383 0
M  V30 17 O -4.973918 0.209855 1.038674 0
M  V30 18 C -6.029860 -0.696308 0.763823 0
M  V30 19 C -5.530911 -2.112128 0.865531 0
M  V30 20 O -4.407196 -2.664808 1.138020 0
M  V30 21 N -6.442332 -3.196107 0.619377 0
M  V30 22 C -5.647191 -4.391030 0.796402 0
M  V30 23 C -4.916648 -5.047198 -0.161650 0
M  V30 24 C -4.207969 -6.181927 0.222520 0
M  V30 25 C -4.268099 -6.591997 1.517503 0
M  V30 26 C -4.995656 -5.955198 2.505935 0
M  V30 27 C -4.953966 -6.533369 3.863946 0
M  V30 28 C -5.693837 -4.827019 2.107572 0
M  V30 29 C -3.562718 -0.533227 -0.868324 0
M  V30 30 C -2.390593 -0.416191 -1.584169 0
M  V30 31 N 1.120796 0.981606 0.145750 0
M  V30 32 C 2.358120 1.192670 0.447623 0
M  V30 33 C 2.503212 1.328901 1.885803 0
M  V30 34 C 2.216819 0.258620 2.714427 0
M  V30 35 C 2.258913 0.228649 4.096459 0
M  V30 36 C 2.631283 1.413194 4.680530 0
M  V30 37 C 2.936184 2.534760 3.963577 0
M  V30 38 C 2.869228 2.479586 2.595890 0
M  V30 39 C 5.146385 1.680315 -1.894229 0
M  V30 40 H 5.969363 1.574697 -4.648926 0
M  V30 41 H 6.676262 3.283927 -4.827691 0
M  V30 42 H 7.702077 1.845171 -5.059904 0
M  V30 43 H 8.411362 2.150289 -0.862488 0
M  V30 44 H 7.333967 1.738642 1.286326 0
M  V30 45 H 4.999875 1.296828 1.347584 0
M  V30 46 H -0.081988 0.582961 -3.029497 0
M  V30 47 H -0.992515 2.009820 0.258598 0
M  V30 48 H -3.024021 1.799756 1.498735 0
M  V30 49 H -6.529919 -0.504922 -0.173140 0
M  V30 50 H -6.758188 -0.558479 1.602154 0
M  V30 51 H -7.467147 -3.046487 0.366203 0
M  V30 52 H -4.996699 -4.571259 -1.115233 0
M  V30 53 H -3.654432 -6.642911 -0.579349 0
M  V30 54 H -3.668445 -7.492339 1.691310 0
M  V30 55 H -5.443685 -5.871692 4.620372 0
M  V30 56 H -3.882588 -6.665667 4.203511 0
M  V30 57 H -5.503607 -7.510829 3.929112 0
M  V30 58 H -6.250095 -4.367628 2.924809 0
M  V30 59 H -4.326790 -1.237489 -1.158598 0
M  V30 60 H -2.225631 -1.047558 -2.453374 0
M  V30 61 H 1.924146 -0.664255 2.215261 0
M  V30 62 H 2.009719 -0.669247 4.619310 0
M  V30 63 H 2.691744 1.473360 5.764700 0
M  V30 64 H 3.218698 3.433681 4.487360 0
M  V30 65 H 3.104098 3.348933 1.964179 0
M  V30 66 H 4.732812 1.706082 -2.880004 0
M  V30 END ATOM
M  V30 BEGIN BOND
M  V30 1 1 1 2
M  V30 2 1 2 3
M  V30 3 2 3 4
M  V30 4 1 4 5
M  V30 5 2 5 6
M  V30 6 1 6 7
M  V30 7 1 7 8
M  V30 8 1 8 9
M  V30 9 2 9 10
M  V30 10 1 9 11
M  V30 11 2 11 12
M  V30 12 1 12 13
M  V30 13 2 13 14
M  V30 14 1 14 15
M  V30 15 2 15 16
M  V30 16 1 16 17
M  V30 17 1 17 18
M  V30 18 1 18 19
M  V30 19 2 19 20
M  V30 20 1 19 21
M  V30 21 1 21 22
M  V30 22 2 22 23
M  V30 23 1 23 24
M  V30 24 2 24 25
M  V30 25 1 25 26
M  V30 26 1 26 27
M  V30 27 2 26 28
M  V30 28 1 16 29
M  V30 29 2 29 30
M  V30 30 1 11 31
M  V30 31 2 31 32
M  V30 32 1 32 33
M  V30 33 2 33 34
M  V30 34 1 34 35
M  V30 35 2 35 36
M  V30 36 1 36 37
M  V30 37 2 37 38
M  V30 38 2 7 39
M  V30 39 1 39 3
M  V30 40 1 32 8
M  V30 41 1 38 33
M  V30 42 1 30 13
M  V30 43 1 28 22
M  V30 44 1 1 40
M  V30 45 1 1 41
M  V30 46 1 1 42
M  V30 47 1 4 43
M  V30 48 1 5 44
M  V30 49 1 6 45
M  V30 50 1 12 46
M  V30 51 1 14 47
M  V30 52 1 15 48
M  V30 53 1 18 49
M  V30 54 1 18 50
M  V30 55 1 21 51
M  V30 56 1 23 52
M  V30 57 1 24 53
M  V30 58 1 25 54
M  V30 59 1 27 55
M  V30 60 1 27 56
M  V30 61 1 27 57
M  V30 62 1 28 58
M  V30 63 1 29 59
M  V30 64 1 30 60
M  V30 65 1 34 61
M  V30 66 1 35 62
M  V30 67 1 36 63
M  V30 68 1 37 64
M  V30 69 1 38 65
M  V30 70 1 39 66
M  V30 END BOND
M  V30 END CTAB
M  END
>  <Dataset>  (592) 
ChEMBL_Kinases

>  <Ligand_Instance>  (592) 
nan

>  <PDB_ID>  (592) 
nan

>  <Standardized_SMILES>  (592) 
COc1cccc(N2C(=O)/C(=C/c3ccc(OCC(=O)Nc4cccc(C)c4)cc3)N=C2c2ccccc2)c1

>  <Name>  (592) 
nan

>  <Pocket>  (592) 
nan

>  <ATP_Site>  (592) 
nan

>  <Peripheral>  (592) 
nan

>  <Num_H_Atoms_ProtBoundConf>  (592) 
nan

>  <Num_Resolved_Atoms>  (592) 
nan

>  <Num_Not_Resolved_Atoms>  (592) 
nan

$$$$
CHEMBL3577564
     RDKit          3D

  0  0  0  0  0  0  0  0  0  0999 V3000
M  V30 BEGIN CTAB
M  V30 COUNTS 66 70 0 0 0
M  V30 BEGIN ATOM
M  V30 1 C 8.491126 2.382827 -2.866385 0
M  V30 2 O 7.064216 2.246981 -2.861851 0
M  V30 3 C 6.456344 1.796688 -1.704574 0
M  V30 4 C 7.182521 1.486153 -0.587112 0
M  V30 5 C 6.509151 1.044730 0.519278 0
M  V30 6 C 5.145897 0.928700 0.474132 0
M  V30 7 C 4.338819 1.216363 -0.597261 0
M  V30 8 N 2.938874 1.123449 -0.663709 0
M  V30 9 C 2.042750 1.246918 -1.755842 0
M  V30 10 O 2.346350 1.480790 -2.951408 0
M  V30 11 C 0.655529 1.059266 -1.293458 0
M  V30 12 C -0.402985 1.101187 -2.069850 0
M  V30 13 C -1.634025 0.874966 -1.287724 0
M  V30 14 C -1.796353 1.521519 -0.056036 0
M  V30 15 C -2.929016 1.325601 0.737843 0
M  V30 16 C -3.911035 0.467625 0.286784 0
M  V30 17 O -5.020235 0.297481 1.099144 0
M  V30 18 C -6.106350 -0.555466 0.808940 0
M  V30 19 C -5.637025 -1.982419 0.732466 0
M  V30 20 O -4.430307 -2.341287 0.913731 0
M  V30 21 N -6.407030 -3.146249 0.457766 0
M  V30 22 C -5.409723 -4.192553 0.528537 0
M  V30 23 C -4.639640 -4.626738 -0.524357 0
M  V30 24 C -3.731189 -5.629528 -0.302722 0
M  V30 25 C -3.652729 -6.137170 0.971821 0
M  V30 26 C -4.407553 -5.725877 2.045326 0
M  V30 27 C -5.318511 -4.712783 1.801624 0
M  V30 28 C -6.131194 -4.270095 2.963315 0
M  V30 29 C -3.763336 -0.174316 -0.925038 0
M  V30 30 C -2.647911 0.009786 -1.722123 0
M  V30 31 N 0.829301 0.829688 0.094279 0
M  V30 32 C 2.081407 0.867415 0.432052 0
M  V30 33 C 2.253470 0.639136 1.855319 0
M  V30 34 C 1.989974 -0.671853 2.282875 0
M  V30 35 C 2.065716 -1.073711 3.596386 0
M  V30 36 C 2.411615 -0.189295 4.579489 0
M  V30 37 C 2.670284 1.086969 4.181687 0
M  V30 38 C 2.605130 1.516064 2.897152 0
M  V30 39 C 5.069987 1.654654 -1.678586 0
M  V30 40 H 8.874086 1.406883 -2.478814 0
M  V30 41 H 8.814868 2.464952 -3.925657 0
M  V30 42 H 8.790527 3.239434 -2.248302 0
M  V30 43 H 8.253158 1.575515 -0.546340 0
M  V30 44 H 7.073744 0.798021 1.405399 0
M  V30 45 H 4.695923 0.556407 1.377638 0
M  V30 46 H -0.318758 1.282465 -3.147411 0
M  V30 47 H -1.066387 2.205907 0.348885 0
M  V30 48 H -3.045217 1.829824 1.686952 0
M  V30 49 H -6.536764 -0.248837 -0.154815 0
M  V30 50 H -6.895844 -0.512387 1.568207 0
M  V30 51 H -7.442901 -2.957152 0.284532 0
M  V30 52 H -4.794872 -4.143456 -1.495282 0
M  V30 53 H -3.115658 -5.992448 -1.090117 0
M  V30 54 H -2.928344 -6.940184 1.158312 0
M  V30 55 H -4.311847 -6.155071 3.032345 0
M  V30 56 H -6.294462 -5.183966 3.604801 0
M  V30 57 H -7.123218 -3.898507 2.692879 0
M  V30 58 H -5.548823 -3.574541 3.591428 0
M  V30 59 H -4.510557 -0.845599 -1.321576 0
M  V30 60 H -2.537014 -0.501829 -2.684364 0
M  V30 61 H 1.709922 -1.444229 1.586280 0
M  V30 62 H 1.854021 -2.106639 3.886205 0
M  V30 63 H 2.471054 -0.504605 5.608179 0
M  V30 64 H 2.949555 1.863831 4.879251 0
M  V30 65 H 2.795403 2.512463 2.495583 0
M  V30 66 H 4.572871 1.923829 -2.608870 0
M  V30 END ATOM
M  V30 BEGIN BOND
M  V30 1 1 1 2
M  V30 2 1 2 3
M  V30 3 2 3 4
M  V30 4 1 4 5
M  V30 5 2 5 6
M  V30 6 1 6 7
M  V30 7 1 7 8
M  V30 8 1 8 9
M  V30 9 2 9 10
M  V30 10 1 9 11
M  V30 11 2 11 12
M  V30 12 1 12 13
M  V30 13 2 13 14
M  V30 14 1 14 15
M  V30 15 2 15 16
M  V30 16 1 16 17
M  V30 17 1 17 18
M  V30 18 1 18 19
M  V30 19 2 19 20
M  V30 20 1 19 21
M  V30 21 1 21 22
M  V30 22 2 22 23
M  V30 23 1 23 24
M  V30 24 2 24 25
M  V30 25 1 25 26
M  V30 26 2 26 27
M  V30 27 1 27 28
M  V30 28 1 16 29
M  V30 29 2 29 30
M  V30 30 1 11 31
M  V30 31 2 31 32
M  V30 32 1 32 33
M  V30 33 2 33 34
M  V30 34 1 34 35
M  V30 35 2 35 36
M  V30 36 1 36 37
M  V30 37 2 37 38
M  V30 38 2 7 39
M  V30 39 1 39 3
M  V30 40 1 32 8
M  V30 41 1 38 33
M  V30 42 1 30 13
M  V30 43 1 27 22
M  V30 44 1 1 40
M  V30 45 1 1 41
M  V30 46 1 1 42
M  V30 47 1 4 43
M  V30 48 1 5 44
M  V30 49 1 6 45
M  V30 50 1 12 46
M  V30 51 1 14 47
M  V30 52 1 15 48
M  V30 53 1 18 49
M  V30 54 1 18 50
M  V30 55 1 21 51
M  V30 56 1 23 52
M  V30 57 1 24 53
M  V30 58 1 25 54
M  V30 59 1 26 55
M  V30 60 1 28 56
M  V30 61 1 28 57
M  V30 62 1 28 58
M  V30 63 1 29 59
M  V30 64 1 30 60
M  V30 65 1 34 61
M  V30 66 1 35 62
M  V30 67 1 36 63
M  V30 68 1 37 64
M  V30 69 1 38 65
M  V30 70 1 39 66
M  V30 END BOND
M  V30 END CTAB
M  END
>  <Dataset>  (593) 
ChEMBL_Kinases

>  <Ligand_Instance>  (593) 
nan

>  <PDB_ID>  (593) 
nan

>  <Standardized_SMILES>  (593) 
COc1cccc(N2C(=O)/C(=C/c3ccc(OCC(=O)Nc4ccccc4C)cc3)N=C2c2ccccc2)c1

>  <Name>  (593) 
nan

>  <Pocket>  (593) 
nan

>  <ATP_Site>  (593) 
nan

>  <Peripheral>  (593) 
nan

>  <Num_H_Atoms_ProtBoundConf>  (593) 
nan

>  <Num_Resolved_Atoms>  (593) 
nan

>  <Num_Not_Resolved_Atoms>  (593) 
nan

$$$$
CHEMBL3577563
     RDKit          3D

  0  0  0  0  0  0  0  0  0  0999 V3000
M  V30 BEGIN CTAB
M  V30 COUNTS 63 67 0 0 0
M  V30 BEGIN ATOM
M  V30 1 C 8.254361 0.290176 1.238076 0
M  V30 2 O 6.898907 0.205279 0.893009 0
M  V30 3 C 5.984193 1.122040 1.407797 0
M  V30 4 C 6.473914 2.096802 2.256613 0
M  V30 5 C 5.600566 3.019784 2.784782 0
M  V30 6 C 4.254332 3.017624 2.505744 0
M  V30 7 C 3.747954 2.034376 1.647001 0
M  V30 8 N 2.420425 1.799327 1.195160 0
M  V30 9 C 1.914243 2.437478 0.027282 0
M  V30 10 O 2.410198 3.252493 -0.789304 0
M  V30 11 C 0.549747 1.938709 -0.099726 0
M  V30 12 C -0.379266 2.204198 -1.009898 0
M  V30 13 C -1.729866 1.645897 -1.047544 0
M  V30 14 C -2.812461 2.417936 -1.463765 0
M  V30 15 C -4.095816 1.913486 -1.506979 0
M  V30 16 C -4.361328 0.607153 -1.134694 0
M  V30 17 O -5.621126 0.083568 -1.167943 0
M  V30 18 C -6.037882 -1.199018 -0.827636 0
M  V30 19 C -5.423152 -2.284375 -1.616538 0
M  V30 20 O -4.574816 -2.365979 -2.568913 0
M  V30 21 N -5.819803 -3.612607 -1.302528 0
M  V30 22 C -5.311362 -4.752909 -1.978132 0
M  V30 23 C -5.927123 -5.260805 -3.113762 0
M  V30 24 C -5.341299 -6.373056 -3.683459 0
M  V30 25 C -4.207569 -6.964585 -3.171514 0
M  V30 26 C -3.625530 -6.426190 -2.037762 0
M  V30 27 C -4.166513 -5.312022 -1.421582 0
M  V30 28 C -3.300550 -0.137085 -0.730613 0
M  V30 29 C -2.019372 0.348744 -0.681938 0
M  V30 30 N 0.340440 1.061275 0.970982 0
M  V30 31 C 1.397111 0.971882 1.716903 0
M  V30 32 C 1.454024 0.122669 2.890644 0
M  V30 33 C 2.125090 0.355467 4.067480 0
M  V30 34 C 2.102898 -0.542370 5.114575 0
M  V30 35 C 1.413126 -1.715136 5.044511 0
M  V30 36 C 0.709599 -2.018037 3.882808 0
M  V30 37 C 0.765033 -1.087093 2.867231 0
M  V30 38 C 4.648894 1.109541 1.123059 0
M  V30 39 H 8.415232 0.152277 2.337975 0
M  V30 40 H 8.616917 1.293568 0.938928 0
M  V30 41 H 8.807682 -0.515260 0.694699 0
M  V30 42 H 7.529145 2.164834 2.526251 0
M  V30 43 H 5.891427 3.819959 3.458383 0
M  V30 44 H 3.472564 3.674926 2.848724 0
M  V30 45 H -0.107946 2.905718 -1.805326 0
M  V30 46 H -2.649771 3.440108 -1.761648 0
M  V30 47 H -4.916654 2.562936 -1.842622 0
M  V30 48 H -5.803594 -1.358270 0.258629 0
M  V30 49 H -7.159233 -1.200036 -0.924156 0
M  V30 50 H -6.514539 -3.918448 -0.558673 0
M  V30 51 H -6.809205 -4.749174 -3.458819 0
M  V30 52 H -5.823861 -6.764636 -4.566998 0
M  V30 53 H -3.778990 -7.829412 -3.641088 0
M  V30 54 H -2.740012 -6.867336 -1.616344 0
M  V30 55 H -3.704063 -4.897707 -0.534327 0
M  V30 56 H -3.363437 -1.168550 -0.413256 0
M  V30 57 H -1.148400 -0.234562 -0.359202 0
M  V30 58 H 2.670355 1.274425 4.140483 0
M  V30 59 H 2.652722 -0.304699 6.021208 0
M  V30 60 H 1.367756 -2.447086 5.839124 0
M  V30 61 H 0.144459 -2.924400 3.758696 0
M  V30 62 H 0.209154 -1.336636 1.961796 0
M  V30 63 H 4.376602 0.290255 0.438428 0
M  V30 END ATOM
M  V30 BEGIN BOND
M  V30 1 1 1 2
M  V30 2 1 2 3
M  V30 3 2 3 4
M  V30 4 1 4 5
M  V30 5 2 5 6
M  V30 6 1 6 7
M  V30 7 1 7 8
M  V30 8 1 8 9
M  V30 9 2 9 10
M  V30 10 1 9 11
M  V30 11 2 11 12
M  V30 12 1 12 13
M  V30 13 2 13 14
M  V30 14 1 14 15
M  V30 15 2 15 16
M  V30 16 1 16 17
M  V30 17 1 17 18
M  V30 18 1 18 19
M  V30 19 2 19 20
M  V30 20 1 19 21
M  V30 21 1 21 22
M  V30 22 2 22 23
M  V30 23 1 23 24
M  V30 24 2 24 25
M  V30 25 1 25 26
M  V30 26 2 26 27
M  V30 27 1 16 28
M  V30 28 2 28 29
M  V30 29 1 11 30
M  V30 30 2 30 31
M  V30 31 1 31 32
M  V30 32 2 32 33
M  V30 33 1 33 34
M  V30 34 2 34 35
M  V30 35 1 35 36
M  V30 36 2 36 37
M  V30 37 2 7 38
M  V30 38 1 38 3
M  V30 39 1 31 8
M  V30 40 1 37 32
M  V30 41 1 29 13
M  V30 42 1 27 22
M  V30 43 1 1 39
M  V30 44 1 1 40
M  V30 45 1 1 41
M  V30 46 1 4 42
M  V30 47 1 5 43
M  V30 48 1 6 44
M  V30 49 1 12 45
M  V30 50 1 14 46
M  V30 51 1 15 47
M  V30 52 1 18 48
M  V30 53 1 18 49
M  V30 54 1 21 50
M  V30 55 1 23 51
M  V30 56 1 24 52
M  V30 57 1 25 53
M  V30 58 1 26 54
M  V30 59 1 27 55
M  V30 60 1 28 56
M  V30 61 1 29 57
M  V30 62 1 33 58
M  V30 63 1 34 59
M  V30 64 1 35 60
M  V30 65 1 36 61
M  V30 66 1 37 62
M  V30 67 1 38 63
M  V30 END BOND
M  V30 END CTAB
M  END
>  <Dataset>  (594) 
ChEMBL_Kinases

>  <Ligand_Instance>  (594) 
nan

>  <PDB_ID>  (594) 
nan

>  <Standardized_SMILES>  (594) 
COc1cccc(N2C(=O)/C(=C/c3ccc(OCC(=O)Nc4ccccc4)cc3)N=C2c2ccccc2)c1

>  <Name>  (594) 
nan

>  <Pocket>  (594) 
nan

>  <ATP_Site>  (594) 
nan

>  <Peripheral>  (594) 
nan

>  <Num_H_Atoms_ProtBoundConf>  (594) 
nan

>  <Num_Resolved_Atoms>  (594) 
nan

>  <Num_Not_Resolved_Atoms>  (594) 
nan

$$$$
CHEMBL4086917
     RDKit          3D

  0  0  0  0  0  0  0  0  0  0999 V3000
M  V30 BEGIN CTAB
M  V30 COUNTS 66 70 0 0 0
M  V30 BEGIN ATOM
M  V30 1 C 4.814122 -1.978231 5.870941 0
M  V30 2 N 3.499501 -1.401544 5.580481 0
M  V30 3 C 3.465030 -0.106313 6.226734 0
M  V30 4 C 3.421898 -1.293491 4.136318 0
M  V30 5 C 2.147167 -0.725081 3.656533 0
M  V30 6 C 1.055887 -1.541015 3.366164 0
M  V30 7 C -0.116719 -0.961281 2.920293 0
M  V30 8 C -0.243947 0.402864 2.752362 0
M  V30 9 C -1.436865 1.091520 2.289428 0
M  V30 10 C -1.900801 0.872340 1.009687 0
M  V30 11 C -1.494947 0.066521 -0.131408 0
M  V30 12 C -2.345843 -0.912117 -0.605137 0
M  V30 13 C -1.969626 -1.672038 -1.679598 0
M  V30 14 C -0.773778 -1.540319 -2.352576 0
M  V30 15 N -0.353577 -2.317644 -3.466102 0
M  V30 16 C 0.851083 -2.056848 -4.216599 0
M  V30 17 C 0.826756 -2.447306 -5.644932 0
M  V30 18 N -0.317787 -3.092578 -6.152983 0
M  V30 19 C -0.063283 -4.339027 -6.830697 0
M  V30 20 C -1.503128 -3.077836 -5.375809 0
M  V30 21 C -1.102961 -3.460124 -3.947306 0
M  V30 22 C 0.047338 -0.554039 -1.850128 0
M  V30 23 C -0.276303 0.248046 -0.766170 0
M  V30 24 N -3.019379 1.638808 0.853851 0
M  V30 25 C -3.928204 1.813283 -0.285927 0
M  V30 26 C -3.264119 2.330647 2.005562 0
M  V30 27 N -4.187451 3.205253 2.425128 0
M  V30 28 C -4.144046 3.727252 3.680610 0
M  V30 29 C -3.153768 3.384738 4.579421 0
M  V30 30 C -2.176755 2.486548 4.197211 0
M  V30 31 Cl -0.926022 2.038980 5.306496 0
M  V30 32 C -2.276368 1.993359 2.911560 0
M  V30 33 C 0.855307 1.218234 3.045323 0
M  V30 34 C 2.048163 0.648990 3.497026 0
M  V30 35 H 5.607784 -1.317788 5.476241 0
M  V30 36 H 4.999186 -2.033739 6.968045 0
M  V30 37 H 4.907276 -2.996148 5.450228 0
M  V30 38 H 3.757686 -0.273288 7.294275 0
M  V30 39 H 4.219817 0.564038 5.779612 0
M  V30 40 H 2.495900 0.404976 6.167503 0
M  V30 41 H 4.321135 -0.713636 3.779784 0
M  V30 42 H 3.469149 -2.354179 3.758832 0
M  V30 43 H 1.123312 -2.610657 3.486903 0
M  V30 44 H -0.968968 -1.562949 2.690473 0
M  V30 45 H -3.304309 -1.071259 -0.123335 0
M  V30 46 H -2.665497 -2.415776 -2.007691 0
M  V30 47 H 1.066680 -0.951812 -4.143824 0
M  V30 48 H 1.686031 -2.561511 -3.656168 0
M  V30 49 H 1.701781 -3.139929 -5.828884 0
M  V30 50 H 1.071206 -1.566428 -6.312034 0
M  V30 51 H 0.024129 -5.216592 -6.193379 0
M  V30 52 H 0.845281 -4.173032 -7.477217 0
M  V30 53 H -0.898892 -4.488317 -7.561829 0
M  V30 54 H -2.152252 -3.910261 -5.723008 0
M  V30 55 H -2.086146 -2.151053 -5.420669 0
M  V30 56 H -1.957832 -3.748584 -3.344049 0
M  V30 57 H -0.364603 -4.290626 -4.088788 0
M  V30 58 H 1.022413 -0.302969 -2.240179 0
M  V30 59 H 0.332662 1.016718 -0.353275 0
M  V30 60 H -3.543652 1.384090 -1.209920 0
M  V30 61 H -3.980991 2.924526 -0.454995 0
M  V30 62 H -4.921506 1.450571 0.040088 0
M  V30 63 H -4.962002 4.430097 3.889068 0
M  V30 64 H -3.188976 3.848507 5.569755 0
M  V30 65 H 0.915044 2.307365 2.963560 0
M  V30 66 H 2.929359 1.254796 3.736355 0
M  V30 END ATOM
M  V30 BEGIN BOND
M  V30 1 1 1 2
M  V30 2 1 2 3
M  V30 3 1 2 4
M  V30 4 1 4 5
M  V30 5 2 5 6
M  V30 6 1 6 7
M  V30 7 2 7 8
M  V30 8 1 8 9
M  V30 9 2 9 10
M  V30 10 1 10 11
M  V30 11 2 11 12
M  V30 12 1 12 13
M  V30 13 2 13 14
M  V30 14 1 14 15
M  V30 15 1 15 16
M  V30 16 1 16 17
M  V30 17 1 17 18
M  V30 18 1 18 19
M  V30 19 1 18 20
M  V30 20 1 20 21
M  V30 21 1 14 22
M  V30 22 2 22 23
M  V30 23 1 10 24
M  V30 24 1 24 25
M  V30 25 1 24 26
M  V30 26 2 26 27
M  V30 27 1 27 28
M  V30 28 2 28 29
M  V30 29 1 29 30
M  V30 30 1 30 31
M  V30 31 2 30 32
M  V30 32 1 8 33
M  V30 33 2 33 34
M  V30 34 1 34 5
M  V30 35 1 32 9
M  V30 36 1 23 11
M  V30 37 1 32 26
M  V30 38 1 21 15
M  V30 39 1 1 35
M  V30 40 1 1 36
M  V30 41 1 1 37
M  V30 42 1 3 38
M  V30 43 1 3 39
M  V30 44 1 3 40
M  V30 45 1 4 41
M  V30 46 1 4 42
M  V30 47 1 6 43
M  V30 48 1 7 44
M  V30 49 1 12 45
M  V30 50 1 13 46
M  V30 51 1 16 47
M  V30 52 1 16 48
M  V30 53 1 17 49
M  V30 54 1 17 50
M  V30 55 1 19 51
M  V30 56 1 19 52
M  V30 57 1 19 53
M  V30 58 1 20 54
M  V30 59 1 20 55
M  V30 60 1 21 56
M  V30 61 1 21 57
M  V30 62 1 22 58
M  V30 63 1 23 59
M  V30 64 1 25 60
M  V30 65 1 25 61
M  V30 66 1 25 62
M  V30 67 1 28 63
M  V30 68 1 29 64
M  V30 69 1 33 65
M  V30 70 1 34 66
M  V30 END BOND
M  V30 END CTAB
M  END
>  <Dataset>  (595) 
ChEMBL_Kinases

>  <Ligand_Instance>  (595) 
nan

>  <PDB_ID>  (595) 
nan

>  <Standardized_SMILES>  (595) 
CN(C)Cc1ccc(-c2c(-c3ccc(N4CCN(C)CC4)cc3)n(C)c3nccc(Cl)c23)cc1

>  <Name>  (595) 
nan

>  <Pocket>  (595) 
nan

>  <ATP_Site>  (595) 
nan

>  <Peripheral>  (595) 
nan

>  <Num_H_Atoms_ProtBoundConf>  (595) 
nan

>  <Num_Resolved_Atoms>  (595) 
nan

>  <Num_Not_Resolved_Atoms>  (595) 
nan

$$$$
CHEMBL4089586
     RDKit          3D

  0  0  0  0  0  0  0  0  0  0999 V3000
M  V30 BEGIN CTAB
M  V30 COUNTS 51 55 0 0 0
M  V30 BEGIN ATOM
M  V30 1 C 1.710928 -3.339779 5.099970 0
M  V30 2 C 3.034912 -2.965336 4.516855 0
M  V30 3 C 4.211746 -3.478916 4.987274 0
M  V30 4 N 5.353440 -3.065063 4.378188 0
M  V30 5 C 5.312485 -2.193649 3.364758 0
M  V30 6 C 4.135038 -1.668377 2.880748 0
M  V30 7 C 4.083338 -0.717653 1.775866 0
M  V30 8 C 5.182317 -0.238344 1.095031 0
M  V30 9 N 5.047044 0.647177 0.075535 0
M  V30 10 C 3.827766 1.085733 -0.302556 0
M  V30 11 C 3.380932 1.958930 -1.273358 0
M  V30 12 N 2.044992 2.031310 -1.210874 0
M  V30 13 N 1.592905 1.238014 -0.234470 0
M  V30 14 C 0.280520 0.953165 0.242691 0
M  V30 15 C 0.037911 1.315387 1.552733 0
M  V30 16 C -1.205309 1.070668 2.078740 0
M  V30 17 C -2.183997 0.467514 1.283868 0
M  V30 18 C -1.912387 0.112496 -0.034040 0
M  V30 19 N -2.832847 -0.496055 -0.903193 0
M  V30 20 C -2.441534 -0.824392 -2.262367 0
M  V30 21 C -3.154459 0.161122 -3.165818 0
M  V30 22 C -4.615961 0.157988 -2.766416 0
M  V30 23 N -5.147313 -1.142591 -2.510117 0
M  V30 24 C -4.977944 -1.631698 -1.174613 0
M  V30 25 C -4.127910 -0.735754 -0.310618 0
M  V30 26 N -0.678815 0.369914 -0.512970 0
M  V30 27 C 2.684292 0.655385 0.325983 0
M  V30 28 C 2.847769 -0.256243 1.372870 0
M  V30 29 N 3.017911 -2.094779 3.501791 0
M  V30 30 H 1.049754 -2.460189 5.249502 0
M  V30 31 H 1.153043 -4.016776 4.397514 0
M  V30 32 H 1.801867 -3.882537 6.048083 0
M  V30 33 H 4.203130 -4.178186 5.805070 0
M  V30 34 H 6.254790 -1.910460 2.930248 0
M  V30 35 H 6.152630 -0.582742 1.390534 0
M  V30 36 H 3.992764 2.511736 -1.986428 0
M  V30 37 H 0.797330 1.782509 2.166878 0
M  V30 38 H -1.432122 1.343644 3.110107 0
M  V30 39 H -3.151570 0.269673 1.671523 0
M  V30 40 H -2.729105 -1.882046 -2.483886 0
M  V30 41 H -1.334297 -0.691579 -2.375846 0
M  V30 42 H -2.705478 1.158539 -2.923344 0
M  V30 43 H -2.994945 -0.066618 -4.236576 0
M  V30 44 H -5.156277 0.569184 -3.668741 0
M  V30 45 H -4.821499 0.895558 -1.962572 0
M  V30 46 H -6.161797 -1.187661 -2.824755 0
M  V30 47 H -4.519279 -2.657032 -1.264020 0
M  V30 48 H -5.954998 -1.754100 -0.661416 0
M  V30 49 H -4.701715 0.154204 -0.062367 0
M  V30 50 H -3.959509 -1.296779 0.636444 0
M  V30 51 H 1.957217 -0.621224 1.897216 0
M  V30 END ATOM
M  V30 BEGIN BOND
M  V30 1 1 1 2
M  V30 2 2 2 3
M  V30 3 1 3 4
M  V30 4 2 4 5
M  V30 5 1 5 6
M  V30 6 1 6 7
M  V30 7 2 7 8
M  V30 8 1 8 9
M  V30 9 2 9 10
M  V30 10 1 10 11
M  V30 11 2 11 12
M  V30 12 1 12 13
M  V30 13 1 13 14
M  V30 14 2 14 15
M  V30 15 1 15 16
M  V30 16 2 16 17
M  V30 17 1 17 18
M  V30 18 1 18 19
M  V30 19 1 19 20
M  V30 20 1 20 21
M  V30 21 1 21 22
M  V30 22 1 22 23
M  V30 23 1 23 24
M  V30 24 1 24 25
M  V30 25 2 18 26
M  V30 26 1 13 27
M  V30 27 2 27 28
M  V30 28 2 6 29
M  V30 29 1 29 2
M  V30 30 1 28 7
M  V30 31 1 27 10
M  V30 32 1 26 14
M  V30 33 1 25 19
M  V30 34 1 1 30
M  V30 35 1 1 31
M  V30 36 1 1 32
M  V30 37 1 3 33
M  V30 38 1 5 34
M  V30 39 1 8 35
M  V30 40 1 11 36
M  V30 41 1 15 37
M  V30 42 1 16 38
M  V30 43 1 17 39
M  V30 44 1 20 40
M  V30 45 1 20 41
M  V30 46 1 21 42
M  V30 47 1 21 43
M  V30 48 1 22 44
M  V30 49 1 22 45
M  V30 50 1 23 46
M  V30 51 1 24 47
M  V30 52 1 24 48
M  V30 53 1 25 49
M  V30 54 1 25 50
M  V30 55 1 28 51
M  V30 END BOND
M  V30 END CTAB
M  END
>  <Dataset>  (596) 
ChEMBL_Kinases

>  <Ligand_Instance>  (596) 
nan

>  <PDB_ID>  (596) 
nan

>  <Standardized_SMILES>  (596) 
Cc1cncc(-c2cnc3cnn(-c4cccc(N5CCCNCC5)n4)c3c2)n1

>  <Name>  (596) 
nan

>  <Pocket>  (596) 
nan

>  <ATP_Site>  (596) 
nan

>  <Peripheral>  (596) 
nan

>  <Num_H_Atoms_ProtBoundConf>  (596) 
nan

>  <Num_Resolved_Atoms>  (596) 
nan

>  <Num_Not_Resolved_Atoms>  (596) 
nan

$$$$
CHEMBL4087125
     RDKit          3D

  0  0  0  0  0  0  0  0  0  0999 V3000
M  V30 BEGIN CTAB
M  V30 COUNTS 41 45 0 0 0
M  V30 BEGIN ATOM
M  V30 1 O 3.031044 -6.189290 1.466717 0
M  V30 2 C 2.782023 -5.070492 0.652105 0
M  V30 3 C 2.394838 -5.269989 -0.673209 0
M  V30 4 C 2.147338 -4.157388 -1.482714 0
M  V30 5 C 2.274915 -2.870835 -1.008941 0
M  V30 6 C 2.022894 -1.695658 -1.835201 0
M  V30 7 C 2.445990 -1.433990 -3.140312 0
M  V30 8 N 1.982696 -0.210149 -3.527453 0
M  V30 9 C 1.269647 0.345151 -2.526007 0
M  V30 10 N 0.630360 1.527544 -2.452115 0
M  V30 11 C -0.027952 1.868205 -1.321691 0
M  V30 12 C -0.059742 1.011397 -0.217305 0
M  V30 13 C -0.759816 1.337095 1.028302 0
M  V30 14 C -0.323238 0.880272 2.260372 0
M  V30 15 C -0.981301 1.184676 3.446710 0
M  V30 16 C -2.113763 1.980106 3.337202 0
M  V30 17 C -2.805143 2.301570 4.569671 0
M  V30 18 N -3.906056 3.030757 4.814413 0
M  V30 19 N -4.187039 3.060978 6.108781 0
M  V30 20 N -3.280557 2.354360 6.746908 0
M  V30 21 N -2.443666 1.894908 5.811170 0
M  V30 22 C -2.597746 2.465579 2.137445 0
M  V30 23 C -1.897381 2.127926 0.983009 0
M  V30 24 C 0.614799 -0.186776 -0.354700 0
M  V30 25 C 1.298017 -0.569507 -1.492598 0
M  V30 26 C 2.659062 -2.680154 0.305736 0
M  V30 27 C 2.902953 -3.782706 1.103245 0
M  V30 28 H 2.562121 -6.278058 2.357728 0
M  V30 29 H 2.289999 -6.274216 -1.060622 0
M  V30 30 H 1.844796 -4.323681 -2.518345 0
M  V30 31 H 3.047826 -2.138321 -3.701996 0
M  V30 32 H 2.186534 0.165284 -4.456237 0
M  V30 33 H -0.557004 2.807255 -1.213078 0
M  V30 34 H 0.577687 0.254017 2.294978 0
M  V30 35 H -0.626682 0.819639 4.399635 0
M  V30 36 H -1.639444 1.302160 6.107024 0
M  V30 37 H -3.487243 3.080604 2.128001 0
M  V30 38 H -2.303709 2.526106 0.051172 0
M  V30 39 H 0.586077 -0.844553 0.502122 0
M  V30 40 H 2.792124 -1.735369 0.785341 0
M  V30 41 H 3.206578 -3.710507 2.139816 0
M  V30 END ATOM
M  V30 BEGIN BOND
M  V30 1 1 1 2
M  V30 2 2 2 3
M  V30 3 1 3 4
M  V30 4 2 4 5
M  V30 5 1 5 6
M  V30 6 2 6 7
M  V30 7 1 7 8
M  V30 8 1 8 9
M  V30 9 2 9 10
M  V30 10 1 10 11
M  V30 11 2 11 12
M  V30 12 1 12 13
M  V30 13 2 13 14
M  V30 14 1 14 15
M  V30 15 2 15 16
M  V30 16 1 16 17
M  V30 17 2 17 18
M  V30 18 1 18 19
M  V30 19 2 19 20
M  V30 20 1 20 21
M  V30 21 1 16 22
M  V30 22 2 22 23
M  V30 23 1 12 24
M  V30 24 2 24 25
M  V30 25 1 5 26
M  V30 26 2 26 27
M  V30 27 1 27 2
M  V30 28 1 25 6
M  V30 29 1 25 9
M  V30 30 1 23 13
M  V30 31 1 21 17
M  V30 32 1 1 28
M  V30 33 1 3 29
M  V30 34 1 4 30
M  V30 35 1 7 31
M  V30 36 1 8 32
M  V30 37 1 11 33
M  V30 38 1 14 34
M  V30 39 1 15 35
M  V30 40 1 21 36
M  V30 41 1 22 37
M  V30 42 1 23 38
M  V30 43 1 24 39
M  V30 44 1 26 40
M  V30 45 1 27 41
M  V30 END BOND
M  V30 END CTAB
M  END
>  <Dataset>  (597) 
ChEMBL_Kinases

>  <Ligand_Instance>  (597) 
nan

>  <PDB_ID>  (597) 
nan

>  <Standardized_SMILES>  (597) 
Oc1ccc(-c2c[nH]c3ncc(-c4ccc(-c5nnn[nH]5)cc4)cc23)cc1

>  <Name>  (597) 
nan

>  <Pocket>  (597) 
nan

>  <ATP_Site>  (597) 
nan

>  <Peripheral>  (597) 
nan

>  <Num_H_Atoms_ProtBoundConf>  (597) 
nan

>  <Num_Resolved_Atoms>  (597) 
nan

>  <Num_Not_Resolved_Atoms>  (597) 
nan

$$$$
CHEMBL4848290
     RDKit          3D

  0  0  0  0  0  0  0  0  0  0999 V3000
M  V30 BEGIN CTAB
M  V30 COUNTS 47 48 0 0 0
M  V30 BEGIN ATOM
M  V30 1 C 0.288980 -2.431208 4.863228 0
M  V30 2 O -0.960136 -2.901250 4.403437 0
M  V30 3 C -1.120977 -2.332078 3.143309 0 CFG=1
M  V30 4 C -1.156401 -3.392832 2.057296 0
M  V30 5 C -1.069336 -2.693238 0.727120 0
M  V30 6 C -2.163227 -1.679757 0.532281 0 CFG=2
M  V30 7 N -2.024304 -0.990885 -0.720035 0
M  V30 8 C -0.929710 -0.146480 -1.146703 0
M  V30 9 N -1.023522 0.368008 -2.384144 0
M  V30 10 C -0.095143 1.178801 -2.913244 0
M  V30 11 C 0.966935 1.441484 -2.078152 0
M  V30 12 C 1.970640 2.325538 -2.661828 0
M  V30 13 N 1.895531 2.878076 -3.955706 0
M  V30 14 O 3.055929 2.891718 -2.450448 0
M  V30 15 C 1.078084 0.923971 -0.811397 0
M  V30 16 N 2.220449 1.243211 0.000843 0
M  V30 17 C 2.422776 0.750496 1.348530 0
M  V30 18 C 1.328082 1.207666 2.281922 0
M  V30 19 C 2.488155 -0.776164 1.357358 0
M  V30 20 N 0.103985 0.104498 -0.324747 0
M  V30 21 C -2.333138 -0.777887 1.728771 0
M  V30 22 C -2.414473 -1.566394 3.014771 0
M  V30 23 H 0.551004 -2.803080 5.855005 0
M  V30 24 H 0.310031 -1.310335 4.887263 0
M  V30 25 H 1.039221 -2.683916 4.062905 0
M  V30 26 H -0.251483 -1.714184 2.926796 0
M  V30 27 H -0.374728 -4.130130 2.217053 0
M  V30 28 H -2.140257 -3.895361 2.155746 0
M  V30 29 H -1.061688 -3.437849 -0.087463 0
M  V30 30 H -0.101642 -2.157731 0.695500 0
M  V30 31 H -3.102045 -2.271294 0.491448 0
M  V30 32 H -2.827377 -1.121110 -1.413407 0
M  V30 33 H -0.188518 1.582953 -3.912025 0
M  V30 34 H 1.320288 3.756974 -4.130368 0
M  V30 35 H 2.310553 2.605533 -4.887574 0
M  V30 36 H 2.949007 1.872352 -0.406340 0
M  V30 37 H 3.382744 1.158974 1.716370 0
M  V30 38 H 0.502631 1.727556 1.743115 0
M  V30 39 H 1.751206 1.879910 3.085792 0
M  V30 40 H 0.915920 0.348728 2.809788 0
M  V30 41 H 3.568379 -1.064702 1.430310 0
M  V30 42 H 2.078274 -1.210197 0.443935 0
M  V30 43 H 1.985546 -1.208778 2.245176 0
M  V30 44 H -1.435086 -0.132852 1.798707 0
M  V30 45 H -3.211390 -0.128432 1.656705 0
M  V30 46 H -2.657703 -0.931946 3.862796 0
M  V30 47 H -3.251977 -2.300650 2.861902 0
M  V30 END ATOM
M  V30 BEGIN BOND
M  V30 1 1 1 2
M  V30 2 1 2 3
M  V30 3 1 3 4
M  V30 4 1 4 5
M  V30 5 1 5 6
M  V30 6 1 6 7
M  V30 7 1 7 8
M  V30 8 2 8 9
M  V30 9 1 9 10
M  V30 10 2 10 11
M  V30 11 1 11 12
M  V30 12 1 12 13
M  V30 13 2 12 14
M  V30 14 1 11 15
M  V30 15 1 15 16
M  V30 16 1 16 17
M  V30 17 1 17 18
M  V30 18 1 17 19
M  V30 19 2 15 20
M  V30 20 1 6 21
M  V30 21 1 21 22
M  V30 22 1 22 3
M  V30 23 1 20 8
M  V30 24 1 1 23
M  V30 25 1 1 24
M  V30 26 1 1 25
M  V30 27 1 3 26 CFG=3
M  V30 28 1 4 27
M  V30 29 1 4 28
M  V30 30 1 5 29
M  V30 31 1 5 30
M  V30 32 1 6 31 CFG=3
M  V30 33 1 7 32
M  V30 34 1 10 33
M  V30 35 1 13 34
M  V30 36 1 13 35
M  V30 37 1 16 36
M  V30 38 1 17 37
M  V30 39 1 18 38
M  V30 40 1 18 39
M  V30 41 1 18 40
M  V30 42 1 19 41
M  V30 43 1 19 42
M  V30 44 1 19 43
M  V30 45 1 21 44
M  V30 46 1 21 45
M  V30 47 1 22 46
M  V30 48 1 22 47
M  V30 END BOND
M  V30 END CTAB
M  END
>  <Dataset>  (598) 
ChEMBL_Kinases

>  <Ligand_Instance>  (598) 
nan

>  <PDB_ID>  (598) 
nan

>  <Standardized_SMILES>  (598) 
CO[C@H]1CC[C@H](Nc2ncc(C(N)=O)c(NC(C)C)n2)CC1

>  <Name>  (598) 
nan

>  <Pocket>  (598) 
nan

>  <ATP_Site>  (598) 
nan

>  <Peripheral>  (598) 
nan

>  <Num_H_Atoms_ProtBoundConf>  (598) 
nan

>  <Num_Resolved_Atoms>  (598) 
nan

>  <Num_Not_Resolved_Atoms>  (598) 
nan

$$$$
CHEMBL3545213
     RDKit          3D

  0  0  0  0  0  0  0  0  0  0999 V3000
M  V30 BEGIN CTAB
M  V30 COUNTS 56 60 0 0 0
M  V30 BEGIN ATOM
M  V30 1 N -1.367986 -4.699665 -0.039689 0
M  V30 2 C -0.673880 -3.819201 -0.287389 0
M  V30 3 C 0.229862 -2.709226 -0.615952 0
M  V30 4 C 1.214753 -2.499247 0.483645 0
M  V30 5 C 1.726914 -3.513816 1.263302 0
M  V30 6 C 2.645911 -3.180377 2.262407 0
M  V30 7 N 3.016854 -1.902496 2.453547 0
M  V30 8 C 2.499607 -0.915577 1.672885 0
M  V30 9 O 3.029485 0.296216 2.059418 0
M  V30 10 C 2.767827 1.552292 1.526330 0
M  V30 11 C 1.323723 1.869579 1.655641 0
M  V30 12 C 0.370266 1.613710 0.679696 0
M  V30 13 C -0.965177 1.934600 0.893918 0
M  V30 14 C -1.407016 2.522042 2.084960 0
M  V30 15 C -2.844001 2.778681 2.105615 0
M  V30 16 N -3.669620 1.700854 2.556136 0
M  V30 17 C -3.333241 1.324915 3.906347 0
M  V30 18 C -3.790979 -0.107468 4.119321 0
M  V30 19 O -5.005630 -0.300931 3.510450 0
M  V30 20 C -4.823957 -0.340004 2.133497 0
M  V30 21 C -3.670908 0.550395 1.710452 0
M  V30 22 C -0.436137 2.763792 3.033094 0
M  V30 23 C 0.889575 2.452621 2.837634 0
M  V30 24 N 1.627132 -1.251345 0.728319 0
M  V30 25 C 0.927815 -3.000985 -1.911491 0
M  V30 26 N 1.356472 -3.897033 -2.542670 0
M  V30 27 C 1.950289 -3.815929 -3.726904 0
M  V30 28 C 2.450590 -4.869073 -4.464181 0
M  V30 29 C 3.039359 -4.615767 -5.681945 0
M  V30 30 C 3.183283 -3.368792 -6.256847 0
M  V30 31 C 2.684748 -2.300293 -5.526133 0
M  V30 32 C 2.093302 -2.563907 -4.301957 0
M  V30 33 S 1.323420 -1.522253 -3.034361 0
M  V30 34 H -0.376632 -1.780478 -0.701866 0
M  V30 35 H 1.367478 -4.508949 1.032483 0
M  V30 36 H 3.001173 -4.047611 2.833783 0
M  V30 37 H 3.393271 2.335560 2.017389 0
M  V30 38 H 2.963398 1.572296 0.412490 0
M  V30 39 H 0.691129 1.166845 -0.241755 0
M  V30 40 H -1.626980 1.685049 0.052691 0
M  V30 41 H -2.993437 3.671649 2.783250 0
M  V30 42 H -3.173262 3.174377 1.103879 0
M  V30 43 H -3.776588 2.008265 4.660861 0
M  V30 44 H -2.236382 1.332029 4.029106 0
M  V30 45 H -3.931589 -0.325940 5.199935 0
M  V30 46 H -3.019264 -0.779522 3.691820 0
M  V30 47 H -4.685884 -1.393282 1.820006 0
M  V30 48 H -5.726505 0.021240 1.592734 0
M  V30 49 H -2.735412 -0.036678 1.819370 0
M  V30 50 H -3.860417 0.808847 0.632855 0
M  V30 51 H -0.813703 3.223379 3.933763 0
M  V30 52 H 1.592131 2.670981 3.624946 0
M  V30 53 H 2.426359 -5.930559 -4.169494 0
M  V30 54 H 3.444658 -5.442212 -6.286198 0
M  V30 55 H 3.635159 -3.130020 -7.202190 0
M  V30 56 H 2.702148 -1.267438 -5.804109 0
M  V30 END ATOM
M  V30 BEGIN BOND
M  V30 1 3 1 2
M  V30 2 1 2 3
M  V30 3 1 3 4
M  V30 4 2 4 5
M  V30 5 1 5 6
M  V30 6 2 6 7
M  V30 7 1 7 8
M  V30 8 1 8 9
M  V30 9 1 9 10
M  V30 10 1 10 11
M  V30 11 2 11 12
M  V30 12 1 12 13
M  V30 13 2 13 14
M  V30 14 1 14 15
M  V30 15 1 15 16
M  V30 16 1 16 17
M  V30 17 1 17 18
M  V30 18 1 18 19
M  V30 19 1 19 20
M  V30 20 1 20 21
M  V30 21 1 14 22
M  V30 22 2 22 23
M  V30 23 2 8 24
M  V30 24 1 3 25
M  V30 25 2 25 26
M  V30 26 1 26 27
M  V30 27 2 27 28
M  V30 28 1 28 29
M  V30 29 2 29 30
M  V30 30 1 30 31
M  V30 31 2 31 32
M  V30 32 1 32 33
M  V30 33 1 24 4
M  V30 34 1 33 25
M  V30 35 1 23 11
M  V30 36 1 32 27
M  V30 37 1 21 16
M  V30 38 1 3 34
M  V30 39 1 5 35
M  V30 40 1 6 36
M  V30 41 1 10 37
M  V30 42 1 10 38
M  V30 43 1 12 39
M  V30 44 1 13 40
M  V30 45 1 15 41
M  V30 46 1 15 42
M  V30 47 1 17 43
M  V30 48 1 17 44
M  V30 49 1 18 45
M  V30 50 1 18 46
M  V30 51 1 20 47
M  V30 52 1 20 48
M  V30 53 1 21 49
M  V30 54 1 21 50
M  V30 55 1 22 51
M  V30 56 1 23 52
M  V30 57 1 28 53
M  V30 58 1 29 54
M  V30 59 1 30 55
M  V30 60 1 31 56
M  V30 END BOND
M  V30 END CTAB
M  END
>  <Dataset>  (599) 
ChEMBL_Kinases

>  <Ligand_Instance>  (599) 
nan

>  <PDB_ID>  (599) 
nan

>  <Standardized_SMILES>  (599) 
N#CC(c1ccnc(OCc2ccc(CN3CCOCC3)cc2)n1)c1nc2ccccc2s1

>  <Name>  (599) 
BENTAMAPIMOD

>  <Pocket>  (599) 
nan

>  <ATP_Site>  (599) 
nan

>  <Peripheral>  (599) 
nan

>  <Num_H_Atoms_ProtBoundConf>  (599) 
nan

>  <Num_Resolved_Atoms>  (599) 
nan

>  <Num_Not_Resolved_Atoms>  (599) 
nan

$$$$
CHEMBL4847754
     RDKit          3D

  0  0  0  0  0  0  0  0  0  0999 V3000
M  V30 BEGIN CTAB
M  V30 COUNTS 53 58 0 0 0
M  V30 BEGIN ATOM
M  V30 1 C 2.914263 -5.561789 5.143493 0
M  V30 2 C 3.077063 -4.977770 3.786800 0
M  V30 3 C 2.959239 -3.642462 3.409652 0
M  V30 4 C 3.195394 -3.583312 2.050867 0
M  V30 5 N 3.127108 -2.303039 1.440713 0
M  V30 6 C 4.055895 -1.365053 1.533011 0
M  V30 7 N 3.657446 -0.289114 0.832394 0
M  V30 8 C 2.452983 -0.572657 0.295591 0
M  V30 9 C 1.650787 0.232377 -0.506199 0
M  V30 10 N 2.028136 1.529746 -0.885567 0
M  V30 11 C 1.265691 2.445603 -1.709145 0
M  V30 12 C -0.034453 2.798458 -1.051357 0
M  V30 13 N -0.087303 3.860178 -0.207160 0
M  V30 14 C -1.329757 4.018630 0.278669 0
M  V30 15 C -1.972856 4.885516 1.142871 0
M  V30 16 F -1.240085 5.885939 1.710256 0
M  V30 17 C -3.314937 4.735652 1.417083 0
M  V30 18 F -3.957560 5.592954 2.273676 0
M  V30 19 C -4.063557 3.728473 0.849035 0
M  V30 20 C -3.432804 2.862346 -0.010974 0
M  V30 21 C -2.092293 3.016238 -0.281587 0
M  V30 22 N -1.279383 2.301290 -1.076683 0
M  V30 23 N 0.495089 -0.348867 -0.883120 0
M  V30 24 C 0.155427 -1.580343 -0.519877 0
M  V30 25 N -1.070694 -2.233046 -0.912494 0
M  V30 26 C -1.456388 -3.554284 -0.436786 0
M  V30 27 C -2.864529 -3.554750 0.115183 0
M  V30 28 O -3.765387 -2.825075 -0.615452 0
M  V30 29 C -3.339121 -1.559534 -0.955974 0
M  V30 30 C -2.098015 -1.739951 -1.804393 0
M  V30 31 N 0.952288 -2.328016 0.253562 0
M  V30 32 C 2.122957 -1.834560 0.678007 0
M  V30 33 N 3.443040 -4.860413 1.661183 0
M  V30 34 O 3.369972 -5.652224 2.679566 0
M  V30 35 H 3.426397 -4.866140 5.861312 0
M  V30 36 H 3.440786 -6.534444 5.160892 0
M  V30 37 H 1.845144 -5.670984 5.420366 0
M  V30 38 H 2.719382 -2.886636 4.158977 0
M  V30 39 H 4.989289 -1.415200 2.069676 0
M  V30 40 H 2.958321 1.856602 -0.529654 0
M  V30 41 H 1.854341 3.344416 -1.907701 0
M  V30 42 H 0.972373 1.953904 -2.667897 0
M  V30 43 H -5.117625 3.556668 1.022173 0
M  V30 44 H -3.972258 2.049118 -0.488588 0
M  V30 45 H -1.480950 1.468851 -1.669320 0
M  V30 46 H -0.792930 -3.925899 0.372478 0
M  V30 47 H -1.399297 -4.302393 -1.257991 0
M  V30 48 H -2.875847 -3.241702 1.176951 0
M  V30 49 H -3.247360 -4.614442 0.108799 0
M  V30 50 H -3.040509 -0.966142 -0.058549 0
M  V30 51 H -4.134019 -1.039948 -1.499411 0
M  V30 52 H -2.284512 -2.503634 -2.586628 0
M  V30 53 H -1.798320 -0.803115 -2.313128 0
M  V30 END ATOM
M  V30 BEGIN BOND
M  V30 1 1 1 2
M  V30 2 2 2 3
M  V30 3 1 3 4
M  V30 4 1 4 5
M  V30 5 1 5 6
M  V30 6 2 6 7
M  V30 7 1 7 8
M  V30 8 2 8 9
M  V30 9 1 9 10
M  V30 10 1 10 11
M  V30 11 1 11 12
M  V30 12 2 12 13
M  V30 13 1 13 14
M  V30 14 2 14 15
M  V30 15 1 15 16
M  V30 16 1 15 17
M  V30 17 1 17 18
M  V30 18 2 17 19
M  V30 19 1 19 20
M  V30 20 2 20 21
M  V30 21 1 21 22
M  V30 22 1 9 23
M  V30 23 2 23 24
M  V30 24 1 24 25
M  V30 25 1 25 26
M  V30 26 1 26 27
M  V30 27 1 27 28
M  V30 28 1 28 29
M  V30 29 1 29 30
M  V30 30 1 24 31
M  V30 31 2 31 32
M  V30 32 2 4 33
M  V30 33 1 33 34
M  V30 34 1 34 2
M  V30 35 1 32 5
M  V30 36 1 32 8
M  V30 37 1 22 12
M  V30 38 1 30 25
M  V30 39 1 21 14
M  V30 40 1 1 35
M  V30 41 1 1 36
M  V30 42 1 1 37
M  V30 43 1 3 38
M  V30 44 1 6 39
M  V30 45 1 10 40
M  V30 46 1 11 41
M  V30 47 1 11 42
M  V30 48 1 19 43
M  V30 49 1 20 44
M  V30 50 1 22 45
M  V30 51 1 26 46
M  V30 52 1 26 47
M  V30 53 1 27 48
M  V30 54 1 27 49
M  V30 55 1 29 50
M  V30 56 1 29 51
M  V30 57 1 30 52
M  V30 58 1 30 53
M  V30 END BOND
M  V30 END CTAB
M  END
>  <Dataset>  (600) 
ChEMBL_Kinases

>  <Ligand_Instance>  (600) 
nan

>  <PDB_ID>  (600) 
nan

>  <Standardized_SMILES>  (600) 
Cc1cc(-n2cnc3c(NCc4nc5c(F)c(F)ccc5[nH]4)nc(N4CCOCC4)nc32)no1

>  <Name>  (600) 
nan

>  <Pocket>  (600) 
nan

>  <ATP_Site>  (600) 
nan

>  <Peripheral>  (600) 
nan

>  <Num_H_Atoms_ProtBoundConf>  (600) 
nan

>  <Num_Resolved_Atoms>  (600) 
nan

>  <Num_Not_Resolved_Atoms>  (600) 
nan

$$$$
CHEMBL4847175
     RDKit          3D

  0  0  0  0  0  0  0  0  0  0999 V3000
M  V30 BEGIN CTAB
M  V30 COUNTS 53 57 0 0 0
M  V30 BEGIN ATOM
M  V30 1 H 6.721592 0.392426 3.779546 0 MASS=2
M  V30 2 C 7.456918 -0.193901 3.178032 0
M  V30 3 H 7.175444 -1.249594 3.289821 0 MASS=2
M  V30 4 H 8.458437 0.032239 3.604452 0 MASS=2
M  V30 5 N 7.441287 0.216140 1.796227 0
M  V30 6 C 7.489831 -0.851311 0.852325 0
M  V30 7 C 6.215954 -0.785679 0.028053 0
M  V30 8 C 5.337043 0.057262 0.851040 0 CFG=2
M  V30 9 N 4.320927 0.797280 0.139188 0
M  V30 10 C 3.052088 0.665920 0.555700 0
M  V30 11 O 2.695393 -0.084434 1.526715 0
M  V30 12 C 1.653139 1.131167 0.297035 0
M  V30 13 C 0.400955 1.248305 0.405972 0
M  V30 14 C -0.513181 1.931266 -0.217716 0
M  V30 15 N -1.894586 1.852970 0.151439 0
M  V30 16 N -2.642217 2.900528 0.365966 0
M  V30 17 C -3.916396 2.516251 0.714476 0
M  V30 18 C -3.826211 1.116754 0.682233 0
M  V30 19 C -4.756314 0.134252 0.940613 0
M  V30 20 C -4.551740 -1.224817 0.883144 0
M  V30 21 N -5.500672 -2.228449 1.177033 0
M  V30 22 C -6.072877 -3.249556 0.405009 0
M  V30 23 C -5.683334 -3.316803 -0.942374 0
M  V30 24 C -6.310916 -4.348839 -1.621901 0
M  V30 25 C -7.240738 -5.276919 -1.130636 0
M  V30 26 C -7.545005 -5.109437 0.212864 0
M  V30 27 C -6.961771 -4.107358 0.950863 0
M  V30 28 Cl -7.411467 -3.984323 2.655106 0
M  V30 29 C -3.251349 -1.636615 0.518604 0
M  V30 30 F -2.874775 -2.936155 0.407201 0
M  V30 31 C -2.302128 -0.665672 0.255578 0
M  V30 32 C -2.552807 0.684823 0.327559 0
M  V30 33 C 0.079466 2.685910 -1.232110 0
M  V30 34 S 1.909836 2.227882 -1.061292 0
M  V30 35 C 6.281516 0.993651 1.575767 0
M  V30 36 H 8.408258 -0.840827 0.217096 0
M  V30 37 H 7.535617 -1.803561 1.456381 0
M  V30 38 H 6.406260 -0.467052 -0.998620 0
M  V30 39 H 5.786438 -1.831857 0.029449 0
M  V30 40 H 4.868688 -0.543402 1.645146 0
M  V30 41 H 4.356576 1.446294 -0.671789 0
M  V30 42 H 0.171386 0.559994 1.264770 0
M  V30 43 H -4.801492 3.066524 0.957458 0
M  V30 44 H -5.784257 0.406562 1.229903 0
M  V30 45 H -5.717602 -2.045765 2.198153 0
M  V30 46 H -4.997964 -2.691499 -1.449371 0
M  V30 47 H -6.076770 -4.480566 -2.679808 0
M  V30 48 H -7.650982 -6.031320 -1.778929 0
M  V30 49 H -8.253697 -5.788324 0.673563 0
M  V30 50 H -1.282103 -0.842962 -0.028438 0
M  V30 51 H -0.566986 3.327089 -1.858853 0
M  V30 52 H 6.519871 1.883575 1.002656 0
M  V30 53 H 5.783480 1.327951 2.537302 0
M  V30 END ATOM
M  V30 BEGIN BOND
M  V30 1 1 1 2
M  V30 2 1 2 3
M  V30 3 1 2 4
M  V30 4 1 2 5
M  V30 5 1 5 6
M  V30 6 1 6 7
M  V30 7 1 7 8
M  V30 8 1 8 9
M  V30 9 1 9 10
M  V30 10 2 10 11
M  V30 11 1 10 12
M  V30 12 2 12 13
M  V30 13 1 13 14
M  V30 14 1 14 15
M  V30 15 1 15 16
M  V30 16 2 16 17
M  V30 17 1 17 18
M  V30 18 2 18 19
M  V30 19 1 19 20
M  V30 20 1 20 21
M  V30 21 1 21 22
M  V30 22 2 22 23
M  V30 23 1 23 24
M  V30 24 2 24 25
M  V30 25 1 25 26
M  V30 26 2 26 27
M  V30 27 1 27 28
M  V30 28 2 20 29
M  V30 29 1 29 30
M  V30 30 1 29 31
M  V30 31 2 31 32
M  V30 32 2 14 33
M  V30 33 1 33 34
M  V30 34 1 8 35
M  V30 35 1 35 5
M  V30 36 1 34 12
M  V30 37 1 32 15
M  V30 38 1 32 18
M  V30 39 1 27 22
M  V30 40 1 6 36
M  V30 41 1 6 37
M  V30 42 1 7 38
M  V30 43 1 7 39
M  V30 44 1 8 40 CFG=1
M  V30 45 1 9 41
M  V30 46 1 13 42
M  V30 47 1 17 43
M  V30 48 1 19 44
M  V30 49 1 21 45
M  V30 50 1 23 46
M  V30 51 1 24 47
M  V30 52 1 25 48
M  V30 53 1 26 49
M  V30 54 1 31 50
M  V30 55 1 33 51
M  V30 56 1 35 52
M  V30 57 1 35 53
M  V30 END BOND
M  V30 END CTAB
M  END
>  <Dataset>  (601) 
ChEMBL_Kinases

>  <Ligand_Instance>  (601) 
nan

>  <PDB_ID>  (601) 
nan

>  <Standardized_SMILES>  (601) 
[2H]C([2H])([2H])N1CC[C@H](NC(=O)c2cc(-n3ncc4cc(Nc5ccccc5Cl)c(F)cc43)cs2)C1

>  <Name>  (601) 
nan

>  <Pocket>  (601) 
nan

>  <ATP_Site>  (601) 
nan

>  <Peripheral>  (601) 
nan

>  <Num_H_Atoms_ProtBoundConf>  (601) 
nan

>  <Num_Resolved_Atoms>  (601) 
nan

>  <Num_Not_Resolved_Atoms>  (601) 
nan

$$$$
CHEMBL4847078
     RDKit          3D

  0  0  0  0  0  0  0  0  0  0999 V3000
M  V30 BEGIN CTAB
M  V30 COUNTS 55 57 0 0 0
M  V30 BEGIN ATOM
M  V30 1 C -1.065172 -5.279951 0.575377 0
M  V30 2 O -0.142421 -4.362150 0.124597 0
M  V30 3 C 0.025468 -4.238319 -1.211422 0 CFG=1
M  V30 4 C -0.359718 -2.860771 -1.664019 0
M  V30 5 C 0.747437 -1.857872 -1.502949 0
M  V30 6 C 1.868274 -2.392560 -0.663952 0 CFG=2
M  V30 7 N 2.815032 -1.348353 -0.416701 0
M  V30 8 C 2.553658 -0.133145 0.271175 0
M  V30 9 N 3.565481 0.770681 0.426611 0
M  V30 10 C 3.380371 1.934210 1.072366 0
M  V30 11 C 2.151022 2.212839 1.581986 0
M  V30 12 C 2.019713 3.474576 2.259238 0
M  V30 13 N 3.048596 4.410272 2.434238 0
M  V30 14 O 1.146321 4.134794 2.847610 0
M  V30 15 C 1.118620 1.332187 1.444474 0
M  V30 16 N -0.165233 1.608939 1.979196 0
M  V30 17 C -1.268162 0.686586 1.831640 0 CFG=2
M  V30 18 C -1.591694 0.500735 0.364577 0
M  V30 19 C -2.885553 1.218720 -0.002058 0
M  V30 20 C -4.040608 0.700242 0.796965 0
M  V30 21 C -3.631751 0.183960 2.166178 0 CFG=2
M  V30 22 O -4.712847 0.300800 3.036326 0
M  V30 23 C -2.471103 1.027277 2.646611 0
M  V30 24 N 1.363331 0.194687 0.793916 0
M  V30 25 C 2.443507 -3.574575 -1.363779 0
M  V30 26 C 1.389762 -4.556277 -1.739973 0
M  V30 27 H -0.891002 -6.318372 0.292495 0
M  V30 28 H -1.132134 -5.131381 1.688163 0
M  V30 29 H -2.065052 -4.981276 0.187667 0
M  V30 30 H -0.671574 -4.960276 -1.713797 0
M  V30 31 H -1.264741 -2.522017 -1.126561 0
M  V30 32 H -0.679692 -2.956059 -2.741247 0
M  V30 33 H 1.182221 -1.703420 -2.532474 0
M  V30 34 H 0.444581 -0.865234 -1.169345 0
M  V30 35 H 1.531068 -2.740460 0.337392 0
M  V30 36 H 3.771080 -1.522051 -0.784790 0
M  V30 37 H 4.250341 2.590129 1.144618 0
M  V30 38 H 3.604043 4.782641 3.211594 0
M  V30 39 H 3.220825 4.762728 1.452033 0
M  V30 40 H -0.410733 2.463634 2.500837 0
M  V30 41 H -0.881972 -0.291747 2.245509 0
M  V30 42 H -0.799790 0.958823 -0.243481 0
M  V30 43 H -1.752062 -0.580915 0.190463 0
M  V30 44 H -2.753735 2.317918 0.092537 0
M  V30 45 H -3.072246 1.008382 -1.073034 0
M  V30 46 H -4.790102 1.510277 0.913881 0
M  V30 47 H -4.568839 -0.137587 0.281747 0
M  V30 48 H -3.343445 -0.893538 2.084695 0
M  V30 49 H -4.474110 0.707228 3.899587 0
M  V30 50 H -2.783294 2.085789 2.574319 0
M  V30 51 H -2.266501 0.759214 3.724138 0
M  V30 52 H 2.990916 -3.163614 -2.262732 0
M  V30 53 H 3.248988 -4.081463 -0.766794 0
M  V30 54 H 1.704764 -5.601990 -1.526056 0
M  V30 55 H 1.294952 -4.523831 -2.862343 0
M  V30 END ATOM
M  V30 BEGIN BOND
M  V30 1 1 1 2
M  V30 2 1 2 3
M  V30 3 1 3 4
M  V30 4 1 4 5
M  V30 5 1 5 6
M  V30 6 1 6 7
M  V30 7 1 7 8
M  V30 8 2 8 9
M  V30 9 1 9 10
M  V30 10 2 10 11
M  V30 11 1 11 12
M  V30 12 1 12 13
M  V30 13 2 12 14
M  V30 14 1 11 15
M  V30 15 1 15 16
M  V30 16 1 16 17
M  V30 17 1 17 18
M  V30 18 1 18 19
M  V30 19 1 19 20
M  V30 20 1 20 21
M  V30 21 1 21 22
M  V30 22 1 21 23
M  V30 23 2 15 24
M  V30 24 1 6 25
M  V30 25 1 25 26
M  V30 26 1 26 3
M  V30 27 1 24 8
M  V30 28 1 23 17
M  V30 29 1 1 27
M  V30 30 1 1 28
M  V30 31 1 1 29
M  V30 32 1 3 30 CFG=3
M  V30 33 1 4 31
M  V30 34 1 4 32
M  V30 35 1 5 33
M  V30 36 1 5 34
M  V30 37 1 6 35 CFG=1
M  V30 38 1 7 36
M  V30 39 1 10 37
M  V30 40 1 13 38
M  V30 41 1 13 39
M  V30 42 1 16 40
M  V30 43 1 17 41 CFG=1
M  V30 44 1 18 42
M  V30 45 1 18 43
M  V30 46 1 19 44
M  V30 47 1 19 45
M  V30 48 1 20 46
M  V30 49 1 20 47
M  V30 50 1 21 48 CFG=3
M  V30 51 1 22 49
M  V30 52 1 23 50
M  V30 53 1 23 51
M  V30 54 1 25 52
M  V30 55 1 25 53
M  V30 56 1 26 54
M  V30 57 1 26 55
M  V30 END BOND
M  V30 END CTAB
M  END
>  <Dataset>  (602) 
ChEMBL_Kinases

>  <Ligand_Instance>  (602) 
nan

>  <PDB_ID>  (602) 
nan

>  <Standardized_SMILES>  (602) 
CO[C@H]1CC[C@H](Nc2ncc(C(N)=O)c(N[C@@H]3CCC[C@H](O)C3)n2)CC1

>  <Name>  (602) 
nan

>  <Pocket>  (602) 
nan

>  <ATP_Site>  (602) 
nan

>  <Peripheral>  (602) 
nan

>  <Num_H_Atoms_ProtBoundConf>  (602) 
nan

>  <Num_Resolved_Atoms>  (602) 
nan

>  <Num_Not_Resolved_Atoms>  (602) 
nan

$$$$
CHEMBL4088144
     RDKit          3D

  0  0  0  0  0  0  0  0  0  0999 V3000
M  V30 BEGIN CTAB
M  V30 COUNTS 54 57 0 0 0
M  V30 BEGIN ATOM
M  V30 1 C -0.323996 -3.430385 2.726148 0
M  V30 2 C 0.474535 -2.518508 3.608070 0
M  V30 3 C -0.473456 -1.741036 4.509484 0
M  V30 4 N 1.321657 -1.621957 2.842618 0
M  V30 5 C 2.460623 -1.088964 3.343856 0
M  V30 6 N 3.036763 -0.304900 2.409235 0
M  V30 7 C 2.256069 -0.334000 1.290452 0
M  V30 8 C 2.320372 0.252233 0.024188 0
M  V30 9 N 3.453427 1.087325 -0.156714 0
M  V30 10 C 3.232542 2.470228 0.056835 0
M  V30 11 C 1.941116 2.932790 0.321997 0
M  V30 12 C 1.692011 4.287210 0.535433 0
M  V30 13 C 2.718128 5.218153 0.491751 0
M  V30 14 C 3.995542 4.778408 0.232387 0
M  V30 15 Cl 5.352659 5.912197 0.166283 0
M  V30 16 C 4.226486 3.434145 0.022853 0
M  V30 17 N 1.320244 -0.027529 -0.858459 0
M  V30 18 C 0.303415 -0.823223 -0.563926 0
M  V30 19 N -0.700889 -1.068415 -1.535832 0
M  V30 20 C -1.804017 -1.910390 -1.203690 0 CFG=1
M  V30 21 C -2.643688 -1.374799 -0.072115 0
M  V30 22 C -3.827324 -2.275369 0.098179 0
M  V30 23 C -3.657925 -3.637769 -0.537579 0
M  V30 24 C -3.367330 -3.578162 -2.008224 0
M  V30 25 C -2.701076 -2.249247 -2.348558 0 CFG=2
M  V30 26 N -1.996473 -2.324822 -3.613219 0
M  V30 27 N 0.253662 -1.381289 0.657893 0
M  V30 28 C 1.183822 -1.163133 1.575163 0
M  V30 29 H -0.914722 -4.105875 3.402588 0
M  V30 30 H 0.318109 -4.087728 2.115642 0
M  V30 31 H -1.035209 -2.939163 2.061455 0
M  V30 32 H 1.144018 -3.164396 4.220063 0
M  V30 33 H 0.144113 -1.329834 5.333102 0
M  V30 34 H -1.331901 -2.328601 4.827234 0
M  V30 35 H -0.835357 -0.859363 3.921027 0
M  V30 36 H 2.934418 -1.205455 4.333094 0
M  V30 37 H 4.427109 0.786984 -0.429284 0
M  V30 38 H 1.073931 2.254776 0.374344 0
M  V30 39 H 0.661322 4.589591 0.738441 0
M  V30 40 H 2.524611 6.269490 0.656601 0
M  V30 41 H 5.222447 3.017287 -0.187686 0
M  V30 42 H -0.641605 -0.642050 -2.485542 0
M  V30 43 H -1.381139 -2.885476 -0.821110 0
M  V30 44 H -3.041832 -0.387455 -0.442039 0
M  V30 45 H -2.101439 -1.168453 0.852800 0
M  V30 46 H -4.776066 -1.847286 -0.312369 0
M  V30 47 H -3.983273 -2.459116 1.189529 0
M  V30 48 H -4.642686 -4.153812 -0.380779 0
M  V30 49 H -2.925725 -4.262733 0.024933 0
M  V30 50 H -4.280046 -3.728840 -2.642619 0
M  V30 51 H -2.600041 -4.382737 -2.202433 0
M  V30 52 H -3.518244 -1.503450 -2.412580 0
M  V30 53 H -2.150077 -1.434751 -4.141884 0
M  V30 54 H -2.446654 -3.083799 -4.198336 0
M  V30 END ATOM
M  V30 BEGIN BOND
M  V30 1 1 1 2
M  V30 2 1 2 3
M  V30 3 1 2 4
M  V30 4 1 4 5
M  V30 5 2 5 6
M  V30 6 1 6 7
M  V30 7 2 7 8
M  V30 8 1 8 9
M  V30 9 1 9 10
M  V30 10 2 10 11
M  V30 11 1 11 12
M  V30 12 2 12 13
M  V30 13 1 13 14
M  V30 14 1 14 15
M  V30 15 2 14 16
M  V30 16 1 8 17
M  V30 17 2 17 18
M  V30 18 1 18 19
M  V30 19 1 19 20
M  V30 20 1 20 21
M  V30 21 1 21 22
M  V30 22 1 22 23
M  V30 23 1 23 24
M  V30 24 1 24 25
M  V30 25 1 25 26
M  V30 26 1 18 27
M  V30 27 2 27 28
M  V30 28 1 28 4
M  V30 29 1 28 7
M  V30 30 1 16 10
M  V30 31 1 25 20
M  V30 32 1 1 29
M  V30 33 1 1 30
M  V30 34 1 1 31
M  V30 35 1 2 32
M  V30 36 1 3 33
M  V30 37 1 3 34
M  V30 38 1 3 35
M  V30 39 1 5 36
M  V30 40 1 9 37
M  V30 41 1 11 38
M  V30 42 1 12 39
M  V30 43 1 13 40
M  V30 44 1 16 41
M  V30 45 1 19 42
M  V30 46 1 20 43 CFG=1
M  V30 47 1 21 44
M  V30 48 1 21 45
M  V30 49 1 22 46
M  V30 50 1 22 47
M  V30 51 1 23 48
M  V30 52 1 23 49
M  V30 53 1 24 50
M  V30 54 1 24 51
M  V30 55 1 25 52 CFG=3
M  V30 56 1 26 53
M  V30 57 1 26 54
M  V30 END BOND
M  V30 END CTAB
M  END
>  <Dataset>  (603) 
ChEMBL_Kinases

>  <Ligand_Instance>  (603) 
nan

>  <PDB_ID>  (603) 
nan

>  <Standardized_SMILES>  (603) 
CC(C)n1cnc2c(Nc3cccc(Cl)c3)nc(N[C@H]3CCCC[C@@H]3N)nc21

>  <Name>  (603) 
nan

>  <Pocket>  (603) 
nan

>  <ATP_Site>  (603) 
nan

>  <Peripheral>  (603) 
nan

>  <Num_H_Atoms_ProtBoundConf>  (603) 
nan

>  <Num_Resolved_Atoms>  (603) 
nan

>  <Num_Not_Resolved_Atoms>  (603) 
nan

$$$$
CHEMBL4088342
     RDKit          3D

  0  0  0  0  0  0  0  0  0  0999 V3000
M  V30 BEGIN CTAB
M  V30 COUNTS 53 57 0 0 0
M  V30 BEGIN ATOM
M  V30 1 C -5.114307 -4.697139 1.902216 0
M  V30 2 N -3.934979 -3.939141 1.528894 0
M  V30 3 C -2.986263 -4.431942 0.681577 0
M  V30 4 C -2.051043 -3.420243 0.589163 0
M  V30 5 C -0.839189 -3.497474 -0.219278 0
M  V30 6 C 0.056177 -2.449605 -0.268495 0
M  V30 7 C 1.215984 -2.469045 -1.015249 0
M  V30 8 C 2.224188 -1.545010 -1.197659 0
M  V30 9 C 2.354271 -0.211591 -0.618838 0
M  V30 10 C 3.460161 0.545368 -0.945490 0
M  V30 11 C 3.715770 1.817883 -0.476216 0
M  V30 12 C 2.750521 2.331730 0.391883 0
M  V30 13 C 1.636353 1.588175 0.730417 0
M  V30 14 N 0.672708 2.146474 1.619729 0
M  V30 15 C 0.952441 3.496119 2.105409 0
M  V30 16 C -0.197953 4.012259 2.945864 0
M  V30 17 C -1.532898 3.651982 2.324906 0
M  V30 18 C -1.740817 2.186109 2.137335 0 CFG=2
M  V30 19 N -2.572647 1.710271 3.231063 0
M  V30 20 C -0.499324 1.377324 1.990460 0
M  V30 21 N 1.456357 0.333073 0.221761 0
M  V30 22 N 3.075217 -2.150619 -2.038976 0
M  V30 23 N 2.638058 -3.356053 -2.359090 0
M  V30 24 C 3.307077 -4.297007 -3.251000 0
M  V30 25 C 1.469090 -3.613288 -1.743737 0
M  V30 26 C 0.575532 -4.664793 -1.697450 0
M  V30 27 N -0.551209 -4.594442 -0.946473 0
M  V30 28 C -2.420435 -2.349490 1.355049 0
M  V30 29 N -3.585538 -2.712367 1.915398 0
M  V30 30 H -5.549301 -4.390506 2.858082 0
M  V30 31 H -5.892992 -4.540840 1.133684 0
M  V30 32 H -4.893717 -5.784077 1.893382 0
M  V30 33 H -2.954500 -5.399171 0.181620 0
M  V30 34 H -0.189069 -1.583345 0.317287 0
M  V30 35 H 4.194362 0.118400 -1.623712 0
M  V30 36 H 4.613004 2.337546 -0.788136 0
M  V30 37 H 2.953122 3.332207 0.760177 0
M  V30 38 H 1.181934 4.198918 1.267572 0
M  V30 39 H 1.879232 3.418806 2.709969 0
M  V30 40 H -0.127373 3.642279 3.982511 0
M  V30 41 H -0.136107 5.119304 2.929510 0
M  V30 42 H -1.591438 4.162127 1.332180 0
M  V30 43 H -2.303775 4.075489 3.014038 0
M  V30 44 H -2.373387 2.054607 1.210486 0
M  V30 45 H -2.030211 1.732889 4.143696 0
M  V30 46 H -2.969599 0.764828 3.035146 0
M  V30 47 H -0.334040 0.788379 2.921127 0
M  V30 48 H -0.655039 0.599552 1.188719 0
M  V30 49 H 3.859266 -3.699597 -4.015273 0
M  V30 50 H 2.506913 -4.822603 -3.812157 0
M  V30 51 H 3.957396 -4.982003 -2.674143 0
M  V30 52 H 0.838380 -5.544299 -2.300771 0
M  V30 53 H -1.930298 -1.410389 1.509439 0
M  V30 END ATOM
M  V30 BEGIN BOND
M  V30 1 1 1 2
M  V30 2 1 2 3
M  V30 3 2 3 4
M  V30 4 1 4 5
M  V30 5 2 5 6
M  V30 6 1 6 7
M  V30 7 1 7 8
M  V30 8 1 8 9
M  V30 9 2 9 10
M  V30 10 1 10 11
M  V30 11 2 11 12
M  V30 12 1 12 13
M  V30 13 1 13 14
M  V30 14 1 14 15
M  V30 15 1 15 16
M  V30 16 1 16 17
M  V30 17 1 17 18
M  V30 18 1 18 19
M  V30 19 1 18 20
M  V30 20 2 13 21
M  V30 21 2 8 22
M  V30 22 1 22 23
M  V30 23 1 23 24
M  V30 24 1 23 25
M  V30 25 1 25 26
M  V30 26 2 26 27
M  V30 27 1 4 28
M  V30 28 2 28 29
M  V30 29 1 29 2
M  V30 30 1 27 5
M  V30 31 2 25 7
M  V30 32 1 21 9
M  V30 33 1 20 14
M  V30 34 1 1 30
M  V30 35 1 1 31
M  V30 36 1 1 32
M  V30 37 1 3 33
M  V30 38 1 6 34
M  V30 39 1 10 35
M  V30 40 1 11 36
M  V30 41 1 12 37
M  V30 42 1 15 38
M  V30 43 1 15 39
M  V30 44 1 16 40
M  V30 45 1 16 41
M  V30 46 1 17 42
M  V30 47 1 17 43
M  V30 48 1 18 44 CFG=3
M  V30 49 1 19 45
M  V30 50 1 19 46
M  V30 51 1 20 47
M  V30 52 1 20 48
M  V30 53 1 24 49
M  V30 54 1 24 50
M  V30 55 1 24 51
M  V30 56 1 26 52
M  V30 57 1 28 53
M  V30 END BOND
M  V30 END CTAB
M  END
>  <Dataset>  (604) 
ChEMBL_Kinases

>  <Ligand_Instance>  (604) 
nan

>  <PDB_ID>  (604) 
nan

>  <Standardized_SMILES>  (604) 
Cn1cc(-c2cc3c(-c4cccc(N5CCC[C@H](N)C5)n4)nn(C)c3cn2)cn1

>  <Name>  (604) 
nan

>  <Pocket>  (604) 
nan

>  <ATP_Site>  (604) 
nan

>  <Peripheral>  (604) 
nan

>  <Num_H_Atoms_ProtBoundConf>  (604) 
nan

>  <Num_Resolved_Atoms>  (604) 
nan

>  <Num_Not_Resolved_Atoms>  (604) 
nan

$$$$
CHEMBL4088888
     RDKit          3D

  0  0  0  0  0  0  0  0  0  0999 V3000
M  V30 BEGIN CTAB
M  V30 COUNTS 44 47 0 0 0
M  V30 BEGIN ATOM
M  V30 1 C -0.519857 -5.752774 0.195904 0
M  V30 2 S -1.781248 -5.430133 -0.999909 0
M  V30 3 O -2.997278 -4.793618 -0.431994 0
M  V30 4 O -2.204044 -6.783822 -1.545646 0
M  V30 5 N -1.091150 -4.549123 -2.309131 0
M  V30 6 C -0.569276 -3.296046 -1.913272 0
M  V30 7 C -1.136001 -2.340306 -1.087592 0
M  V30 8 C -0.455122 -1.168077 -0.820349 0
M  V30 9 C 0.789984 -0.921222 -1.360956 0
M  V30 10 C 1.425685 0.367633 -1.002265 0
M  V30 11 C 2.275542 1.038664 -1.857756 0
M  V30 12 N 2.808621 2.216959 -1.427855 0
M  V30 13 C 2.536363 2.735870 -0.216993 0
M  V30 14 N 2.947000 3.866564 0.394145 0
M  V30 15 C 2.389953 3.946816 1.616450 0
M  V30 16 C 1.579430 2.852393 1.856025 0
M  V30 17 C 0.771176 2.469283 3.010604 0
M  V30 18 C 0.902617 1.164468 3.437485 0
M  V30 19 C 0.197165 0.637304 4.523474 0
M  V30 20 C -0.681824 1.471540 5.208142 0
M  V30 21 O -1.416914 1.016388 6.297300 0
M  V30 22 C -0.809112 2.786736 4.771974 0
M  V30 23 C -0.101350 3.293665 3.692207 0
M  V30 24 C 1.696117 2.118870 0.688562 0
M  V30 25 C 1.156800 0.914474 0.237458 0
M  V30 26 C 1.379534 -1.855586 -2.187507 0
M  V30 27 C 0.685620 -3.021669 -2.444362 0
M  V30 28 H 0.455950 -5.822697 -0.357676 0
M  V30 29 H -0.667844 -6.685676 0.763214 0
M  V30 30 H -0.380854 -4.870314 0.872314 0
M  V30 31 H -1.031748 -4.847104 -3.305142 0
M  V30 32 H -2.113132 -2.634255 -0.717507 0
M  V30 33 H -1.017255 -0.519448 -0.164380 0
M  V30 34 H 2.495526 0.621903 -2.832599 0
M  V30 35 H 3.595765 4.596928 0.017522 0
M  V30 36 H 2.521383 4.742471 2.363560 0
M  V30 37 H 1.547907 0.378717 3.016976 0
M  V30 38 H 0.256781 -0.356676 4.897012 0
M  V30 39 H -2.442957 0.983214 6.188307 0
M  V30 40 H -1.482188 3.422670 5.296955 0
M  V30 41 H -0.188396 4.308399 3.342085 0
M  V30 42 H 0.491033 0.369500 0.878279 0
M  V30 43 H 2.356366 -1.640806 -2.600373 0
M  V30 44 H 1.223117 -3.702897 -3.105101 0
M  V30 END ATOM
M  V30 BEGIN BOND
M  V30 1 1 1 2
M  V30 2 2 2 3
M  V30 3 2 2 4
M  V30 4 1 2 5
M  V30 5 1 5 6
M  V30 6 2 6 7
M  V30 7 1 7 8
M  V30 8 2 8 9
M  V30 9 1 9 10
M  V30 10 2 10 11
M  V30 11 1 11 12
M  V30 12 2 12 13
M  V30 13 1 13 14
M  V30 14 1 14 15
M  V30 15 2 15 16
M  V30 16 1 16 17
M  V30 17 2 17 18
M  V30 18 1 18 19
M  V30 19 2 19 20
M  V30 20 1 20 21
M  V30 21 1 20 22
M  V30 22 2 22 23
M  V30 23 1 16 24
M  V30 24 2 24 25
M  V30 25 1 9 26
M  V30 26 2 26 27
M  V30 27 1 27 6
M  V30 28 1 25 10
M  V30 29 1 24 13
M  V30 30 1 23 17
M  V30 31 1 1 28
M  V30 32 1 1 29
M  V30 33 1 1 30
M  V30 34 1 5 31
M  V30 35 1 7 32
M  V30 36 1 8 33
M  V30 37 1 11 34
M  V30 38 1 14 35
M  V30 39 1 15 36
M  V30 40 1 18 37
M  V30 41 1 19 38
M  V30 42 1 21 39
M  V30 43 1 22 40
M  V30 44 1 23 41
M  V30 45 1 25 42
M  V30 46 1 26 43
M  V30 47 1 27 44
M  V30 END BOND
M  V30 END CTAB
M  END
>  <Dataset>  (605) 
ChEMBL_Kinases

>  <Ligand_Instance>  (605) 
nan

>  <PDB_ID>  (605) 
nan

>  <Standardized_SMILES>  (605) 
CS(=O)(=O)Nc1ccc(-c2cnc3[nH]cc(-c4ccc(O)cc4)c3c2)cc1

>  <Name>  (605) 
nan

>  <Pocket>  (605) 
nan

>  <ATP_Site>  (605) 
nan

>  <Peripheral>  (605) 
nan

>  <Num_H_Atoms_ProtBoundConf>  (605) 
nan

>  <Num_Resolved_Atoms>  (605) 
nan

>  <Num_Not_Resolved_Atoms>  (605) 
nan

$$$$
CHEMBL3426225
     RDKit          3D

  0  0  0  0  0  0  0  0  0  0999 V3000
M  V30 BEGIN CTAB
M  V30 COUNTS 73 77 0 0 0
M  V30 BEGIN ATOM
M  V30 1 C 5.632063 -1.139119 6.891908 0
M  V30 2 C 6.653204 -0.375999 6.062602 0
M  V30 3 N 6.378679 -0.467990 4.639327 0
M  V30 4 N 5.623720 0.343318 3.881323 0
M  V30 5 C 5.624178 -0.082567 2.619242 0
M  V30 6 C 4.977267 0.436064 1.446488 0
M  V30 7 C 4.418380 0.857938 0.463606 0
M  V30 8 C 3.731797 1.344950 -0.724988 0
M  V30 9 C 2.373664 1.216225 -0.838459 0
M  V30 10 C 1.628778 1.643025 -1.918570 0
M  V30 11 C 0.190746 1.519949 -2.066427 0
M  V30 12 O -0.325510 1.957267 -3.103739 0
M  V30 13 N -0.649916 0.932503 -1.098977 0
M  V30 14 C -2.050613 0.748304 -1.111104 0
M  V30 15 C -2.930248 1.112102 -2.099082 0
M  V30 16 C -4.292382 0.916630 -2.075136 0
M  V30 17 C -4.855422 0.303024 -0.974159 0
M  V30 18 C -6.309442 0.059359 -0.874734 0
M  V30 19 N -6.693902 -1.282426 -1.102021 0
M  V30 20 C -6.368516 -1.814614 -2.381184 0
M  V30 21 C -6.827548 -3.238667 -2.573248 0
M  V30 22 N -7.101815 -3.792914 -1.269196 0
M  V30 23 C -7.238915 -5.217122 -1.319161 0
M  V30 24 C -8.280351 -3.121974 -0.752580 0
M  V30 25 C -7.969825 -1.658104 -0.589159 0
M  V30 26 C -4.002233 -0.084920 0.055866 0
M  V30 27 C -4.580768 -0.740493 1.236837 0
M  V30 28 F -3.563416 -1.035633 2.127781 0
M  V30 29 F -5.475241 0.048177 1.937819 0
M  V30 30 F -5.181834 -1.948846 0.946843 0
M  V30 31 C -2.646660 0.140989 -0.032137 0
M  V30 32 C 2.395530 2.230919 -2.908854 0
M  V30 33 C 3.763642 2.385532 -2.845417 0
M  V30 34 C 4.447313 1.937617 -1.739291 0
M  V30 35 C 5.912845 2.090813 -1.645669 0
M  V30 36 C 6.414237 -1.212451 2.579620 0
M  V30 37 C 6.789374 -2.080522 1.575194 0
M  V30 38 N 6.332352 -1.883053 0.245987 0
M  V30 39 N 7.591670 -3.132149 1.816976 0
M  V30 40 C 8.024935 -3.316845 3.084539 0
M  V30 41 N 7.690863 -2.502759 4.101298 0
M  V30 42 C 6.890873 -1.455355 3.857375 0
M  V30 43 H 5.601402 -0.640944 7.886017 0
M  V30 44 H 4.612906 -1.094808 6.491449 0
M  V30 45 H 5.994475 -2.179561 7.090330 0
M  V30 46 H 7.657002 -0.785480 6.266099 0
M  V30 47 H 6.542841 0.695511 6.330331 0
M  V30 48 H 1.874047 0.749057 -0.020110 0
M  V30 49 H -0.119250 0.595984 -0.263977 0
M  V30 50 H -2.554852 1.594490 -2.984268 0
M  V30 51 H -4.923213 1.231955 -2.894718 0
M  V30 52 H -6.745175 0.476413 0.055222 0
M  V30 53 H -6.791741 0.675808 -1.690977 0
M  V30 54 H -6.944669 -1.205361 -3.138802 0
M  V30 55 H -5.318983 -1.757345 -2.657245 0
M  V30 56 H -7.698032 -3.324169 -3.260390 0
M  V30 57 H -6.004416 -3.879010 -3.005669 0
M  V30 58 H -6.312203 -5.688453 -0.885032 0
M  V30 59 H -8.078453 -5.572866 -0.675002 0
M  V30 60 H -7.307465 -5.616517 -2.358728 0
M  V30 61 H -8.545884 -3.602618 0.217996 0
M  V30 62 H -9.144411 -3.306005 -1.428036 0
M  V30 63 H -8.741430 -1.083168 -1.140596 0
M  V30 64 H -8.033022 -1.344467 0.473813 0
M  V30 65 H -2.050576 -0.189907 0.810408 0
M  V30 66 H 1.898854 2.601471 -3.805357 0
M  V30 67 H 4.282017 2.865496 -3.683232 0
M  V30 68 H 6.114959 2.645863 -0.707504 0
M  V30 69 H 6.428525 1.100413 -1.603869 0
M  V30 70 H 6.286882 2.623954 -2.534354 0
M  V30 71 H 7.049480 -1.529585 -0.446768 0
M  V30 72 H 5.395880 -2.016135 -0.226232 0
M  V30 73 H 8.673685 -4.185821 3.224988 0
M  V30 END ATOM
M  V30 BEGIN BOND
M  V30 1 1 1 2
M  V30 2 1 2 3
M  V30 3 1 3 4
M  V30 4 2 4 5
M  V30 5 1 5 6
M  V30 6 3 6 7
M  V30 7 1 7 8
M  V30 8 2 8 9
M  V30 9 1 9 10
M  V30 10 1 10 11
M  V30 11 2 11 12
M  V30 12 1 11 13
M  V30 13 1 13 14
M  V30 14 2 14 15
M  V30 15 1 15 16
M  V30 16 2 16 17
M  V30 17 1 17 18
M  V30 18 1 18 19
M  V30 19 1 19 20
M  V30 20 1 20 21
M  V30 21 1 21 22
M  V30 22 1 22 23
M  V30 23 1 22 24
M  V30 24 1 24 25
M  V30 25 1 17 26
M  V30 26 1 26 27
M  V30 27 1 27 28
M  V30 28 1 27 29
M  V30 29 1 27 30
M  V30 30 2 26 31
M  V30 31 2 10 32
M  V30 32 1 32 33
M  V30 33 2 33 34
M  V30 34 1 34 35
M  V30 35 1 5 36
M  V30 36 2 36 37
M  V30 37 1 37 38
M  V30 38 1 37 39
M  V30 39 2 39 40
M  V30 40 1 40 41
M  V30 41 2 41 42
M  V30 42 1 42 3
M  V30 43 1 34 8
M  V30 44 1 42 36
M  V30 45 1 31 14
M  V30 46 1 25 19
M  V30 47 1 1 43
M  V30 48 1 1 44
M  V30 49 1 1 45
M  V30 50 1 2 46
M  V30 51 1 2 47
M  V30 52 1 9 48
M  V30 53 1 13 49
M  V30 54 1 15 50
M  V30 55 1 16 51
M  V30 56 1 18 52
M  V30 57 1 18 53
M  V30 58 1 20 54
M  V30 59 1 20 55
M  V30 60 1 21 56
M  V30 61 1 21 57
M  V30 62 1 23 58
M  V30 63 1 23 59
M  V30 64 1 23 60
M  V30 65 1 24 61
M  V30 66 1 24 62
M  V30 67 1 25 63
M  V30 68 1 25 64
M  V30 69 1 31 65
M  V30 70 1 32 66
M  V30 71 1 33 67
M  V30 72 1 35 68
M  V30 73 1 35 69
M  V30 74 1 35 70
M  V30 75 1 38 71
M  V30 76 1 38 72
M  V30 77 1 40 73
M  V30 END BOND
M  V30 END CTAB
M  END
>  <Dataset>  (606) 
ChEMBL_Kinases

>  <Ligand_Instance>  (606) 
nan

>  <PDB_ID>  (606) 
nan

>  <Standardized_SMILES>  (606) 
CCn1nc(C#Cc2cc(C(=O)Nc3ccc(CN4CCN(C)CC4)c(C(F)(F)F)c3)ccc2C)c2c(N)ncnc21

>  <Name>  (606) 
nan

>  <Pocket>  (606) 
nan

>  <ATP_Site>  (606) 
nan

>  <Peripheral>  (606) 
nan

>  <Num_H_Atoms_ProtBoundConf>  (606) 
nan

>  <Num_Resolved_Atoms>  (606) 
nan

>  <Num_Not_Resolved_Atoms>  (606) 
nan

$$$$
CHEMBL4089087
     RDKit          3D

  0  0  0  0  0  0  0  0  0  0999 V3000
M  V30 BEGIN CTAB
M  V30 COUNTS 49 52 0 0 0
M  V30 BEGIN ATOM
M  V30 1 O 0.146415 -2.832073 3.941857 0
M  V30 2 C 0.553754 -1.844562 3.277221 0
M  V30 3 N 1.469064 -2.064605 2.218091 0
M  V30 4 C 2.026133 -3.311670 1.772258 0
M  V30 5 C 0.992314 -4.034965 0.991051 0
M  V30 6 C 0.056366 -4.942477 1.437206 0
M  V30 7 C -0.828824 -5.512229 0.546855 0
M  V30 8 C -0.844399 -5.226751 -0.813497 0
M  V30 9 C 0.092876 -4.316941 -1.265709 0
M  V30 10 C 0.987100 -3.742559 -0.360461 0
M  V30 11 C 0.033151 -0.541409 3.670361 0
M  V30 12 C -0.866522 -0.474581 4.711849 0
M  V30 13 C -1.384317 0.735184 5.121757 0
M  V30 14 C -1.021207 1.907077 4.507502 0
M  V30 15 C -0.110232 1.888549 3.444954 0
M  V30 16 N 0.271627 3.101848 2.822585 0
M  V30 17 C 1.148790 3.407304 1.714013 0
M  V30 18 C 0.540742 2.857821 0.476113 0
M  V30 19 C 0.550217 1.748999 -0.331436 0
M  V30 20 C -0.332947 1.939222 -1.371852 0
M  V30 21 C -0.559906 0.946517 -2.409765 0
M  V30 22 C 0.071023 -0.275268 -2.470866 0
M  V30 23 C -0.251390 -1.111460 -3.522244 0
M  V30 24 N -1.160403 -0.732355 -4.457672 0
M  V30 25 C -1.785503 0.452534 -4.415939 0
M  V30 26 C -1.485589 1.309356 -3.379576 0
M  V30 27 O -0.834259 3.111821 -1.175209 0
M  V30 28 N -0.366191 3.692131 -0.120049 0
M  V30 29 C 0.366814 0.660089 3.085848 0
M  V30 30 H 1.768178 -1.203361 1.704795 0
M  V30 31 H 2.296310 -3.988350 2.608883 0
M  V30 32 H 2.932809 -3.160050 1.181409 0
M  V30 33 H 0.090195 -5.146294 2.485870 0
M  V30 34 H -1.543333 -6.216370 0.939212 0
M  V30 35 H -1.551674 -5.696827 -1.457219 0
M  V30 36 H 0.103351 -4.080586 -2.303577 0
M  V30 37 H 1.682478 -3.040618 -0.817976 0
M  V30 38 H -1.216774 -1.335145 5.260381 0
M  V30 39 H -2.100693 0.829805 5.944620 0
M  V30 40 H -1.444184 2.861111 4.848005 0
M  V30 41 H -0.163340 3.984091 3.236234 0
M  V30 42 H 2.095124 2.798654 1.892342 0
M  V30 43 H 1.395347 4.466897 1.642128 0
M  V30 44 H 1.207650 0.957584 -0.044723 0
M  V30 45 H 0.794511 -0.526823 -1.688942 0
M  V30 46 H 0.221493 -2.069474 -3.600974 0
M  V30 47 H -2.515967 0.769122 -5.158660 0
M  V30 48 H -2.002876 2.280524 -3.352385 0
M  V30 49 H 1.069598 0.614111 2.280933 0
M  V30 END ATOM
M  V30 BEGIN BOND
M  V30 1 2 1 2
M  V30 2 1 2 3
M  V30 3 1 3 4
M  V30 4 1 4 5
M  V30 5 2 5 6
M  V30 6 1 6 7
M  V30 7 2 7 8
M  V30 8 1 8 9
M  V30 9 2 9 10
M  V30 10 1 2 11
M  V30 11 2 11 12
M  V30 12 1 12 13
M  V30 13 2 13 14
M  V30 14 1 14 15
M  V30 15 1 15 16
M  V30 16 1 16 17
M  V30 17 1 17 18
M  V30 18 1 18 19
M  V30 19 2 19 20
M  V30 20 1 20 21
M  V30 21 2 21 22
M  V30 22 1 22 23
M  V30 23 2 23 24
M  V30 24 1 24 25
M  V30 25 2 25 26
M  V30 26 1 20 27
M  V30 27 1 27 28
M  V30 28 2 15 29
M  V30 29 1 10 5
M  V30 30 1 29 11
M  V30 31 2 28 18
M  V30 32 1 26 21
M  V30 33 1 3 30
M  V30 34 1 4 31
M  V30 35 1 4 32
M  V30 36 1 6 33
M  V30 37 1 7 34
M  V30 38 1 8 35
M  V30 39 1 9 36
M  V30 40 1 10 37
M  V30 41 1 12 38
M  V30 42 1 13 39
M  V30 43 1 14 40
M  V30 44 1 16 41
M  V30 45 1 17 42
M  V30 46 1 17 43
M  V30 47 1 19 44
M  V30 48 1 22 45
M  V30 49 1 23 46
M  V30 50 1 25 47
M  V30 51 1 26 48
M  V30 52 1 29 49
M  V30 END BOND
M  V30 END CTAB
M  END
>  <Dataset>  (607) 
ChEMBL_Kinases

>  <Ligand_Instance>  (607) 
nan

>  <PDB_ID>  (607) 
nan

>  <Standardized_SMILES>  (607) 
O=C(NCc1ccccc1)c1cccc(NCc2cc(-c3ccncc3)on2)c1

>  <Name>  (607) 
nan

>  <Pocket>  (607) 
nan

>  <ATP_Site>  (607) 
nan

>  <Peripheral>  (607) 
nan

>  <Num_H_Atoms_ProtBoundConf>  (607) 
nan

>  <Num_Resolved_Atoms>  (607) 
nan

>  <Num_Not_Resolved_Atoms>  (607) 
nan

$$$$
CHEMBL4089255
     RDKit          3D

  0  0  0  0  0  0  0  0  0  0999 V3000
M  V30 BEGIN CTAB
M  V30 COUNTS 33 35 0 0 0
M  V30 BEGIN ATOM
M  V30 1 N 0.462331 -3.029916 3.565803 0
M  V30 2 C 1.738978 -2.405880 3.458399 0
M  V30 3 O 2.658749 -2.777551 4.233709 0
M  V30 4 C 1.948971 -1.351434 2.452513 0
M  V30 5 C 3.198559 -0.772951 2.381091 0
M  V30 6 C 3.378889 0.213100 1.433679 0
M  V30 7 Cl 4.924913 0.988146 1.283710 0
M  V30 8 C 2.288229 0.542472 0.629819 0
M  V30 9 C 2.286784 1.504338 -0.369286 0
M  V30 10 Cl 3.568784 2.576330 -0.939253 0
M  V30 11 C 1.002413 1.459703 -0.866781 0
M  V30 12 I 0.278817 2.656687 -2.415300 0
M  V30 13 N 0.267071 0.548174 -0.231915 0
M  V30 14 C -1.084613 0.113713 -0.353485 0
M  V30 15 C -1.132006 -1.409277 -0.545480 0
M  V30 16 C -2.428639 -1.864699 0.096903 0
M  V30 17 N -3.469135 -1.144485 -0.631265 0
M  V30 18 C -3.211997 -0.003853 -1.443778 0
M  V30 19 O -4.159937 0.426465 -2.159643 0
M  V30 20 C -1.871904 0.686424 -1.471487 0
M  V30 21 C 1.037772 -0.038741 0.703707 0
M  V30 22 N 0.935326 -0.987383 1.645261 0
M  V30 23 H -0.055546 -3.906809 3.390767 0
M  V30 24 H -0.531888 -2.911209 3.861380 0
M  V30 25 H 3.968799 -1.112017 3.059331 0
M  V30 26 H -1.594993 0.352121 0.607978 0
M  V30 27 H -0.245297 -1.924361 -0.195256 0
M  V30 28 H -1.224325 -1.638281 -1.640994 0
M  V30 29 H -2.558895 -2.958079 0.033825 0
M  V30 30 H -2.422904 -1.488962 1.127881 0
M  V30 31 H -4.421629 -1.547342 -0.498385 0
M  V30 32 H -2.133753 1.763495 -1.310003 0
M  V30 33 H -1.456946 0.459991 -2.458338 0
M  V30 END ATOM
M  V30 BEGIN BOND
M  V30 1 1 1 2
M  V30 2 2 2 3
M  V30 3 1 2 4
M  V30 4 2 4 5
M  V30 5 1 5 6
M  V30 6 1 6 7
M  V30 7 2 6 8
M  V30 8 1 8 9
M  V30 9 1 9 10
M  V30 10 2 9 11
M  V30 11 1 11 12
M  V30 12 1 11 13
M  V30 13 1 13 14
M  V30 14 1 14 15
M  V30 15 1 15 16
M  V30 16 1 16 17
M  V30 17 1 17 18
M  V30 18 2 18 19
M  V30 19 1 18 20
M  V30 20 1 13 21
M  V30 21 2 21 22
M  V30 22 1 22 4
M  V30 23 1 21 8
M  V30 24 1 20 14
M  V30 25 1 1 23
M  V30 26 1 1 24
M  V30 27 1 5 25
M  V30 28 1 14 26
M  V30 29 1 15 27
M  V30 30 1 15 28
M  V30 31 1 16 29
M  V30 32 1 16 30
M  V30 33 1 17 31
M  V30 34 1 20 32
M  V30 35 1 20 33
M  V30 END BOND
M  V30 END CTAB
M  END
>  <Dataset>  (608) 
ChEMBL_Kinases

>  <Ligand_Instance>  (608) 
nan

>  <PDB_ID>  (608) 
nan

>  <Standardized_SMILES>  (608) 
NC(=O)c1cc(Cl)c2c(Cl)c(I)n(C3CCNC(=O)C3)c2n1

>  <Name>  (608) 
nan

>  <Pocket>  (608) 
nan

>  <ATP_Site>  (608) 
nan

>  <Peripheral>  (608) 
nan

>  <Num_H_Atoms_ProtBoundConf>  (608) 
nan

>  <Num_Resolved_Atoms>  (608) 
nan

>  <Num_Not_Resolved_Atoms>  (608) 
nan

$$$$
CHEMBL3425865
     RDKit          3D

  0  0  0  0  0  0  0  0  0  0999 V3000
M  V30 BEGIN CTAB
M  V30 COUNTS 48 51 0 0 0
M  V30 BEGIN ATOM
M  V30 1 C 0.052304 -6.019265 2.601341 0
M  V30 2 O -1.146229 -5.330760 2.870996 0
M  V30 3 C -1.318873 -4.034426 2.412860 0
M  V30 4 C -0.423393 -3.275509 1.681049 0
M  V30 5 C -0.730371 -1.988566 1.290597 0
M  V30 6 C 0.250089 -1.221869 0.521686 0
M  V30 7 C 0.175981 0.155584 0.769171 0
M  V30 8 N 1.057169 0.914331 0.093059 0
M  V30 9 C 1.970548 0.456154 -0.772493 0
M  V30 10 C 2.863876 1.201792 -1.454237 0
M  V30 11 N 3.053584 2.628531 -1.442012 0
M  V30 12 C 2.475739 3.543295 -2.424835 0
M  V30 13 C 2.311266 4.908165 -1.846117 0
M  V30 14 O 1.925225 4.917836 -0.511820 0
M  V30 15 C 2.835693 4.295561 0.315902 0
M  V30 16 C 3.818339 3.426195 -0.484439 0
M  V30 17 S 3.818605 0.201945 -2.422424 0
M  V30 18 N 2.982506 -1.399920 -1.905119 0
M  V30 19 C 2.062394 -0.892904 -1.032348 0
M  V30 20 C 1.171596 -1.723540 -0.357593 0
M  V30 21 C -1.960635 -1.479385 1.652411 0
M  V30 22 C -2.888846 -2.179036 2.374683 0
M  V30 23 O -4.108537 -1.673875 2.733298 0
M  V30 24 C -4.624139 -0.415113 2.451197 0
M  V30 25 C -2.558396 -3.481868 2.761068 0
M  V30 26 O -3.508716 -4.185876 3.495841 0
M  V30 27 C -4.465301 -4.969667 2.808372 0
M  V30 28 H -0.064533 -6.515798 1.595305 0
M  V30 29 H 0.244828 -6.816519 3.362050 0
M  V30 30 H 0.955361 -5.370609 2.589455 0
M  V30 31 H 0.510827 -3.754119 1.444253 0
M  V30 32 H -0.524584 0.615005 1.447617 0
M  V30 33 H 3.128090 3.628525 -3.319494 0
M  V30 34 H 1.501754 3.122083 -2.717746 0
M  V30 35 H 1.601443 5.476853 -2.477816 0
M  V30 36 H 3.282081 5.443123 -1.882010 0
M  V30 37 H 3.453804 5.075487 0.804568 0
M  V30 38 H 2.394929 3.665106 1.102538 0
M  V30 39 H 4.572508 4.066494 -0.948580 0
M  V30 40 H 4.318212 2.816370 0.288891 0
M  V30 41 H 1.120122 -2.793264 -0.454438 0
M  V30 42 H -2.237364 -0.488143 1.369936 0
M  V30 43 H -4.182542 0.088718 1.591344 0
M  V30 44 H -4.483871 0.196969 3.389124 0
M  V30 45 H -5.719486 -0.418534 2.288461 0
M  V30 46 H -4.378240 -6.047343 3.096547 0
M  V30 47 H -5.502843 -4.611006 3.036559 0
M  V30 48 H -4.337949 -4.924421 1.708069 0
M  V30 END ATOM
M  V30 BEGIN BOND
M  V30 1 1 1 2
M  V30 2 1 2 3
M  V30 3 2 3 4
M  V30 4 1 4 5
M  V30 5 1 5 6
M  V30 6 1 6 7
M  V30 7 2 7 8
M  V30 8 1 8 9
M  V30 9 2 9 10
M  V30 10 1 10 11
M  V30 11 1 11 12
M  V30 12 1 12 13
M  V30 13 1 13 14
M  V30 14 1 14 15
M  V30 15 1 15 16
M  V30 16 1 10 17
M  V30 17 1 17 18
M  V30 18 2 18 19
M  V30 19 1 19 20
M  V30 20 2 5 21
M  V30 21 1 21 22
M  V30 22 1 22 23
M  V30 23 1 23 24
M  V30 24 2 22 25
M  V30 25 1 25 26
M  V30 26 1 26 27
M  V30 27 1 25 3
M  V30 28 2 20 6
M  V30 29 1 19 9
M  V30 30 1 16 11
M  V30 31 1 1 28
M  V30 32 1 1 29
M  V30 33 1 1 30
M  V30 34 1 4 31
M  V30 35 1 7 32
M  V30 36 1 12 33
M  V30 37 1 12 34
M  V30 38 1 13 35
M  V30 39 1 13 36
M  V30 40 1 15 37
M  V30 41 1 15 38
M  V30 42 1 16 39
M  V30 43 1 16 40
M  V30 44 1 20 41
M  V30 45 1 21 42
M  V30 46 1 24 43
M  V30 47 1 24 44
M  V30 48 1 24 45
M  V30 49 1 27 46
M  V30 50 1 27 47
M  V30 51 1 27 48
M  V30 END BOND
M  V30 END CTAB
M  END
>  <Dataset>  (609) 
ChEMBL_Kinases

>  <Ligand_Instance>  (609) 
nan

>  <PDB_ID>  (609) 
nan

>  <Standardized_SMILES>  (609) 
COc1cc(-c2cnc3c(N4CCOCC4)snc3c2)cc(OC)c1OC

>  <Name>  (609) 
nan

>  <Pocket>  (609) 
nan

>  <ATP_Site>  (609) 
nan

>  <Peripheral>  (609) 
nan

>  <Num_H_Atoms_ProtBoundConf>  (609) 
nan

>  <Num_Resolved_Atoms>  (609) 
nan

>  <Num_Not_Resolved_Atoms>  (609) 
nan

$$$$
CHEMBL4087117
     RDKit          3D

  0  0  0  0  0  0  0  0  0  0999 V3000
M  V30 BEGIN CTAB
M  V30 COUNTS 50 53 0 0 0
M  V30 BEGIN ATOM
M  V30 1 O 0.558584 -0.595995 4.599083 0
M  V30 2 C 0.843654 0.086264 3.594743 0
M  V30 3 N 1.956217 -0.541253 2.921778 0
M  V30 4 C 2.850391 -1.681268 2.973130 0
M  V30 5 C 3.231311 -2.182861 1.623446 0
M  V30 6 C 4.416851 -1.534376 1.204820 0
M  V30 7 C 5.062012 -1.739800 -0.016150 0
M  V30 8 C 4.481066 -2.656424 -0.876474 0
M  V30 9 C 3.333513 -3.284173 -0.469590 0
M  V30 10 C 2.703989 -3.085870 0.720154 0
M  V30 11 C 0.346195 1.312440 2.977122 0
M  V30 12 C -0.158452 2.322217 3.750229 0
M  V30 13 C -0.657673 3.489271 3.157568 0
M  V30 14 C -0.618695 3.575652 1.765091 0
M  V30 15 C -0.116492 2.569992 0.980902 0
M  V30 16 N -0.007325 2.607745 -0.462160 0
M  V30 17 C 0.405341 1.419762 -1.226606 0
M  V30 18 C -0.733281 0.473417 -1.322313 0
M  V30 19 C -1.347017 -0.508337 -0.577922 0
M  V30 20 C -2.429346 -1.071065 -1.241595 0
M  V30 21 C -3.351455 -2.112011 -0.810610 0
M  V30 22 C -3.207646 -2.710114 0.430466 0
M  V30 23 C -4.115563 -3.679364 0.792624 0
M  V30 24 N -5.116466 -4.024352 -0.058419 0
M  V30 25 C -5.266993 -3.461741 -1.250470 0
M  V30 26 C -4.384558 -2.477526 -1.673783 0
M  V30 27 N -2.473016 -0.415831 -2.417055 0
M  V30 28 N -1.496044 0.477414 -2.467713 0
M  V30 29 C 0.367025 1.434601 1.609248 0
M  V30 30 H 2.340774 -0.028149 2.067619 0
M  V30 31 H 2.296825 -2.504448 3.541598 0
M  V30 32 H 3.751792 -1.531571 3.570160 0
M  V30 33 H 4.979406 -0.800150 1.788921 0
M  V30 34 H 5.958592 -1.247356 -0.323125 0
M  V30 35 H 4.909095 -2.877539 -1.841936 0
M  V30 36 H 2.809251 -4.014168 -1.091822 0
M  V30 37 H 1.811885 -3.506678 1.160002 0
M  V30 38 H -0.169388 2.218205 4.828947 0
M  V30 39 H -1.061312 4.311200 3.737648 0
M  V30 40 H -0.993240 4.467948 1.238986 0
M  V30 41 H -0.235038 3.506571 -0.972868 0
M  V30 42 H 1.289224 0.923646 -0.810077 0
M  V30 43 H 0.697875 1.735853 -2.249560 0
M  V30 44 H -1.000681 -0.777622 0.381991 0
M  V30 45 H -2.391659 -2.401128 1.091584 0
M  V30 46 H -4.054943 -4.170648 1.735591 0
M  V30 47 H -6.029733 -3.674680 -1.978120 0
M  V30 48 H -4.445817 -1.970250 -2.640628 0
M  V30 49 H -1.404030 1.074536 -3.341718 0
M  V30 50 H 0.766517 0.618573 1.046529 0
M  V30 END ATOM
M  V30 BEGIN BOND
M  V30 1 2 1 2
M  V30 2 1 2 3
M  V30 3 1 3 4
M  V30 4 1 4 5
M  V30 5 2 5 6
M  V30 6 1 6 7
M  V30 7 2 7 8
M  V30 8 1 8 9
M  V30 9 2 9 10
M  V30 10 1 2 11
M  V30 11 2 11 12
M  V30 12 1 12 13
M  V30 13 2 13 14
M  V30 14 1 14 15
M  V30 15 1 15 16
M  V30 16 1 16 17
M  V30 17 1 17 18
M  V30 18 2 18 19
M  V30 19 1 19 20
M  V30 20 1 20 21
M  V30 21 2 21 22
M  V30 22 1 22 23
M  V30 23 2 23 24
M  V30 24 1 24 25
M  V30 25 2 25 26
M  V30 26 2 20 27
M  V30 27 1 27 28
M  V30 28 2 15 29
M  V30 29 1 10 5
M  V30 30 1 29 11
M  V30 31 1 28 18
M  V30 32 1 26 21
M  V30 33 1 3 30
M  V30 34 1 4 31
M  V30 35 1 4 32
M  V30 36 1 6 33
M  V30 37 1 7 34
M  V30 38 1 8 35
M  V30 39 1 9 36
M  V30 40 1 10 37
M  V30 41 1 12 38
M  V30 42 1 13 39
M  V30 43 1 14 40
M  V30 44 1 16 41
M  V30 45 1 17 42
M  V30 46 1 17 43
M  V30 47 1 19 44
M  V30 48 1 22 45
M  V30 49 1 23 46
M  V30 50 1 25 47
M  V30 51 1 26 48
M  V30 52 1 28 49
M  V30 53 1 29 50
M  V30 END BOND
M  V30 END CTAB
M  END
>  <Dataset>  (610) 
ChEMBL_Kinases

>  <Ligand_Instance>  (610) 
nan

>  <PDB_ID>  (610) 
nan

>  <Standardized_SMILES>  (610) 
O=C(NCc1ccccc1)c1cccc(NCc2cc(-c3ccncc3)n[nH]2)c1

>  <Name>  (610) 
nan

>  <Pocket>  (610) 
nan

>  <ATP_Site>  (610) 
nan

>  <Peripheral>  (610) 
nan

>  <Num_H_Atoms_ProtBoundConf>  (610) 
nan

>  <Num_Resolved_Atoms>  (610) 
nan

>  <Num_Not_Resolved_Atoms>  (610) 
nan

$$$$
CHEMBL4799007
     RDKit          3D

  0  0  0  0  0  0  0  0  0  0999 V3000
M  V30 BEGIN CTAB
M  V30 COUNTS 56 60 0 0 0
M  V30 BEGIN ATOM
M  V30 1 C 1.189328 -4.042726 3.763627 0
M  V30 2 O 1.553808 -3.505415 2.614488 0
M  V30 3 C 1.889162 -2.991641 1.489707 0
M  V30 4 C 3.110514 -2.372741 1.797593 0
M  V30 5 C 3.827154 -1.595962 0.752830 0
M  V30 6 C 3.024387 -1.698297 -0.408110 0
M  V30 7 N 3.376421 -0.336258 -0.968610 0
M  V30 8 C 2.400306 0.366040 -1.833661 0
M  V30 9 O 1.375614 -0.005275 -2.404292 0
M  V30 10 C 2.983561 1.754176 -1.747707 0
M  V30 11 N 3.906453 2.753002 -1.889142 0
M  V30 12 N 3.596934 3.763071 -1.117909 0
M  V30 13 C 2.463893 3.560001 -0.418648 0
M  V30 14 C 1.767260 4.311448 0.543823 0
M  V30 15 C 0.656141 3.793670 1.115407 0
M  V30 16 C 0.055431 2.605734 0.922031 0
M  V30 17 C -0.711433 1.347038 1.231096 0
M  V30 18 C -0.176915 0.785277 2.440820 0
M  V30 19 N -0.807968 -0.310310 2.921185 0
M  V30 20 C -1.883776 -0.754884 2.176273 0
M  V30 21 C -2.393593 -0.237575 1.037910 0
M  V30 22 C -3.642255 -0.769056 0.514753 0
M  V30 23 N -3.406395 -1.989346 -0.142114 0
M  V30 24 C -4.034700 -3.128051 0.476694 0
M  V30 25 C -3.549749 -4.274152 -0.473299 0
M  V30 26 C -3.552513 -3.568185 -1.827262 0
M  V30 27 C -3.855080 -2.082018 -1.541947 0
M  V30 28 C -1.779730 0.916870 0.466936 0
M  V30 29 C 0.832727 1.904489 -0.090744 0
M  V30 30 C 2.029498 2.271709 -0.788782 0
M  V30 31 C 1.873431 -2.271260 -0.815390 0
M  V30 32 N 1.351581 -2.924509 0.262183 0
M  V30 33 H 0.225864 -4.621168 3.758656 0
M  V30 34 H 0.974182 -3.171855 4.493035 0
M  V30 35 H 1.915547 -4.693886 4.353985 0
M  V30 36 H 3.661993 -2.375211 2.722547 0
M  V30 37 H 4.774177 -1.157631 0.988613 0
M  V30 38 H 4.329432 0.171321 -0.821731 0
M  V30 39 H 4.122979 4.639105 -0.982500 0
M  V30 40 H 2.031755 5.273828 0.865750 0
M  V30 41 H -0.039604 4.160582 1.910528 0
M  V30 42 H 0.695554 1.210318 2.908796 0
M  V30 43 H -2.300776 -1.677923 2.643547 0
M  V30 44 H -4.170416 0.012949 -0.133944 0
M  V30 45 H -4.324161 -0.878314 1.395097 0
M  V30 46 H -5.135787 -3.169805 0.391682 0
M  V30 47 H -3.702680 -3.279057 1.496146 0
M  V30 48 H -4.154286 -5.167542 -0.411411 0
M  V30 49 H -2.489573 -4.434977 -0.182992 0
M  V30 50 H -2.647307 -3.712085 -2.369991 0
M  V30 51 H -4.451709 -4.054858 -2.387793 0
M  V30 52 H -3.160342 -1.495595 -2.179733 0
M  V30 53 H -4.894671 -1.836983 -1.747904 0
M  V30 54 H -2.136300 1.411954 -0.395589 0
M  V30 55 H 0.494584 0.918700 -0.480646 0
M  V30 56 H 1.535555 -2.152592 -1.771039 0
M  V30 END ATOM
M  V30 BEGIN BOND
M  V30 1 1 1 2
M  V30 2 1 2 3
M  V30 3 2 3 4
M  V30 4 1 4 5
M  V30 5 2 5 6
M  V30 6 1 6 7
M  V30 7 1 7 8
M  V30 8 2 8 9
M  V30 9 1 8 10
M  V30 10 2 10 11
M  V30 11 1 11 12
M  V30 12 1 12 13
M  V30 13 2 13 14
M  V30 14 1 14 15
M  V30 15 2 15 16
M  V30 16 1 16 17
M  V30 17 2 17 18
M  V30 18 1 18 19
M  V30 19 2 19 20
M  V30 20 1 20 21
M  V30 21 1 21 22
M  V30 22 1 22 23
M  V30 23 1 23 24
M  V30 24 1 24 25
M  V30 25 1 25 26
M  V30 26 1 26 27
M  V30 27 2 21 28
M  V30 28 1 16 29
M  V30 29 2 29 30
M  V30 30 1 6 31
M  V30 31 2 31 32
M  V30 32 1 32 3
M  V30 33 1 30 10
M  V30 34 1 30 13
M  V30 35 1 28 17
M  V30 36 1 27 23
M  V30 37 1 1 33
M  V30 38 1 1 34
M  V30 39 1 1 35
M  V30 40 1 4 36
M  V30 41 1 5 37
M  V30 42 1 7 38
M  V30 43 1 12 39
M  V30 44 1 14 40
M  V30 45 1 15 41
M  V30 46 1 18 42
M  V30 47 1 20 43
M  V30 48 1 22 44
M  V30 49 1 22 45
M  V30 50 1 24 46
M  V30 51 1 24 47
M  V30 52 1 25 48
M  V30 53 1 25 49
M  V30 54 1 26 50
M  V30 55 1 26 51
M  V30 56 1 27 52
M  V30 57 1 27 53
M  V30 58 1 28 54
M  V30 59 1 29 55
M  V30 60 1 31 56
M  V30 END BOND
M  V30 END CTAB
M  END
>  <Dataset>  (611) 
ChEMBL_Kinases

>  <Ligand_Instance>  (611) 
nan

>  <PDB_ID>  (611) 
nan

>  <Standardized_SMILES>  (611) 
COc1ccc(NC(=O)c2n[nH]c3ccc(-c4cncc(CN5CCCC5)c4)cc23)cn1

>  <Name>  (611) 
nan

>  <Pocket>  (611) 
nan

>  <ATP_Site>  (611) 
nan

>  <Peripheral>  (611) 
nan

>  <Num_H_Atoms_ProtBoundConf>  (611) 
nan

>  <Num_Resolved_Atoms>  (611) 
nan

>  <Num_Not_Resolved_Atoms>  (611) 
nan

$$$$
CHEMBL4798969
     RDKit          3D

  0  0  0  0  0  0  0  0  0  0999 V3000
M  V30 BEGIN CTAB
M  V30 COUNTS 57 62 0 0 0
M  V30 BEGIN ATOM
M  V30 1 C 4.109300 -3.272708 3.553674 0
M  V30 2 N 2.681073 -3.433858 3.713111 0
M  V30 3 C 1.955092 -2.243408 3.365859 0
M  V30 4 C 2.310410 -1.885818 1.954985 0
M  V30 5 N 2.201963 -2.990085 1.047985 0
M  V30 6 C 2.331585 -2.686913 -0.352970 0
M  V30 7 C 2.609375 -1.345806 -0.686004 0
M  V30 8 C 2.748860 -0.869660 -1.995597 0
M  V30 9 N 2.974053 0.560559 -2.154173 0
M  V30 10 C 1.640622 1.032785 -1.882876 0
M  V30 11 N 0.901281 0.589361 -0.851491 0
M  V30 12 C -0.380540 1.006312 -0.625286 0
M  V30 13 C -0.934050 1.913869 -1.486701 0
M  V30 14 C -2.215105 2.490580 -1.484133 0
M  V30 15 C -3.193010 2.143950 -0.448771 0
M  V30 16 C -3.900735 2.953715 0.397955 0
M  V30 17 C -4.758501 2.392320 1.318195 0
M  V30 18 C -4.934894 1.030618 1.418522 0
M  V30 19 N -5.791357 0.523469 2.365993 0
M  V30 20 C -5.949502 -0.825782 2.468655 0
M  V30 21 C -5.267006 -1.711309 1.640219 0
M  V30 22 C -4.426477 -1.161746 0.715435 0
M  V30 23 C -4.227257 0.199393 0.565634 0
M  V30 24 C -3.375288 0.764212 -0.345953 0
M  V30 25 C -2.194803 3.312032 -2.585866 0
M  V30 26 N -1.010253 3.252861 -3.216931 0
M  V30 27 C -0.199418 2.387768 -2.553646 0
M  V30 28 N 1.070745 1.924408 -2.710266 0
M  V30 29 C 2.602987 -1.797461 -3.015116 0
M  V30 30 C 2.329647 -3.109611 -2.650935 0
M  V30 31 N 2.200583 -3.529613 -1.382008 0
M  V30 32 C 1.966103 -4.319874 1.514362 0
M  V30 33 C 2.184385 -4.559014 2.958070 0
M  V30 34 H 4.421833 -2.220304 3.586571 0
M  V30 35 H 4.375093 -3.737295 2.578860 0
M  V30 36 H 4.576213 -3.919956 4.332114 0
M  V30 37 H 0.879545 -2.472373 3.413837 0
M  V30 38 H 2.182657 -1.410620 4.046944 0
M  V30 39 H 3.349232 -1.450509 1.964504 0
M  V30 40 H 1.632168 -1.026315 1.667044 0
M  V30 41 H 2.739972 -0.580389 0.068131 0
M  V30 42 H 3.849695 1.053175 -2.371533 0
M  V30 43 H -0.882514 0.579701 0.252671 0
M  V30 44 H -3.674634 3.999154 0.220375 0
M  V30 45 H -5.282407 3.090269 1.957217 0
M  V30 46 H -6.629173 -1.215507 3.218906 0
M  V30 47 H -5.387811 -2.803791 1.716992 0
M  V30 48 H -3.882274 -1.814116 0.052512 0
M  V30 49 H -2.878408 0.009232 -0.967043 0
M  V30 50 H -3.074151 3.899943 -2.831385 0
M  V30 51 H -0.721161 3.768274 -4.077126 0
M  V30 52 H 2.710837 -1.390318 -4.017594 0
M  V30 53 H 2.221534 -3.788407 -3.501150 0
M  V30 54 H 2.506015 -5.042879 0.883170 0
M  V30 55 H 0.875110 -4.532917 1.272976 0
M  V30 56 H 2.875126 -5.394710 3.171452 0
M  V30 57 H 1.219648 -4.848639 3.482717 0
M  V30 END ATOM
M  V30 BEGIN BOND
M  V30 1 1 1 2
M  V30 2 1 2 3
M  V30 3 1 3 4
M  V30 4 1 4 5
M  V30 5 1 5 6
M  V30 6 2 6 7
M  V30 7 1 7 8
M  V30 8 1 8 9
M  V30 9 1 9 10
M  V30 10 2 10 11
M  V30 11 1 11 12
M  V30 12 2 12 13
M  V30 13 1 13 14
M  V30 14 1 14 15
M  V30 15 2 15 16
M  V30 16 1 16 17
M  V30 17 2 17 18
M  V30 18 1 18 19
M  V30 19 2 19 20
M  V30 20 1 20 21
M  V30 21 2 21 22
M  V30 22 1 22 23
M  V30 23 2 23 24
M  V30 24 2 14 25
M  V30 25 1 25 26
M  V30 26 1 26 27
M  V30 27 2 27 28
M  V30 28 2 8 29
M  V30 29 1 29 30
M  V30 30 2 30 31
M  V30 31 1 5 32
M  V30 32 1 32 33
M  V30 33 1 33 2
M  V30 34 1 31 6
M  V30 35 1 28 10
M  V30 36 1 27 13
M  V30 37 1 24 15
M  V30 38 1 23 18
M  V30 39 1 1 34
M  V30 40 1 1 35
M  V30 41 1 1 36
M  V30 42 1 3 37
M  V30 43 1 3 38
M  V30 44 1 4 39
M  V30 45 1 4 40
M  V30 46 1 7 41
M  V30 47 1 9 42
M  V30 48 1 12 43
M  V30 49 1 16 44
M  V30 50 1 17 45
M  V30 51 1 20 46
M  V30 52 1 21 47
M  V30 53 1 22 48
M  V30 54 1 24 49
M  V30 55 1 25 50
M  V30 56 1 26 51
M  V30 57 1 29 52
M  V30 58 1 30 53
M  V30 59 1 32 54
M  V30 60 1 32 55
M  V30 61 1 33 56
M  V30 62 1 33 57
M  V30 END BOND
M  V30 END CTAB
M  END
>  <Dataset>  (612) 
ChEMBL_Kinases

>  <Ligand_Instance>  (612) 
nan

>  <PDB_ID>  (612) 
nan

>  <Standardized_SMILES>  (612) 
CN1CCN(c2cc(Nc3ncc4c(-c5ccc6ncccc6c5)c[nH]c4n3)ccn2)CC1

>  <Name>  (612) 
nan

>  <Pocket>  (612) 
nan

>  <ATP_Site>  (612) 
nan

>  <Peripheral>  (612) 
nan

>  <Num_H_Atoms_ProtBoundConf>  (612) 
nan

>  <Num_Resolved_Atoms>  (612) 
nan

>  <Num_Not_Resolved_Atoms>  (612) 
nan

$$$$
CHEMBL3394173
     RDKit          3D

  0  0  0  0  0  0  0  0  0  0999 V3000
M  V30 BEGIN CTAB
M  V30 COUNTS 41 44 0 0 0
M  V30 BEGIN ATOM
M  V30 1 C -0.296902 -6.818144 0.178865 0
M  V30 2 C -0.774938 -5.540473 -0.437782 0
M  V30 3 C -1.943833 -5.847849 -1.353973 0
M  V30 4 O 0.198983 -4.865438 -1.203199 0
M  V30 5 C 0.558249 -3.582197 -0.857047 0
M  V30 6 C 1.502792 -2.999057 -1.642736 0
M  V30 7 N 1.918935 -1.751537 -1.387563 0
M  V30 8 C 1.481727 -0.969531 -0.385596 0
M  V30 9 C 2.068215 0.341559 -0.265945 0
M  V30 10 C 3.159666 0.717844 -1.019502 0
M  V30 11 N 3.514140 1.979470 -0.745217 0
M  V30 12 C 2.686464 2.478548 0.182585 0
M  V30 13 C 2.615445 3.710976 0.793893 0
M  V30 14 C 1.613863 3.907471 1.719614 0
M  V30 15 C 0.714862 2.917086 2.027738 0
M  V30 16 C -0.384002 3.029912 2.995314 0
M  V30 17 N -1.296933 2.490839 3.517929 0
M  V30 18 N -2.058839 3.053819 4.404218 0
M  V30 19 C -2.014521 4.112196 4.837569 0
M  V30 20 N -2.843948 4.768203 5.821569 0
M  V30 21 S -0.489902 4.718868 3.834312 0
M  V30 22 C 0.827432 1.706323 1.391773 0
M  V30 23 C 1.804841 1.464635 0.467264 0
M  V30 24 C 0.542289 -1.607940 0.361661 0
M  V30 25 N 0.086606 -2.853206 0.155178 0
M  V30 26 H -0.332754 -7.677033 -0.519925 0
M  V30 27 H 0.677415 -6.659167 0.661457 0
M  V30 28 H -1.044864 -7.065218 0.985076 0
M  V30 29 H -1.125083 -4.883799 0.383992 0
M  V30 30 H -2.905063 -5.841487 -0.763677 0
M  V30 31 H -1.766251 -6.824247 -1.841089 0
M  V30 32 H -2.001359 -5.033491 -2.095521 0
M  V30 33 H 1.952634 -3.505969 -2.493389 0
M  V30 34 H 3.752394 0.169581 -1.771154 0
M  V30 35 H 4.288126 2.539285 -1.145146 0
M  V30 36 H 3.322226 4.493568 0.553204 0
M  V30 37 H 1.535155 4.863676 2.213914 0
M  V30 38 H -3.701108 5.120314 5.340044 0
M  V30 39 H -2.515223 4.808812 6.814018 0
M  V30 40 H 0.112900 0.957270 1.639358 0
M  V30 41 H 0.113001 -1.120523 1.203001 0
M  V30 END ATOM
M  V30 BEGIN BOND
M  V30 1 1 1 2
M  V30 2 1 2 3
M  V30 3 1 2 4
M  V30 4 1 4 5
M  V30 5 2 5 6
M  V30 6 1 6 7
M  V30 7 2 7 8
M  V30 8 1 8 9
M  V30 9 2 9 10
M  V30 10 1 10 11
M  V30 11 1 11 12
M  V30 12 2 12 13
M  V30 13 1 13 14
M  V30 14 2 14 15
M  V30 15 1 15 16
M  V30 16 2 16 17
M  V30 17 1 17 18
M  V30 18 2 18 19
M  V30 19 1 19 20
M  V30 20 1 19 21
M  V30 21 1 15 22
M  V30 22 2 22 23
M  V30 23 1 8 24
M  V30 24 2 24 25
M  V30 25 1 25 5
M  V30 26 1 23 9
M  V30 27 1 23 12
M  V30 28 1 21 16
M  V30 29 1 1 26
M  V30 30 1 1 27
M  V30 31 1 1 28
M  V30 32 1 2 29
M  V30 33 1 3 30
M  V30 34 1 3 31
M  V30 35 1 3 32
M  V30 36 1 6 33
M  V30 37 1 10 34
M  V30 38 1 11 35
M  V30 39 1 13 36
M  V30 40 1 14 37
M  V30 41 1 20 38
M  V30 42 1 20 39
M  V30 43 1 22 40
M  V30 44 1 24 41
M  V30 END BOND
M  V30 END CTAB
M  END
>  <Dataset>  (613) 
ChEMBL_Kinases

>  <Ligand_Instance>  (613) 
nan

>  <PDB_ID>  (613) 
nan

>  <Standardized_SMILES>  (613) 
CC(C)Oc1cnc(-c2c[nH]c3ccc(-c4nnc(N)s4)cc23)cn1

>  <Name>  (613) 
nan

>  <Pocket>  (613) 
nan

>  <ATP_Site>  (613) 
nan

>  <Peripheral>  (613) 
nan

>  <Num_H_Atoms_ProtBoundConf>  (613) 
nan

>  <Num_Resolved_Atoms>  (613) 
nan

>  <Num_Not_Resolved_Atoms>  (613) 
nan

$$$$
CHEMBL4798951
     RDKit          3D

  0  0  0  0  0  0  0  0  0  0999 V3000
M  V30 BEGIN CTAB
M  V30 COUNTS 72 77 0 0 0
M  V30 BEGIN ATOM
M  V30 1 C 1.466432 -2.146234 3.226303 0
M  V30 2 C 1.205269 -3.414215 2.466703 0
M  V30 3 N 2.359083 -4.094762 2.011815 0
M  V30 4 C 3.110165 -3.511285 0.952974 0
M  V30 5 C 3.670086 -2.176339 1.231584 0
M  V30 6 C 4.883320 -2.216702 1.935497 0
M  V30 7 N 5.437196 -1.011432 2.168006 0
M  V30 8 C 4.862238 0.106133 1.753035 0
M  V30 9 C 3.689616 0.233214 1.063948 0
M  V30 10 C 3.218114 1.529967 0.606777 0
M  V30 11 C 4.102636 2.598494 0.821008 0
M  V30 12 C 3.860086 3.878480 0.365950 0
M  V30 13 C 2.652023 4.024129 -0.331500 0
M  V30 14 N 2.234471 5.156780 -0.911405 0
M  V30 15 N 1.112522 4.822487 -1.478043 0
M  V30 16 C 0.778724 3.535394 -1.295463 0
M  V30 17 C -0.371604 2.882512 -1.883888 0
M  V30 18 N -0.983173 1.697932 -1.794141 0
M  V30 19 C -2.090163 1.710443 -2.569777 0
M  V30 20 C -3.103545 0.840605 -2.922514 0
M  V30 21 C -3.202474 -0.430140 -2.256549 0
M  V30 22 C -4.514094 -0.899948 -2.136493 0
M  V30 23 C -4.950089 -2.066944 -1.516616 0
M  V30 24 F -6.251038 -2.429443 -1.460016 0
M  V30 25 C -3.959296 -2.847732 -0.953240 0
M  V30 26 C -2.649794 -2.430657 -1.038808 0
M  V30 27 N -1.673899 -3.188290 -0.377603 0
M  V30 28 C -1.847523 -4.339442 0.467381 0
M  V30 29 C -2.583018 -4.058921 1.727463 0
M  V30 30 N -1.993064 -3.061775 2.590192 0
M  V30 31 C -2.016847 -1.722850 2.062390 0
M  V30 32 C -2.767427 -3.035548 3.818054 0
M  V30 33 C -2.270030 -1.245403 -1.679531 0
M  V30 34 C -4.077361 1.238310 -3.812906 0
M  V30 35 C -4.140395 2.472115 -4.401940 0
M  V30 36 N -3.168364 3.329136 -4.063570 0
M  V30 37 C -2.208910 2.946570 -3.193754 0
M  V30 38 N -1.131352 3.637223 -2.740658 0
M  V30 39 C 1.782443 2.973775 -0.538016 0
M  V30 40 N 2.067688 1.748372 -0.071794 0
M  V30 41 C 3.084066 -0.976332 0.804706 0
M  V30 42 H 2.517220 -1.936249 3.447652 0
M  V30 43 H 0.965066 -2.202771 4.229442 0
M  V30 44 H 0.958923 -1.290361 2.714679 0
M  V30 45 H 0.561388 -4.073924 3.118938 0
M  V30 46 H 0.558283 -3.171233 1.554126 0
M  V30 47 H 2.144042 -5.101602 1.854317 0
M  V30 48 H 3.960792 -4.226879 0.724664 0
M  V30 49 H 2.465038 -3.483342 0.036419 0
M  V30 50 H 5.323568 -3.144593 2.256944 0
M  V30 51 H 5.477157 0.925462 2.055897 0
M  V30 52 H 5.070530 2.599434 1.348480 0
M  V30 53 H 4.525326 4.718924 0.518848 0
M  V30 54 H 2.593453 6.131237 -0.983995 0
M  V30 55 H -5.371229 -0.344354 -2.540025 0
M  V30 56 H -4.320225 -3.749921 -0.508058 0
M  V30 57 H -0.652137 -2.904124 -0.493489 0
M  V30 58 H -0.902477 -4.907601 0.618847 0
M  V30 59 H -2.473397 -5.056432 -0.151136 0
M  V30 60 H -3.635357 -3.869250 1.594576 0
M  V30 61 H -2.543017 -5.011474 2.364595 0
M  V30 62 H -3.026470 -1.529286 1.688222 0
M  V30 63 H -1.194776 -1.477194 1.382402 0
M  V30 64 H -1.904030 -1.037235 2.952790 0
M  V30 65 H -2.932728 -4.065466 4.148965 0
M  V30 66 H -2.263165 -2.394623 4.563850 0
M  V30 67 H -3.739863 -2.562259 3.581358 0
M  V30 68 H -1.258686 -0.886149 -1.771212 0
M  V30 69 H -4.906420 0.612035 -4.162969 0
M  V30 70 H -4.888138 2.805821 -5.099279 0
M  V30 71 H -1.006308 4.645196 -3.091349 0
M  V30 72 H 2.157198 -0.987595 0.270570 0
M  V30 END ATOM
M  V30 BEGIN BOND
M  V30 1 1 1 2
M  V30 2 1 2 3
M  V30 3 1 3 4
M  V30 4 1 4 5
M  V30 5 2 5 6
M  V30 6 1 6 7
M  V30 7 2 7 8
M  V30 8 1 8 9
M  V30 9 1 9 10
M  V30 10 2 10 11
M  V30 11 1 11 12
M  V30 12 2 12 13
M  V30 13 1 13 14
M  V30 14 1 14 15
M  V30 15 2 15 16
M  V30 16 1 16 17
M  V30 17 2 17 18
M  V30 18 1 18 19
M  V30 19 2 19 20
M  V30 20 1 20 21
M  V30 21 2 21 22
M  V30 22 1 22 23
M  V30 23 1 23 24
M  V30 24 2 23 25
M  V30 25 1 25 26
M  V30 26 1 26 27
M  V30 27 1 27 28
M  V30 28 1 28 29
M  V30 29 1 29 30
M  V30 30 1 30 31
M  V30 31 1 30 32
M  V30 32 2 26 33
M  V30 33 1 20 34
M  V30 34 2 34 35
M  V30 35 1 35 36
M  V30 36 2 36 37
M  V30 37 1 37 38
M  V30 38 1 16 39
M  V30 39 2 39 40
M  V30 40 2 9 41
M  V30 41 1 41 5
M  V30 42 1 40 10
M  V30 43 1 39 13
M  V30 44 1 38 17
M  V30 45 1 37 19
M  V30 46 1 33 21
M  V30 47 1 1 42
M  V30 48 1 1 43
M  V30 49 1 1 44
M  V30 50 1 2 45
M  V30 51 1 2 46
M  V30 52 1 3 47
M  V30 53 1 4 48
M  V30 54 1 4 49
M  V30 55 1 6 50
M  V30 56 1 8 51
M  V30 57 1 11 52
M  V30 58 1 12 53
M  V30 59 1 14 54
M  V30 60 1 22 55
M  V30 61 1 25 56
M  V30 62 1 27 57
M  V30 63 1 28 58
M  V30 64 1 28 59
M  V30 65 1 29 60
M  V30 66 1 29 61
M  V30 67 1 31 62
M  V30 68 1 31 63
M  V30 69 1 31 64
M  V30 70 1 32 65
M  V30 71 1 32 66
M  V30 72 1 32 67
M  V30 73 1 33 68
M  V30 74 1 34 69
M  V30 75 1 35 70
M  V30 76 1 38 71
M  V30 77 1 41 72
M  V30 END BOND
M  V30 END CTAB
M  END
>  <Dataset>  (614) 
ChEMBL_Kinases

>  <Ligand_Instance>  (614) 
nan

>  <PDB_ID>  (614) 
nan

>  <Standardized_SMILES>  (614) 
CCNCc1cncc(-c2ccc3[nH]nc(-c4nc5c(-c6cc(F)cc(NCCN(C)C)c6)ccnc5[nH]4)c3n2)c1

>  <Name>  (614) 
nan

>  <Pocket>  (614) 
nan

>  <ATP_Site>  (614) 
nan

>  <Peripheral>  (614) 
nan

>  <Num_H_Atoms_ProtBoundConf>  (614) 
nan

>  <Num_Resolved_Atoms>  (614) 
nan

>  <Num_Not_Resolved_Atoms>  (614) 
nan

$$$$
CHEMBL4798950
     RDKit          3D

  0  0  0  0  0  0  0  0  0  0999 V3000
M  V30 BEGIN CTAB
M  V30 COUNTS 40 43 0 0 0
M  V30 BEGIN ATOM
M  V30 1 C 1.575152 -5.883662 -1.171405 0
M  V30 2 C 1.998971 -5.155287 0.049860 0
M  V30 3 N 2.637199 -5.715088 1.090072 0
M  V30 4 N 2.864689 -4.769763 2.015921 0
M  V30 5 C 2.369175 -3.598999 1.564805 0
M  V30 6 C 2.329741 -2.308757 2.109937 0
M  V30 7 C 1.730452 -1.331740 1.350748 0
M  V30 8 C 1.172085 -1.529116 0.106075 0
M  V30 9 C 0.579735 -0.374094 -0.556784 0
M  V30 10 C -0.002026 -0.425687 -1.805921 0
M  V30 11 N -0.540173 0.665421 -2.407249 0
M  V30 12 C -0.514699 1.864049 -1.770101 0
M  V30 13 C 0.060444 1.935123 -0.524962 0
M  V30 14 N 0.171732 3.100758 0.263965 0
M  V30 15 C -0.765023 3.718675 1.181336 0
M  V30 16 C -1.109613 2.684950 2.240315 0
M  V30 17 F -0.067484 2.208640 2.980963 0
M  V30 18 C -2.142330 1.695061 1.774161 0
M  V30 19 N -2.738149 1.773780 3.115038 0
M  V30 20 C -2.258382 3.141168 3.151229 0
M  V30 21 N 0.591666 0.819292 0.049624 0
M  V30 22 C 1.210450 -2.796773 -0.428055 0
M  V30 23 C 1.807606 -3.805264 0.310644 0
M  V30 24 H 1.282770 -5.162685 -1.973820 0
M  V30 25 H 0.670368 -6.453624 -0.910185 0
M  V30 26 H 2.350740 -6.571996 -1.539777 0
M  V30 27 H 3.351737 -4.946167 2.927905 0
M  V30 28 H 2.761099 -2.120601 3.087580 0
M  V30 29 H 1.727039 -0.349797 1.820176 0
M  V30 30 H -0.037702 -1.354451 -2.337044 0
M  V30 31 H -0.901393 2.796844 -2.132019 0
M  V30 32 H 1.115845 3.476406 0.064312 0
M  V30 33 H -0.303082 4.608035 1.611058 0
M  V30 34 H -1.711065 3.947891 0.647909 0
M  V30 35 H -1.786370 0.703016 1.504171 0
M  V30 36 H -2.835020 2.200840 1.073860 0
M  V30 37 H -2.289604 1.128905 3.818317 0
M  V30 38 H -1.946604 3.512999 4.130488 0
M  V30 39 H -2.986796 3.788581 2.616917 0
M  V30 40 H 0.780297 -2.965329 -1.394237 0
M  V30 END ATOM
M  V30 BEGIN BOND
M  V30 1 1 1 2
M  V30 2 2 2 3
M  V30 3 1 3 4
M  V30 4 1 4 5
M  V30 5 2 5 6
M  V30 6 1 6 7
M  V30 7 2 7 8
M  V30 8 1 8 9
M  V30 9 2 9 10
M  V30 10 1 10 11
M  V30 11 2 11 12
M  V30 12 1 12 13
M  V30 13 1 13 14
M  V30 14 1 14 15
M  V30 15 1 15 16
M  V30 16 1 16 17
M  V30 17 1 16 18
M  V30 18 1 18 19
M  V30 19 1 19 20
M  V30 20 2 13 21
M  V30 21 1 8 22
M  V30 22 2 22 23
M  V30 23 1 23 2
M  V30 24 1 23 5
M  V30 25 1 21 9
M  V30 26 1 20 16
M  V30 27 1 1 24
M  V30 28 1 1 25
M  V30 29 1 1 26
M  V30 30 1 4 27
M  V30 31 1 6 28
M  V30 32 1 7 29
M  V30 33 1 10 30
M  V30 34 1 12 31
M  V30 35 1 14 32
M  V30 36 1 15 33
M  V30 37 1 15 34
M  V30 38 1 18 35
M  V30 39 1 18 36
M  V30 40 1 19 37
M  V30 41 1 20 38
M  V30 42 1 20 39
M  V30 43 1 22 40
M  V30 END BOND
M  V30 END CTAB
M  END
>  <Dataset>  (615) 
ChEMBL_Kinases

>  <Ligand_Instance>  (615) 
nan

>  <PDB_ID>  (615) 
nan

>  <Standardized_SMILES>  (615) 
Cc1n[nH]c2ccc(-c3cncc(NCC4(F)CNC4)n3)cc12

>  <Name>  (615) 
nan

>  <Pocket>  (615) 
nan

>  <ATP_Site>  (615) 
nan

>  <Peripheral>  (615) 
nan

>  <Num_H_Atoms_ProtBoundConf>  (615) 
nan

>  <Num_Resolved_Atoms>  (615) 
nan

>  <Num_Not_Resolved_Atoms>  (615) 
nan

$$$$
CHEMBL3394172
     RDKit          3D

  0  0  0  0  0  0  0  0  0  0999 V3000
M  V30 BEGIN CTAB
M  V30 COUNTS 45 49 0 0 0
M  V30 BEGIN ATOM
M  V30 1 N 1.568263 -6.864949 0.602094 0
M  V30 2 C 1.265492 -5.508816 0.223511 0
M  V30 3 N 1.089811 -4.523040 0.803418 0
M  V30 4 N 0.820655 -3.358935 0.300267 0
M  V30 5 C 0.711908 -3.116584 -0.819419 0
M  V30 6 C 0.429600 -2.018614 -1.840982 0
M  V30 7 C 0.394319 -2.189640 -3.204845 0
M  V30 8 C 0.120971 -1.066672 -3.953374 0
M  V30 9 C -0.101391 0.154202 -3.329512 0
M  V30 10 N -0.372799 1.302183 -3.940106 0
M  V30 11 C -0.513890 2.216964 -2.982226 0
M  V30 12 C -0.327888 1.636558 -1.736259 0
M  V30 13 C -0.380289 2.220031 -0.403345 0
M  V30 14 C -0.663878 3.588076 -0.363883 0
M  V30 15 N -0.743381 4.262573 0.813541 0
M  V30 16 C -0.536997 3.559916 1.959173 0
M  V30 17 C -0.259283 2.210370 1.881101 0
M  V30 18 O -0.068635 1.601054 3.098821 0
M  V30 19 C 0.223249 0.264087 3.341979 0
M  V30 20 C 1.541640 0.054514 4.051007 0
M  V30 21 C 1.164538 -0.064334 5.510146 0
M  V30 22 C -0.113035 -0.881372 5.415687 0
M  V30 23 C -0.823527 -0.439060 4.170159 0
M  V30 24 N -0.174534 1.517125 0.729198 0
M  V30 25 C -0.056344 0.282503 -1.949399 0
M  V30 26 C 0.219050 -0.842086 -1.168087 0
M  V30 27 S 1.032215 -4.834876 -1.559155 0
M  V30 28 H 2.483987 -7.218635 0.906123 0
M  V30 29 H 0.782374 -7.557735 0.564714 0
M  V30 30 H 0.585546 -3.193544 -3.556481 0
M  V30 31 H 0.093562 -1.202693 -5.025582 0
M  V30 32 H -0.469002 1.509393 -4.957380 0
M  V30 33 H -0.740896 3.268400 -3.127009 0
M  V30 34 H -0.832157 4.166935 -1.274280 0
M  V30 35 H -0.602109 4.103783 2.889402 0
M  V30 36 H 0.283926 -0.269094 2.370683 0
M  V30 37 H 2.284157 0.830722 3.855033 0
M  V30 38 H 1.981883 -0.920971 3.769781 0
M  V30 39 H 0.882044 0.937810 5.935893 0
M  V30 40 H 1.931122 -0.580048 6.093000 0
M  V30 41 H -0.681595 -0.639232 6.340968 0
M  V30 42 H 0.110307 -1.968507 5.328213 0
M  V30 43 H -1.260996 -1.327086 3.656388 0
M  V30 44 H -1.688994 0.204704 4.413292 0
M  V30 45 H 0.239833 -0.678381 -0.112121 0
M  V30 END ATOM
M  V30 BEGIN BOND
M  V30 1 1 1 2
M  V30 2 2 2 3
M  V30 3 1 3 4
M  V30 4 2 4 5
M  V30 5 1 5 6
M  V30 6 2 6 7
M  V30 7 1 7 8
M  V30 8 2 8 9
M  V30 9 1 9 10
M  V30 10 1 10 11
M  V30 11 2 11 12
M  V30 12 1 12 13
M  V30 13 2 13 14
M  V30 14 1 14 15
M  V30 15 2 15 16
M  V30 16 1 16 17
M  V30 17 1 17 18
M  V30 18 1 18 19
M  V30 19 1 19 20
M  V30 20 1 20 21
M  V30 21 1 21 22
M  V30 22 1 22 23
M  V30 23 2 17 24
M  V30 24 1 12 25
M  V30 25 2 25 26
M  V30 26 1 5 27
M  V30 27 1 27 2
M  V30 28 1 26 6
M  V30 29 1 25 9
M  V30 30 1 24 13
M  V30 31 1 23 19
M  V30 32 1 1 28
M  V30 33 1 1 29
M  V30 34 1 7 30
M  V30 35 1 8 31
M  V30 36 1 10 32
M  V30 37 1 11 33
M  V30 38 1 14 34
M  V30 39 1 16 35
M  V30 40 1 19 36
M  V30 41 1 20 37
M  V30 42 1 20 38
M  V30 43 1 21 39
M  V30 44 1 21 40
M  V30 45 1 22 41
M  V30 46 1 22 42
M  V30 47 1 23 43
M  V30 48 1 23 44
M  V30 49 1 26 45
M  V30 END BOND
M  V30 END CTAB
M  END
>  <Dataset>  (616) 
ChEMBL_Kinases

>  <Ligand_Instance>  (616) 
nan

>  <PDB_ID>  (616) 
nan

>  <Standardized_SMILES>  (616) 
Nc1nnc(-c2ccc3[nH]cc(-c4cncc(OC5CCCC5)n4)c3c2)s1

>  <Name>  (616) 
nan

>  <Pocket>  (616) 
nan

>  <ATP_Site>  (616) 
nan

>  <Peripheral>  (616) 
nan

>  <Num_H_Atoms_ProtBoundConf>  (616) 
nan

>  <Num_Resolved_Atoms>  (616) 
nan

>  <Num_Not_Resolved_Atoms>  (616) 
nan

$$$$
CHEMBL3394171
     RDKit          3D

  0  0  0  0  0  0  0  0  0  0999 V3000
M  V30 BEGIN CTAB
M  V30 COUNTS 41 44 0 0 0
M  V30 BEGIN ATOM
M  V30 1 C -2.753869 -2.745781 0.702758 0
M  V30 2 C -2.123120 -1.650106 -0.140658 0
M  V30 3 C -3.229702 -0.681588 -0.501616 0
M  V30 4 O -1.560938 -2.177572 -1.318937 0
M  V30 5 C -0.232886 -2.052862 -1.673011 0
M  V30 6 C 0.169033 -2.633204 -2.877668 0
M  V30 7 N 1.443851 -2.542619 -3.269379 0
M  V30 8 C 2.300036 -1.880745 -2.465274 0
M  V30 9 C 1.955734 -1.288971 -1.265560 0
M  V30 10 C 2.974295 -0.599629 -0.481970 0
M  V30 11 C 4.307137 -0.459200 -0.803739 0
M  V30 12 N 4.898176 0.252014 0.200225 0
M  V30 13 C 3.987006 0.564554 1.141581 0
M  V30 14 C 4.053479 1.256046 2.333644 0
M  V30 15 C 2.958509 1.454145 3.149804 0
M  V30 16 C 1.818646 0.904945 2.666942 0
M  V30 17 C 0.570666 1.084235 3.519298 0
M  V30 18 N 0.277046 1.586932 4.539838 0
M  V30 19 N -0.899030 1.597362 5.063363 0
M  V30 20 C -1.884395 1.141335 4.674908 0
M  V30 21 N -3.273079 0.679468 4.450928 0
M  V30 22 S -1.131881 0.414641 3.058350 0
M  V30 23 C 1.630558 0.192835 1.491007 0
M  V30 24 C 2.770744 0.037363 0.730278 0
M  V30 25 N 0.646090 -1.398246 -0.891971 0
M  V30 26 H -3.613026 -3.177439 0.189545 0
M  V30 27 H -2.013119 -3.502099 0.975195 0
M  V30 28 H -3.152291 -2.241047 1.630435 0
M  V30 29 H -1.404857 -1.116234 0.484110 0
M  V30 30 H -2.792532 0.338139 -0.685395 0
M  V30 31 H -3.768012 -0.971293 -1.405778 0
M  V30 32 H -3.914915 -0.588937 0.373015 0
M  V30 33 H -0.575649 -3.153918 -3.480616 0
M  V30 34 H 3.324809 -1.828409 -2.818812 0
M  V30 35 H 4.747222 -0.863953 -1.706782 0
M  V30 36 H 5.910768 0.508901 0.222168 0
M  V30 37 H 5.000183 1.685203 2.687944 0
M  V30 38 H 2.930512 1.980669 4.089919 0
M  V30 39 H -3.962662 1.257825 3.934330 0
M  V30 40 H -3.529208 -0.273182 4.844383 0
M  V30 41 H 0.693506 -0.205629 1.188281 0
M  V30 END ATOM
M  V30 BEGIN BOND
M  V30 1 1 1 2
M  V30 2 1 2 3
M  V30 3 1 2 4
M  V30 4 1 4 5
M  V30 5 2 5 6
M  V30 6 1 6 7
M  V30 7 2 7 8
M  V30 8 1 8 9
M  V30 9 1 9 10
M  V30 10 2 10 11
M  V30 11 1 11 12
M  V30 12 1 12 13
M  V30 13 2 13 14
M  V30 14 1 14 15
M  V30 15 2 15 16
M  V30 16 1 16 17
M  V30 17 2 17 18
M  V30 18 1 18 19
M  V30 19 2 19 20
M  V30 20 1 20 21
M  V30 21 1 20 22
M  V30 22 1 16 23
M  V30 23 2 23 24
M  V30 24 2 9 25
M  V30 25 1 25 5
M  V30 26 1 24 10
M  V30 27 1 24 13
M  V30 28 1 22 17
M  V30 29 1 1 26
M  V30 30 1 1 27
M  V30 31 1 1 28
M  V30 32 1 2 29
M  V30 33 1 3 30
M  V30 34 1 3 31
M  V30 35 1 3 32
M  V30 36 1 6 33
M  V30 37 1 8 34
M  V30 38 1 11 35
M  V30 39 1 12 36
M  V30 40 1 14 37
M  V30 41 1 15 38
M  V30 42 1 21 39
M  V30 43 1 21 40
M  V30 44 1 23 41
M  V30 END BOND
M  V30 END CTAB
M  END
>  <Dataset>  (617) 
ChEMBL_Kinases

>  <Ligand_Instance>  (617) 
nan

>  <PDB_ID>  (617) 
nan

>  <Standardized_SMILES>  (617) 
CC(C)Oc1cncc(-c2c[nH]c3ccc(-c4nnc(N)s4)cc23)n1

>  <Name>  (617) 
nan

>  <Pocket>  (617) 
nan

>  <ATP_Site>  (617) 
nan

>  <Peripheral>  (617) 
nan

>  <Num_H_Atoms_ProtBoundConf>  (617) 
nan

>  <Num_Resolved_Atoms>  (617) 
nan

>  <Num_Not_Resolved_Atoms>  (617) 
nan

$$$$
CHEMBL3394170
     RDKit          3D

  0  0  0  0  0  0  0  0  0  0999 V3000
M  V30 BEGIN CTAB
M  V30 COUNTS 38 41 0 0 0
M  V30 BEGIN ATOM
M  V30 1 C 0.064898 -4.391935 2.763872 0
M  V30 2 C 0.692385 -3.249405 1.994489 0
M  V30 3 O 2.051987 -3.491322 1.744110 0
M  V30 4 C 2.781008 -2.548296 1.050617 0
M  V30 5 C 4.126064 -2.809871 0.814490 0
M  V30 6 N 4.821905 -1.879227 0.136641 0
M  V30 7 C 4.272214 -0.725645 -0.312499 0
M  V30 8 C 2.931016 -0.481197 -0.068512 0
M  V30 9 C 2.346327 0.764656 -0.556016 0
M  V30 10 C 2.987732 1.767682 -1.256657 0
M  V30 11 N 2.074729 2.733873 -1.507363 0
M  V30 12 C 0.897203 2.356845 -0.984510 0
M  V30 13 C -0.313166 3.046553 -1.008665 0
M  V30 14 C -1.440688 2.493220 -0.407747 0
M  V30 15 C -1.269510 1.282497 0.176001 0
M  V30 16 C -2.362589 0.498933 0.887447 0
M  V30 17 N -2.582212 -0.519778 1.479409 0
M  V30 18 N -3.757155 -0.802163 1.952273 0
M  V30 19 C -4.725122 -0.189466 1.901133 0
M  V30 20 N -6.024647 -0.536260 2.442120 0
M  V30 21 S -4.056245 1.326828 0.925249 0
M  V30 22 C -0.105160 0.553015 0.233644 0
M  V30 23 C 1.019936 1.122096 -0.374811 0
M  V30 24 N 2.231468 -1.410340 0.609581 0
M  V30 25 H 0.759683 -4.615992 3.617440 0
M  V30 26 H -0.887125 -4.099020 3.234068 0
M  V30 27 H -0.037591 -5.315102 2.180291 0
M  V30 28 H 0.615005 -2.346496 2.616771 0
M  V30 29 H 0.098559 -3.140093 1.059333 0
M  V30 30 H 4.636339 -3.717032 1.146086 0
M  V30 31 H 4.903193 -0.016213 -0.857064 0
M  V30 32 H 4.036723 1.738724 -1.532245 0
M  V30 33 H 2.376007 3.590663 -2.037512 0
M  V30 34 H -0.436783 4.021956 -1.482920 0
M  V30 35 H -2.412312 2.926384 -0.364320 0
M  V30 36 H -6.441336 -0.008596 3.263845 0
M  V30 37 H -6.452281 -1.345621 1.914693 0
M  V30 38 H 0.054260 -0.405989 0.689419 0
M  V30 END ATOM
M  V30 BEGIN BOND
M  V30 1 1 1 2
M  V30 2 1 2 3
M  V30 3 1 3 4
M  V30 4 2 4 5
M  V30 5 1 5 6
M  V30 6 2 6 7
M  V30 7 1 7 8
M  V30 8 1 8 9
M  V30 9 2 9 10
M  V30 10 1 10 11
M  V30 11 1 11 12
M  V30 12 2 12 13
M  V30 13 1 13 14
M  V30 14 2 14 15
M  V30 15 1 15 16
M  V30 16 2 16 17
M  V30 17 1 17 18
M  V30 18 2 18 19
M  V30 19 1 19 20
M  V30 20 1 19 21
M  V30 21 1 15 22
M  V30 22 2 22 23
M  V30 23 2 8 24
M  V30 24 1 24 4
M  V30 25 1 23 9
M  V30 26 1 23 12
M  V30 27 1 21 16
M  V30 28 1 1 25
M  V30 29 1 1 26
M  V30 30 1 1 27
M  V30 31 1 2 28
M  V30 32 1 2 29
M  V30 33 1 5 30
M  V30 34 1 7 31
M  V30 35 1 10 32
M  V30 36 1 11 33
M  V30 37 1 13 34
M  V30 38 1 14 35
M  V30 39 1 20 36
M  V30 40 1 20 37
M  V30 41 1 22 38
M  V30 END BOND
M  V30 END CTAB
M  END
>  <Dataset>  (618) 
ChEMBL_Kinases

>  <Ligand_Instance>  (618) 
nan

>  <PDB_ID>  (618) 
nan

>  <Standardized_SMILES>  (618) 
CCOc1cncc(-c2c[nH]c3ccc(-c4nnc(N)s4)cc23)n1

>  <Name>  (618) 
nan

>  <Pocket>  (618) 
nan

>  <ATP_Site>  (618) 
nan

>  <Peripheral>  (618) 
nan

>  <Num_H_Atoms_ProtBoundConf>  (618) 
nan

>  <Num_Resolved_Atoms>  (618) 
nan

>  <Num_Not_Resolved_Atoms>  (618) 
nan

$$$$
CHEMBL3394169
     RDKit          3D

  0  0  0  0  0  0  0  0  0  0999 V3000
M  V30 BEGIN CTAB
M  V30 COUNTS 49 53 0 0 0
M  V30 BEGIN ATOM
M  V30 1 N -2.098524 -6.104096 -0.780673 0
M  V30 2 C -0.933244 -5.397487 -1.216183 0
M  V30 3 N -0.067435 -5.678150 -1.968785 0
M  V30 4 N 0.960154 -5.004543 -2.325978 0
M  V30 5 C 1.171649 -3.845051 -1.855929 0
M  V30 6 C 2.192498 -2.754806 -1.986235 0
M  V30 7 C 3.249838 -2.979863 -2.843188 0
M  V30 8 C 4.164622 -1.951467 -2.932061 0
M  V30 9 C 4.016447 -0.786387 -2.207178 0
M  V30 10 N 4.800742 0.311833 -2.167760 0
M  V30 11 C 4.242592 1.190459 -1.309936 0
M  V30 12 C 3.073887 0.660690 -0.778127 0
M  V30 13 C 2.149250 1.256258 0.184204 0
M  V30 14 C 2.460021 2.528903 0.646839 0
M  V30 15 C 1.608141 3.094855 1.542740 0
M  V30 16 C 0.470514 2.488815 2.012298 0
M  V30 17 C 0.199831 1.211066 1.519000 0
M  V30 18 O -0.869044 0.401506 1.832032 0
M  V30 19 C -1.910232 0.695080 2.714651 0
M  V30 20 C -3.218263 0.633776 1.950453 0
M  V30 21 C -4.302029 1.024710 2.931170 0
M  V30 22 C -4.417014 -0.115662 3.916753 0
M  V30 23 C -3.141729 -0.271867 4.690944 0
M  V30 24 C -1.966477 -0.388516 3.771712 0
M  V30 25 N 1.042705 0.625055 0.618668 0
M  V30 26 C 2.944865 -0.596165 -1.358874 0
M  V30 27 C 2.015293 -1.602212 -1.247794 0
M  V30 28 S -0.325384 -3.645212 -0.706631 0
M  V30 29 H -1.841179 -6.489210 0.153896 0
M  V30 30 H -2.974680 -6.158913 -1.360762 0
M  V30 31 H 3.268029 -3.928492 -3.362021 0
M  V30 32 H 4.996770 -2.145539 -3.615618 0
M  V30 33 H 5.696555 0.509961 -2.686364 0
M  V30 34 H 4.621859 2.162812 -1.055368 0
M  V30 35 H 3.341109 3.055480 0.313621 0
M  V30 36 H 1.774112 4.087827 1.957045 0
M  V30 37 H -0.250363 2.863240 2.714646 0
M  V30 38 H -1.841314 1.678968 3.191598 0
M  V30 39 H -3.343926 -0.368231 1.538154 0
M  V30 40 H -3.141892 1.406511 1.153166 0
M  V30 41 H -3.958370 1.907251 3.485229 0
M  V30 42 H -5.273228 1.210682 2.452190 0
M  V30 43 H -4.586902 -1.073280 3.390607 0
M  V30 44 H -5.242948 0.101311 4.629906 0
M  V30 45 H -3.223599 -1.265121 5.216706 0
M  V30 46 H -3.038004 0.521585 5.453722 0
M  V30 47 H -2.037632 -1.363107 3.240350 0
M  V30 48 H -1.031901 -0.347127 4.377628 0
M  V30 49 H 1.166726 -1.475581 -0.588864 0
M  V30 END ATOM
M  V30 BEGIN BOND
M  V30 1 1 1 2
M  V30 2 2 2 3
M  V30 3 1 3 4
M  V30 4 2 4 5
M  V30 5 1 5 6
M  V30 6 2 6 7
M  V30 7 1 7 8
M  V30 8 2 8 9
M  V30 9 1 9 10
M  V30 10 1 10 11
M  V30 11 2 11 12
M  V30 12 1 12 13
M  V30 13 2 13 14
M  V30 14 1 14 15
M  V30 15 2 15 16
M  V30 16 1 16 17
M  V30 17 1 17 18
M  V30 18 1 18 19
M  V30 19 1 19 20
M  V30 20 1 20 21
M  V30 21 1 21 22
M  V30 22 1 22 23
M  V30 23 1 23 24
M  V30 24 2 17 25
M  V30 25 1 12 26
M  V30 26 2 26 27
M  V30 27 1 5 28
M  V30 28 1 28 2
M  V30 29 1 27 6
M  V30 30 1 26 9
M  V30 31 1 25 13
M  V30 32 1 24 19
M  V30 33 1 1 29
M  V30 34 1 1 30
M  V30 35 1 7 31
M  V30 36 1 8 32
M  V30 37 1 10 33
M  V30 38 1 11 34
M  V30 39 1 14 35
M  V30 40 1 15 36
M  V30 41 1 16 37
M  V30 42 1 19 38
M  V30 43 1 20 39
M  V30 44 1 20 40
M  V30 45 1 21 41
M  V30 46 1 21 42
M  V30 47 1 22 43
M  V30 48 1 22 44
M  V30 49 1 23 45
M  V30 50 1 23 46
M  V30 51 1 24 47
M  V30 52 1 24 48
M  V30 53 1 27 49
M  V30 END BOND
M  V30 END CTAB
M  END
>  <Dataset>  (619) 
ChEMBL_Kinases

>  <Ligand_Instance>  (619) 
nan

>  <PDB_ID>  (619) 
nan

>  <Standardized_SMILES>  (619) 
Nc1nnc(-c2ccc3[nH]cc(-c4cccc(OC5CCCCC5)n4)c3c2)s1

>  <Name>  (619) 
nan

>  <Pocket>  (619) 
nan

>  <ATP_Site>  (619) 
nan

>  <Peripheral>  (619) 
nan

>  <Num_H_Atoms_ProtBoundConf>  (619) 
nan

>  <Num_Resolved_Atoms>  (619) 
nan

>  <Num_Not_Resolved_Atoms>  (619) 
nan

$$$$
CHEMBL4798742
     RDKit          3D

  0  0  0  0  0  0  0  0  0  0999 V3000
M  V30 BEGIN CTAB
M  V30 COUNTS 54 57 0 0 0
M  V30 BEGIN ATOM
M  V30 1 C -1.108748 -6.453629 2.797017 0
M  V30 2 C -0.899809 -4.989277 2.666735 0
M  V30 3 N -0.986655 -4.151153 3.728315 0
M  V30 4 N -0.742259 -2.960996 3.223216 0
M  V30 5 C -0.509298 -3.005851 1.917356 0
M  V30 6 C -0.209110 -1.812674 1.122473 0
M  V30 7 O 0.022791 -1.767271 -0.099267 0
M  V30 8 N -0.154723 -0.530649 1.717644 0
M  V30 9 C 0.115448 0.732823 1.139631 0
M  V30 10 C 1.374899 1.289643 1.022353 0
M  V30 11 C 1.511711 2.538667 0.439649 0
M  V30 12 C 0.464012 3.293480 -0.046841 0
M  V30 13 C 0.596488 4.617820 -0.668129 0
M  V30 14 N 0.531416 5.734289 0.211676 0
M  V30 15 C 1.552437 5.776136 1.233725 0
M  V30 16 C 0.918744 5.305828 2.507241 0
M  V30 17 C -0.572763 5.386076 2.276711 0
M  V30 18 C -0.729971 5.937421 0.875347 0
M  V30 19 C -0.789366 2.684176 0.096094 0
M  V30 20 C -0.993360 1.434849 0.670906 0
M  V30 21 C -0.601103 -4.317171 1.502284 0
M  V30 22 C -0.411129 -4.755592 0.152019 0
M  V30 23 C -0.447820 -5.900220 -0.452964 0
M  V30 24 C -0.236712 -6.238775 -1.849172 0
M  V30 25 C -0.324344 -7.545269 -2.283995 0
M  V30 26 C -0.122839 -7.851129 -3.612243 0
M  V30 27 C 0.168462 -6.917676 -4.565326 0
M  V30 28 N 0.255629 -5.624467 -4.136819 0
M  V30 29 C 0.057161 -5.330982 -2.833789 0
M  V30 30 H -1.431801 -6.703411 3.839433 0
M  V30 31 H -1.972421 -6.752268 2.172094 0
M  V30 32 H -0.233806 -7.060682 2.493719 0
M  V30 33 H -1.198034 -4.376521 4.726089 0
M  V30 34 H -0.331594 -0.398667 2.759916 0
M  V30 35 H 2.222369 0.726027 1.393658 0
M  V30 36 H 2.502440 2.929792 0.369244 0
M  V30 37 H 1.561989 4.732366 -1.239892 0
M  V30 38 H -0.204314 4.714644 -1.424640 0
M  V30 39 H 1.807492 6.867053 1.376124 0
M  V30 40 H 2.458980 5.253941 0.938452 0
M  V30 41 H 1.207400 5.954586 3.367516 0
M  V30 42 H 1.199959 4.273551 2.777021 0
M  V30 43 H -1.039256 4.407039 2.407311 0
M  V30 44 H -1.052337 6.042514 3.050694 0
M  V30 45 H -1.558282 5.503793 0.307327 0
M  V30 46 H -0.960590 7.025494 0.966737 0
M  V30 47 H -1.707985 3.181741 -0.252668 0
M  V30 48 H -1.978859 1.021768 0.751253 0
M  V30 49 H -0.173844 -4.007220 -0.619743 0
M  V30 50 H -0.675520 -6.721303 0.219118 0
M  V30 51 H -0.552530 -8.368125 -1.602529 0
M  V30 52 H -0.197976 -8.882507 -3.920157 0
M  V30 53 H 0.322947 -7.180015 -5.603251 0
M  V30 54 H 0.147340 -4.285470 -2.595973 0
M  V30 END ATOM
M  V30 BEGIN BOND
M  V30 1 1 1 2
M  V30 2 1 2 3
M  V30 3 1 3 4
M  V30 4 2 4 5
M  V30 5 1 5 6
M  V30 6 2 6 7
M  V30 7 1 6 8
M  V30 8 1 8 9
M  V30 9 2 9 10
M  V30 10 1 10 11
M  V30 11 2 11 12
M  V30 12 1 12 13
M  V30 13 1 13 14
M  V30 14 1 14 15
M  V30 15 1 15 16
M  V30 16 1 16 17
M  V30 17 1 17 18
M  V30 18 1 12 19
M  V30 19 2 19 20
M  V30 20 1 5 21
M  V30 21 1 21 22
M  V30 22 2 22 23
M  V30 23 1 23 24
M  V30 24 2 24 25
M  V30 25 1 25 26
M  V30 26 2 26 27
M  V30 27 1 27 28
M  V30 28 2 28 29
M  V30 29 2 21 2
M  V30 30 1 29 24
M  V30 31 1 20 9
M  V30 32 1 18 14
M  V30 33 1 1 30
M  V30 34 1 1 31
M  V30 35 1 1 32
M  V30 36 1 3 33
M  V30 37 1 8 34
M  V30 38 1 10 35
M  V30 39 1 11 36
M  V30 40 1 13 37
M  V30 41 1 13 38
M  V30 42 1 15 39
M  V30 43 1 15 40
M  V30 44 1 16 41
M  V30 45 1 16 42
M  V30 46 1 17 43
M  V30 47 1 17 44
M  V30 48 1 18 45
M  V30 49 1 18 46
M  V30 50 1 19 47
M  V30 51 1 20 48
M  V30 52 1 22 49
M  V30 53 1 23 50
M  V30 54 1 25 51
M  V30 55 1 26 52
M  V30 56 1 27 53
M  V30 57 1 29 54
M  V30 END BOND
M  V30 END CTAB
M  END
>  <Dataset>  (620) 
ChEMBL_Kinases

>  <Ligand_Instance>  (620) 
nan

>  <PDB_ID>  (620) 
nan

>  <Standardized_SMILES>  (620) 
Cc1[nH]nc(C(=O)Nc2ccc(CN3CCCC3)cc2)c1/C=C/c1cccnc1

>  <Name>  (620) 
nan

>  <Pocket>  (620) 
nan

>  <ATP_Site>  (620) 
nan

>  <Peripheral>  (620) 
nan

>  <Num_H_Atoms_ProtBoundConf>  (620) 
nan

>  <Num_Resolved_Atoms>  (620) 
nan

>  <Num_Not_Resolved_Atoms>  (620) 
nan

$$$$
CHEMBL3394168
     RDKit          3D

  0  0  0  0  0  0  0  0  0  0999 V3000
M  V30 BEGIN CTAB
M  V30 COUNTS 46 50 0 0 0
M  V30 BEGIN ATOM
M  V30 1 N -1.217808 -5.594088 3.327891 0
M  V30 2 C -0.728821 -5.120408 2.104308 0
M  V30 3 N -0.408093 -5.697181 1.091521 0
M  V30 4 N 0.032280 -5.247276 -0.004875 0
M  V30 5 C 0.201416 -3.951788 -0.160005 0
M  V30 6 C 0.679800 -3.053780 -1.254107 0
M  V30 7 C 1.045080 -3.680760 -2.400399 0
M  V30 8 C 1.484407 -2.838571 -3.401056 0
M  V30 9 C 1.538385 -1.451756 -3.220115 0
M  V30 10 N 1.927294 -0.464789 -4.048786 0
M  V30 11 C 1.791746 0.724174 -3.396982 0
M  V30 12 C 1.303767 0.449926 -2.128925 0
M  V30 13 C 1.011732 1.441545 -1.096406 0
M  V30 14 C 1.219859 2.781092 -1.347741 0
M  V30 15 C 0.985830 3.829318 -0.460255 0
M  V30 16 C 0.493635 3.454667 0.795524 0
M  V30 17 C 0.282157 2.099512 1.052315 0
M  V30 18 O -0.202595 1.782661 2.301430 0
M  V30 19 C -0.491566 0.508131 2.788793 0
M  V30 20 C 0.332606 0.290507 4.062306 0
M  V30 21 C -0.396692 1.142001 5.080029 0
M  V30 22 C -1.770330 1.435281 4.515406 0
M  V30 23 C -1.889731 0.456579 3.366000 0
M  V30 24 N 0.534340 1.138448 0.135881 0
M  V30 25 C 1.137103 -0.915693 -1.997013 0
M  V30 26 C 0.688761 -1.706598 -0.959576 0
M  V30 27 S -0.364430 -3.318923 1.535668 0
M  V30 28 H -0.449999 -5.960355 3.957693 0
M  V30 29 H -2.208888 -5.623396 3.668805 0
M  V30 30 H 0.985074 -4.744972 -2.488492 0
M  V30 31 H 1.786061 -3.325400 -4.340353 0
M  V30 32 H 2.276889 -0.597327 -5.035149 0
M  V30 33 H 2.035392 1.698452 -3.831862 0
M  V30 34 H 1.599005 3.066475 -2.315845 0
M  V30 35 H 1.185077 4.849957 -0.762846 0
M  V30 36 H 0.298572 4.226177 1.511024 0
M  V30 37 H -0.286975 -0.264303 2.047075 0
M  V30 38 H 0.278804 -0.796206 4.290339 0
M  V30 39 H 1.362450 0.657675 3.869790 0
M  V30 40 H -0.494794 0.559218 6.026442 0
M  V30 41 H 0.144580 2.088966 5.196171 0
M  V30 42 H -1.880157 2.453688 4.122098 0
M  V30 43 H -2.568937 1.288417 5.285043 0
M  V30 44 H -2.107798 -0.525266 3.783522 0
M  V30 45 H -2.662463 0.719640 2.635687 0
M  V30 46 H 0.376273 -1.310141 -0.012070 0
M  V30 END ATOM
M  V30 BEGIN BOND
M  V30 1 1 1 2
M  V30 2 2 2 3
M  V30 3 1 3 4
M  V30 4 2 4 5
M  V30 5 1 5 6
M  V30 6 2 6 7
M  V30 7 1 7 8
M  V30 8 2 8 9
M  V30 9 1 9 10
M  V30 10 1 10 11
M  V30 11 2 11 12
M  V30 12 1 12 13
M  V30 13 2 13 14
M  V30 14 1 14 15
M  V30 15 2 15 16
M  V30 16 1 16 17
M  V30 17 1 17 18
M  V30 18 1 18 19
M  V30 19 1 19 20
M  V30 20 1 20 21
M  V30 21 1 21 22
M  V30 22 1 22 23
M  V30 23 2 17 24
M  V30 24 1 12 25
M  V30 25 2 25 26
M  V30 26 1 5 27
M  V30 27 1 27 2
M  V30 28 1 26 6
M  V30 29 1 25 9
M  V30 30 1 24 13
M  V30 31 1 23 19
M  V30 32 1 1 28
M  V30 33 1 1 29
M  V30 34 1 7 30
M  V30 35 1 8 31
M  V30 36 1 10 32
M  V30 37 1 11 33
M  V30 38 1 14 34
M  V30 39 1 15 35
M  V30 40 1 16 36
M  V30 41 1 19 37
M  V30 42 1 20 38
M  V30 43 1 20 39
M  V30 44 1 21 40
M  V30 45 1 21 41
M  V30 46 1 22 42
M  V30 47 1 22 43
M  V30 48 1 23 44
M  V30 49 1 23 45
M  V30 50 1 26 46
M  V30 END BOND
M  V30 END CTAB
M  END
>  <Dataset>  (621) 
ChEMBL_Kinases

>  <Ligand_Instance>  (621) 
nan

>  <PDB_ID>  (621) 
nan

>  <Standardized_SMILES>  (621) 
Nc1nnc(-c2ccc3[nH]cc(-c4cccc(OC5CCCC5)n4)c3c2)s1

>  <Name>  (621) 
nan

>  <Pocket>  (621) 
nan

>  <ATP_Site>  (621) 
nan

>  <Peripheral>  (621) 
nan

>  <Num_H_Atoms_ProtBoundConf>  (621) 
nan

>  <Num_Resolved_Atoms>  (621) 
nan

>  <Num_Not_Resolved_Atoms>  (621) 
nan

$$$$
CHEMBL3394167
     RDKit          3D

  0  0  0  0  0  0  0  0  0  0999 V3000
M  V30 BEGIN CTAB
M  V30 COUNTS 42 45 0 0 0
M  V30 BEGIN ATOM
M  V30 1 C -1.412697 -4.015154 0.447553 0
M  V30 2 C -1.516307 -2.658244 -0.246163 0
M  V30 3 C -2.999950 -2.301236 -0.240032 0
M  V30 4 O -1.022116 -2.716078 -1.565851 0
M  V30 5 C 0.036336 -1.950277 -2.038125 0
M  V30 6 C 0.379063 -2.144904 -3.362085 0
M  V30 7 C 1.431092 -1.385247 -3.835434 0
M  V30 8 C 2.073218 -0.496892 -3.000689 0
M  V30 9 C 1.712402 -0.320040 -1.681063 0
M  V30 10 C 2.440883 0.640827 -0.858277 0
M  V30 11 C 3.486643 1.425435 -1.250912 0
M  V30 12 N 3.885222 2.175797 -0.206291 0
M  V30 13 C 3.111861 1.885105 0.850255 0
M  V30 14 C 3.141318 2.396529 2.134070 0
M  V30 15 C 2.242388 1.952733 3.081962 0
M  V30 16 C 1.351953 1.002920 2.670739 0
M  V30 17 C 0.270664 0.362832 3.529858 0
M  V30 18 N -0.586941 -0.397636 3.542164 0
M  V30 19 N -1.340449 -0.686058 4.558113 0
M  V30 20 C -1.270127 -0.220098 5.625403 0
M  V30 21 N -1.959182 -0.369959 6.855920 0
M  V30 22 S 0.203049 0.979052 5.320602 0
M  V30 23 C 1.284443 0.468159 1.415004 0
M  V30 24 C 2.202360 0.929863 0.469686 0
M  V30 25 N 0.674311 -1.075938 -1.230672 0
M  V30 26 H -2.251909 -4.620923 0.056218 0
M  V30 27 H -0.416643 -4.440555 0.237108 0
M  V30 28 H -1.562059 -3.825651 1.528303 0
M  V30 29 H -1.000510 -1.952032 0.404832 0
M  V30 30 H -3.145527 -1.248367 -0.555853 0
M  V30 31 H -3.557001 -2.976042 -0.938881 0
M  V30 32 H -3.333694 -2.423694 0.820150 0
M  V30 33 H -0.150091 -2.855663 -3.993600 0
M  V30 34 H 1.746304 -1.494206 -4.867760 0
M  V30 35 H 2.895457 0.091774 -3.384011 0
M  V30 36 H 3.923114 1.439984 -2.242840 0
M  V30 37 H 4.672091 2.863906 -0.243089 0
M  V30 38 H 3.851487 3.162289 2.483829 0
M  V30 39 H 2.151999 2.262028 4.113842 0
M  V30 40 H -2.438373 0.389733 7.390965 0
M  V30 41 H -1.937488 -1.364220 7.188017 0
M  V30 42 H 0.598300 -0.282395 1.048746 0
M  V30 END ATOM
M  V30 BEGIN BOND
M  V30 1 1 1 2
M  V30 2 1 2 3
M  V30 3 1 2 4
M  V30 4 1 4 5
M  V30 5 2 5 6
M  V30 6 1 6 7
M  V30 7 2 7 8
M  V30 8 1 8 9
M  V30 9 1 9 10
M  V30 10 2 10 11
M  V30 11 1 11 12
M  V30 12 1 12 13
M  V30 13 2 13 14
M  V30 14 1 14 15
M  V30 15 2 15 16
M  V30 16 1 16 17
M  V30 17 2 17 18
M  V30 18 1 18 19
M  V30 19 2 19 20
M  V30 20 1 20 21
M  V30 21 1 20 22
M  V30 22 1 16 23
M  V30 23 2 23 24
M  V30 24 2 9 25
M  V30 25 1 25 5
M  V30 26 1 24 10
M  V30 27 1 24 13
M  V30 28 1 22 17
M  V30 29 1 1 26
M  V30 30 1 1 27
M  V30 31 1 1 28
M  V30 32 1 2 29
M  V30 33 1 3 30
M  V30 34 1 3 31
M  V30 35 1 3 32
M  V30 36 1 6 33
M  V30 37 1 7 34
M  V30 38 1 8 35
M  V30 39 1 11 36
M  V30 40 1 12 37
M  V30 41 1 14 38
M  V30 42 1 15 39
M  V30 43 1 21 40
M  V30 44 1 21 41
M  V30 45 1 23 42
M  V30 END BOND
M  V30 END CTAB
M  END
>  <Dataset>  (622) 
ChEMBL_Kinases

>  <Ligand_Instance>  (622) 
nan

>  <PDB_ID>  (622) 
nan

>  <Standardized_SMILES>  (622) 
CC(C)Oc1cccc(-c2c[nH]c3ccc(-c4nnc(N)s4)cc23)n1

>  <Name>  (622) 
nan

>  <Pocket>  (622) 
nan

>  <ATP_Site>  (622) 
nan

>  <Peripheral>  (622) 
nan

>  <Num_H_Atoms_ProtBoundConf>  (622) 
nan

>  <Num_Resolved_Atoms>  (622) 
nan

>  <Num_Not_Resolved_Atoms>  (622) 
nan

$$$$
CHEMBL4800579
     RDKit          3D

  0  0  0  0  0  0  0  0  0  0999 V3000
M  V30 BEGIN CTAB
M  V30 COUNTS 44 47 0 0 0
M  V30 BEGIN ATOM
M  V30 1 C -0.404953 -4.693002 3.220821 0
M  V30 2 N -0.486814 -3.380368 2.561282 0
M  V30 3 C 0.512223 -2.513690 2.254490 0
M  V30 4 C -0.042552 -1.412600 1.620602 0
M  V30 5 C 0.751708 -0.312359 1.104635 0
M  V30 6 N 0.665745 -0.114327 -0.237125 0
M  V30 7 N 1.452467 0.912275 -0.592618 0
M  V30 8 C 1.594460 1.361120 -1.967092 0
M  V30 9 C 0.377149 0.885888 -2.766560 0
M  V30 10 C 1.664295 2.849458 -2.104390 0
M  V30 11 C 2.833796 0.672974 -2.506054 0
M  V30 12 C 2.026274 1.358030 0.524909 0
M  V30 13 N 2.893803 2.352000 0.762060 0
M  V30 14 C 3.304646 2.558533 2.047053 0
M  V30 15 N 2.882113 1.810503 3.108845 0
M  V30 16 C 2.005756 0.795379 2.923221 0
M  V30 17 N 1.495109 -0.040998 3.944078 0
M  V30 18 C 1.619362 0.620003 1.629961 0
M  V30 19 C -1.396322 -1.655947 1.565260 0
M  V30 20 C -2.442975 -0.922164 1.055072 0
M  V30 21 C -3.760742 -1.332292 1.088943 0
M  V30 22 C -4.045762 -2.566923 1.677941 0
M  V30 23 C -2.997418 -3.292666 2.184458 0
M  V30 24 C -1.670029 -2.882715 2.151854 0
M  V30 25 H -0.939519 -4.722826 4.164853 0
M  V30 26 H -0.923131 -5.404935 2.514943 0
M  V30 27 H 0.661826 -5.017005 3.320218 0
M  V30 28 H 1.555073 -2.731062 2.504570 0
M  V30 29 H -0.454974 1.609242 -2.673373 0
M  V30 30 H 0.125984 -0.142872 -2.446928 0
M  V30 31 H 0.708401 0.881535 -3.822369 0
M  V30 32 H 1.580633 3.045514 -3.215888 0
M  V30 33 H 0.774658 3.299356 -1.641781 0
M  V30 34 H 2.608078 3.298722 -1.785597 0
M  V30 35 H 3.674606 1.369726 -2.654051 0
M  V30 36 H 2.568017 0.161935 -3.453288 0
M  V30 37 H 3.180182 -0.147862 -1.812790 0
M  V30 38 H 4.017828 3.376956 2.235952 0
M  V30 39 H 0.645054 0.310378 4.436428 0
M  V30 40 H 1.856072 -0.977931 4.280312 0
M  V30 41 H -2.243020 0.038800 0.594355 0
M  V30 42 H -4.570148 -0.745637 0.684158 0
M  V30 43 H -5.039132 -2.961094 1.747068 0
M  V30 44 H -3.219943 -4.267869 2.649151 0
M  V30 END ATOM
M  V30 BEGIN BOND
M  V30 1 1 1 2
M  V30 2 1 2 3
M  V30 3 2 3 4
M  V30 4 1 4 5
M  V30 5 2 5 6
M  V30 6 1 6 7
M  V30 7 1 7 8
M  V30 8 1 8 9
M  V30 9 1 8 10
M  V30 10 1 8 11
M  V30 11 1 7 12
M  V30 12 2 12 13
M  V30 13 1 13 14
M  V30 14 2 14 15
M  V30 15 1 15 16
M  V30 16 1 16 17
M  V30 17 2 16 18
M  V30 18 1 4 19
M  V30 19 2 19 20
M  V30 20 1 20 21
M  V30 21 2 21 22
M  V30 22 1 22 23
M  V30 23 2 23 24
M  V30 24 1 24 2
M  V30 25 1 18 5
M  V30 26 1 24 19
M  V30 27 1 18 12
M  V30 28 1 1 25
M  V30 29 1 1 26
M  V30 30 1 1 27
M  V30 31 1 3 28
M  V30 32 1 9 29
M  V30 33 1 9 30
M  V30 34 1 9 31
M  V30 35 1 10 32
M  V30 36 1 10 33
M  V30 37 1 10 34
M  V30 38 1 11 35
M  V30 39 1 11 36
M  V30 40 1 11 37
M  V30 41 1 14 38
M  V30 42 1 17 39
M  V30 43 1 17 40
M  V30 44 1 20 41
M  V30 45 1 21 42
M  V30 46 1 22 43
M  V30 47 1 23 44
M  V30 END BOND
M  V30 END CTAB
M  END
>  <Dataset>  (623) 
ChEMBL_Kinases

>  <Ligand_Instance>  (623) 
nan

>  <PDB_ID>  (623) 
nan

>  <Standardized_SMILES>  (623) 
Cn1cc(-c2nn(C(C)(C)C)c3ncnc(N)c23)c2ccccc21

>  <Name>  (623) 
nan

>  <Pocket>  (623) 
nan

>  <ATP_Site>  (623) 
nan

>  <Peripheral>  (623) 
nan

>  <Num_H_Atoms_ProtBoundConf>  (623) 
nan

>  <Num_Resolved_Atoms>  (623) 
nan

>  <Num_Not_Resolved_Atoms>  (623) 
nan

$$$$
CHEMBL3394165
     RDKit          3D

  0  0  0  0  0  0  0  0  0  0999 V3000
M  V30 BEGIN CTAB
M  V30 COUNTS 49 53 0 0 0
M  V30 BEGIN ATOM
M  V30 1 N -1.020245 -6.688613 -0.155148 0
M  V30 2 C -0.200933 -5.629192 -0.672672 0
M  V30 3 N 0.528794 -5.803026 -1.584632 0
M  V30 4 N 1.324023 -4.997014 -2.176947 0
M  V30 5 C 1.404000 -3.775591 -1.776511 0
M  V30 6 C 2.168008 -2.523747 -2.153241 0
M  V30 7 C 3.043796 -2.636608 -3.208752 0
M  V30 8 C 3.720621 -1.475441 -3.521897 0
M  V30 9 C 3.518011 -0.305774 -2.817345 0
M  V30 10 N 4.074248 0.913727 -2.967953 0
M  V30 11 C 3.554049 1.745901 -2.032979 0
M  V30 12 C 2.647675 1.035421 -1.273651 0
M  V30 13 C 1.864075 1.562059 -0.157991 0
M  V30 14 C 2.004347 2.881558 0.212449 0
M  V30 15 N 1.255598 3.307757 1.247527 0
M  V30 16 C 0.423829 2.445657 1.858732 0
M  V30 17 C 0.254432 1.121896 1.519451 0
M  V30 18 N -0.626938 0.223051 2.152718 0
M  V30 19 C -1.554472 0.478388 3.231939 0
M  V30 20 C -2.692587 1.350045 2.784219 0
M  V30 21 C -3.860526 1.337555 3.744676 0
M  V30 22 C -4.303051 -0.067010 4.018178 0
M  V30 23 C -3.156140 -0.766778 4.729898 0
M  V30 24 C -2.039506 -0.862352 3.738179 0
M  V30 25 N 1.020509 0.741544 0.483293 0
M  V30 26 C 2.625010 -0.254544 -1.766764 0
M  V30 27 C 1.921984 -1.387382 -1.411980 0
M  V30 28 S 0.162524 -3.769098 -0.341632 0
M  V30 29 H -0.516267 -7.178536 0.627765 0
M  V30 30 H -1.943264 -6.813521 -0.602846 0
M  V30 31 H 3.126908 -3.600276 -3.692479 0
M  V30 32 H 4.417421 -1.581674 -4.368425 0
M  V30 33 H 4.792459 1.145963 -3.702850 0
M  V30 34 H 3.824596 2.790722 -1.924380 0
M  V30 35 H 2.703514 3.473920 -0.354625 0
M  V30 36 H -0.124526 2.874498 2.681215 0
M  V30 37 H -0.586599 -0.757087 1.770125 0
M  V30 38 H -1.031630 1.043888 4.063977 0
M  V30 39 H -3.112268 0.948859 1.817147 0
M  V30 40 H -2.400751 2.396956 2.671034 0
M  V30 41 H -3.680271 1.926789 4.660784 0
M  V30 42 H -4.703908 1.829663 3.204145 0
M  V30 43 H -4.383437 -0.575237 3.016922 0
M  V30 44 H -5.240583 -0.098208 4.571964 0
M  V30 45 H -3.429452 -1.807907 4.997023 0
M  V30 46 H -2.833755 -0.184055 5.607515 0
M  V30 47 H -2.389243 -1.430834 2.855469 0
M  V30 48 H -1.174219 -1.342387 4.237411 0
M  V30 49 H 1.217040 -1.371374 -0.592456 0
M  V30 END ATOM
M  V30 BEGIN BOND
M  V30 1 1 1 2
M  V30 2 2 2 3
M  V30 3 1 3 4
M  V30 4 2 4 5
M  V30 5 1 5 6
M  V30 6 2 6 7
M  V30 7 1 7 8
M  V30 8 2 8 9
M  V30 9 1 9 10
M  V30 10 1 10 11
M  V30 11 2 11 12
M  V30 12 1 12 13
M  V30 13 2 13 14
M  V30 14 1 14 15
M  V30 15 2 15 16
M  V30 16 1 16 17
M  V30 17 1 17 18
M  V30 18 1 18 19
M  V30 19 1 19 20
M  V30 20 1 20 21
M  V30 21 1 21 22
M  V30 22 1 22 23
M  V30 23 1 23 24
M  V30 24 2 17 25
M  V30 25 1 12 26
M  V30 26 2 26 27
M  V30 27 1 5 28
M  V30 28 1 28 2
M  V30 29 1 27 6
M  V30 30 1 26 9
M  V30 31 1 25 13
M  V30 32 1 24 19
M  V30 33 1 1 29
M  V30 34 1 1 30
M  V30 35 1 7 31
M  V30 36 1 8 32
M  V30 37 1 10 33
M  V30 38 1 11 34
M  V30 39 1 14 35
M  V30 40 1 16 36
M  V30 41 1 18 37
M  V30 42 1 19 38
M  V30 43 1 20 39
M  V30 44 1 20 40
M  V30 45 1 21 41
M  V30 46 1 21 42
M  V30 47 1 22 43
M  V30 48 1 22 44
M  V30 49 1 23 45
M  V30 50 1 23 46
M  V30 51 1 24 47
M  V30 52 1 24 48
M  V30 53 1 27 49
M  V30 END BOND
M  V30 END CTAB
M  END
>  <Dataset>  (624) 
ChEMBL_Kinases

>  <Ligand_Instance>  (624) 
nan

>  <PDB_ID>  (624) 
nan

>  <Standardized_SMILES>  (624) 
Nc1nnc(-c2ccc3[nH]cc(-c4cncc(NC5CCCCC5)n4)c3c2)s1

>  <Name>  (624) 
nan

>  <Pocket>  (624) 
nan

>  <ATP_Site>  (624) 
nan

>  <Peripheral>  (624) 
nan

>  <Num_H_Atoms_ProtBoundConf>  (624) 
nan

>  <Num_Resolved_Atoms>  (624) 
nan

>  <Num_Not_Resolved_Atoms>  (624) 
nan

$$$$
CHEMBL3394164
     RDKit          3D

  0  0  0  0  0  0  0  0  0  0999 V3000
M  V30 BEGIN CTAB
M  V30 COUNTS 46 50 0 0 0
M  V30 BEGIN ATOM
M  V30 1 N -0.379966 -5.677113 3.351454 0
M  V30 2 C -0.437889 -4.958090 2.065158 0
M  V30 3 N -0.603858 -5.415028 1.009322 0
M  V30 4 N -0.664090 -4.840132 -0.142169 0
M  V30 5 C -0.529200 -3.578148 -0.206939 0
M  V30 6 C -0.531624 -2.574202 -1.266484 0
M  V30 7 C -0.729694 -3.074335 -2.530059 0
M  V30 8 C -0.746885 -2.185451 -3.583175 0
M  V30 9 C -0.566031 -0.847716 -3.321267 0
M  V30 10 N -0.541792 0.201908 -4.147313 0
M  V30 11 C -0.339140 1.322837 -3.459413 0
M  V30 12 C -0.217526 1.041493 -2.102160 0
M  V30 13 C 0.006543 1.984242 -1.014174 0
M  V30 14 C 0.077638 3.323374 -1.348132 0
M  V30 15 N 0.276811 4.247906 -0.392723 0
M  V30 16 C 0.412466 3.913624 0.901823 0
M  V30 17 C 0.343912 2.579225 1.251185 0
M  V30 18 N 0.474484 2.124955 2.602203 0
M  V30 19 C 0.432336 0.752357 3.081287 0
M  V30 20 C 0.585783 0.736917 4.583735 0
M  V30 21 C 1.070950 -0.659939 4.858935 0
M  V30 22 C 1.986795 -0.996070 3.698192 0
M  V30 23 C 1.674163 -0.004488 2.624709 0
M  V30 24 N 0.141605 1.653047 0.272746 0
M  V30 25 C -0.366533 -0.338121 -2.055356 0
M  V30 26 C -0.350108 -1.229126 -1.007141 0
M  V30 27 S -0.278182 -3.098032 1.608344 0
M  V30 28 H 0.637280 -5.848731 3.482352 0
M  V30 29 H -1.277680 -5.860086 3.838657 0
M  V30 30 H -0.868625 -4.124735 -2.708137 0
M  V30 31 H -0.899452 -2.547920 -4.581555 0
M  V30 32 H -0.658067 0.205326 -5.183729 0
M  V30 33 H -0.271764 2.331837 -3.859380 0
M  V30 34 H -0.014564 3.737521 -2.354662 0
M  V30 35 H 0.572699 4.661820 1.666831 0
M  V30 36 H 0.617866 2.901394 3.315511 0
M  V30 37 H -0.492930 0.219639 2.773408 0
M  V30 38 H 1.316856 1.520749 4.844384 0
M  V30 39 H -0.403017 0.872894 5.040508 0
M  V30 40 H 1.567578 -0.764458 5.847089 0
M  V30 41 H 0.212863 -1.349230 4.815664 0
M  V30 42 H 1.903503 -2.033956 3.361665 0
M  V30 43 H 3.015396 -0.757392 4.066988 0
M  V30 44 H 2.458366 0.774084 2.510868 0
M  V30 45 H 1.468850 -0.516958 1.681837 0
M  V30 46 H -0.197831 -0.874163 -0.002986 0
M  V30 END ATOM
M  V30 BEGIN BOND
M  V30 1 1 1 2
M  V30 2 2 2 3
M  V30 3 1 3 4
M  V30 4 2 4 5
M  V30 5 1 5 6
M  V30 6 2 6 7
M  V30 7 1 7 8
M  V30 8 2 8 9
M  V30 9 1 9 10
M  V30 10 1 10 11
M  V30 11 2 11 12
M  V30 12 1 12 13
M  V30 13 2 13 14
M  V30 14 1 14 15
M  V30 15 2 15 16
M  V30 16 1 16 17
M  V30 17 1 17 18
M  V30 18 1 18 19
M  V30 19 1 19 20
M  V30 20 1 20 21
M  V30 21 1 21 22
M  V30 22 1 22 23
M  V30 23 2 17 24
M  V30 24 1 12 25
M  V30 25 2 25 26
M  V30 26 1 5 27
M  V30 27 1 27 2
M  V30 28 1 26 6
M  V30 29 1 25 9
M  V30 30 1 24 13
M  V30 31 1 23 19
M  V30 32 1 1 28
M  V30 33 1 1 29
M  V30 34 1 7 30
M  V30 35 1 8 31
M  V30 36 1 10 32
M  V30 37 1 11 33
M  V30 38 1 14 34
M  V30 39 1 16 35
M  V30 40 1 18 36
M  V30 41 1 19 37
M  V30 42 1 20 38
M  V30 43 1 20 39
M  V30 44 1 21 40
M  V30 45 1 21 41
M  V30 46 1 22 42
M  V30 47 1 22 43
M  V30 48 1 23 44
M  V30 49 1 23 45
M  V30 50 1 26 46
M  V30 END BOND
M  V30 END CTAB
M  END
>  <Dataset>  (625) 
ChEMBL_Kinases

>  <Ligand_Instance>  (625) 
nan

>  <PDB_ID>  (625) 
nan

>  <Standardized_SMILES>  (625) 
Nc1nnc(-c2ccc3[nH]cc(-c4cncc(NC5CCCC5)n4)c3c2)s1

>  <Name>  (625) 
nan

>  <Pocket>  (625) 
nan

>  <ATP_Site>  (625) 
nan

>  <Peripheral>  (625) 
nan

>  <Num_H_Atoms_ProtBoundConf>  (625) 
nan

>  <Num_Resolved_Atoms>  (625) 
nan

>  <Num_Not_Resolved_Atoms>  (625) 
nan

$$$$
CHEMBL4798538
     RDKit          3D

  0  0  0  0  0  0  0  0  0  0999 V3000
M  V30 BEGIN CTAB
M  V30 COUNTS 67 73 0 0 0
M  V30 BEGIN ATOM
M  V30 1 C 4.010725 -4.082565 4.415874 0
M  V30 2 N 5.007649 -4.095222 3.512232 0
M  V30 3 C 5.004140 -3.321838 2.409478 0
M  V30 4 C 3.946270 -2.465246 2.162705 0
M  V30 5 C 3.844995 -1.581822 0.992456 0
M  V30 6 C 5.008261 -1.056027 0.437312 0
M  V30 7 C 4.940497 -0.222730 -0.663817 0
M  V30 8 C 3.697330 0.053770 -1.170833 0
M  V30 9 N 3.287113 0.806908 -2.205917 0
M  V30 10 N 1.981757 0.766201 -2.303737 0
M  V30 11 C 1.415197 -0.005464 -1.357148 0
M  V30 12 C -0.001372 -0.262139 -1.183458 0
M  V30 13 C -0.962204 0.278712 -2.013069 0
M  V30 14 C -2.220533 -0.123796 -1.636793 0
M  V30 15 C -3.441802 0.189971 -2.184397 0
M  V30 16 N -3.704639 0.960379 -3.320195 0
M  V30 17 C -5.006594 1.648053 -3.295386 0
M  V30 18 C -5.863433 1.060415 -4.368591 0
M  V30 19 C -5.218079 1.501586 -5.693941 0
M  V30 20 C -3.863114 0.882425 -5.777588 0
M  V30 21 C -3.010333 1.234437 -4.557773 0
M  V30 22 C -4.501606 -0.411281 -1.499708 0
M  V30 23 N -4.367184 -1.199577 -0.440962 0
M  V30 24 C -3.149991 -1.487695 0.070098 0
M  V30 25 C -2.044616 -0.937068 -0.540963 0
M  V30 26 N -0.723925 -0.978085 -0.326388 0
M  V30 27 C 2.528993 -0.428746 -0.673199 0
M  V30 28 C 2.652020 -1.253358 0.423042 0
M  V30 29 C 2.933133 -2.470796 3.107974 0
M  V30 30 C 2.908339 -3.261664 4.261688 0
M  V30 31 C 1.748674 -3.164803 5.184175 0
M  V30 32 N 1.884334 -2.231341 6.240495 0
M  V30 33 C 0.776758 -2.088165 7.126207 0
M  V30 34 C -0.041241 -0.991781 6.439611 0
M  V30 35 C 1.026077 -0.118411 5.826196 0
M  V30 36 C 2.306841 -0.918467 5.930665 0
M  V30 37 H 4.010598 -4.709675 5.311795 0
M  V30 38 H 5.803564 -3.330893 1.683502 0
M  V30 39 H 5.979454 -1.282987 0.848264 0
M  V30 40 H 5.834907 0.210822 -1.129105 0
M  V30 41 H 3.853893 1.374095 -2.885981 0
M  V30 42 H -0.747688 0.939227 -2.838239 0
M  V30 43 H -5.474715 1.658099 -2.308720 0
M  V30 44 H -4.815092 2.717477 -3.587999 0
M  V30 45 H -6.913693 1.355194 -4.316576 0
M  V30 46 H -5.830374 -0.054579 -4.405266 0
M  V30 47 H -5.860165 1.066381 -6.486268 0
M  V30 48 H -5.219659 2.606347 -5.755045 0
M  V30 49 H -3.966521 -0.201387 -5.858646 0
M  V30 50 H -3.349303 1.325065 -6.661612 0
M  V30 51 H -2.827283 2.325377 -4.605162 0
M  V30 52 H -2.064366 0.636916 -4.665289 0
M  V30 53 H -5.543452 -0.293347 -1.767989 0
M  V30 54 H -3.001913 -2.126006 0.931093 0
M  V30 55 H -0.371301 -1.543151 0.461059 0
M  V30 56 H 1.802051 -1.693914 0.902551 0
M  V30 57 H 2.102361 -1.800059 2.913035 0
M  V30 58 H 0.867442 -2.838714 4.560436 0
M  V30 59 H 1.500045 -4.177500 5.518528 0
M  V30 60 H 0.188447 -3.046861 7.090408 0
M  V30 61 H 1.041443 -1.803115 8.150966 0
M  V30 62 H -0.746032 -1.390436 5.693668 0
M  V30 63 H -0.573256 -0.385311 7.196398 0
M  V30 64 H 0.718400 0.081794 4.777304 0
M  V30 65 H 1.105139 0.869191 6.320377 0
M  V30 66 H 2.810338 -0.778940 4.951184 0
M  V30 67 H 2.909057 -0.434096 6.739762 0
M  V30 END ATOM
M  V30 BEGIN BOND
M  V30 1 2 1 2
M  V30 2 1 2 3
M  V30 3 2 3 4
M  V30 4 1 4 5
M  V30 5 2 5 6
M  V30 6 1 6 7
M  V30 7 2 7 8
M  V30 8 1 8 9
M  V30 9 1 9 10
M  V30 10 2 10 11
M  V30 11 1 11 12
M  V30 12 2 12 13
M  V30 13 1 13 14
M  V30 14 2 14 15
M  V30 15 1 15 16
M  V30 16 1 16 17
M  V30 17 1 17 18
M  V30 18 1 18 19
M  V30 19 1 19 20
M  V30 20 1 20 21
M  V30 21 1 15 22
M  V30 22 2 22 23
M  V30 23 1 23 24
M  V30 24 2 24 25
M  V30 25 1 25 26
M  V30 26 1 11 27
M  V30 27 2 27 28
M  V30 28 1 4 29
M  V30 29 2 29 30
M  V30 30 1 30 31
M  V30 31 1 31 32
M  V30 32 1 32 33
M  V30 33 1 33 34
M  V30 34 1 34 35
M  V30 35 1 35 36
M  V30 36 1 30 1
M  V30 37 1 36 32
M  V30 38 1 28 5
M  V30 39 1 27 8
M  V30 40 1 26 12
M  V30 41 1 25 14
M  V30 42 1 21 16
M  V30 43 1 1 37
M  V30 44 1 3 38
M  V30 45 1 6 39
M  V30 46 1 7 40
M  V30 47 1 9 41
M  V30 48 1 13 42
M  V30 49 1 17 43
M  V30 50 1 17 44
M  V30 51 1 18 45
M  V30 52 1 18 46
M  V30 53 1 19 47
M  V30 54 1 19 48
M  V30 55 1 20 49
M  V30 56 1 20 50
M  V30 57 1 21 51
M  V30 58 1 21 52
M  V30 59 1 22 53
M  V30 60 1 24 54
M  V30 61 1 26 55
M  V30 62 1 28 56
M  V30 63 1 29 57
M  V30 64 1 31 58
M  V30 65 1 31 59
M  V30 66 1 33 60
M  V30 67 1 33 61
M  V30 68 1 34 62
M  V30 69 1 34 63
M  V30 70 1 35 64
M  V30 71 1 35 65
M  V30 72 1 36 66
M  V30 73 1 36 67
M  V30 END BOND
M  V30 END CTAB
M  END
>  <Dataset>  (626) 
ChEMBL_Kinases

>  <Ligand_Instance>  (626) 
nan

>  <PDB_ID>  (626) 
nan

>  <Standardized_SMILES>  (626) 
c1ncc(-c2ccc3[nH]nc(-c4cc5c(N6CCCCC6)cncc5[nH]4)c3c2)cc1CN1CCCC1

>  <Name>  (626) 
nan

>  <Pocket>  (626) 
nan

>  <ATP_Site>  (626) 
nan

>  <Peripheral>  (626) 
nan

>  <Num_H_Atoms_ProtBoundConf>  (626) 
nan

>  <Num_Resolved_Atoms>  (626) 
nan

>  <Num_Not_Resolved_Atoms>  (626) 
nan

$$$$
CHEMBL4798488
     RDKit          3D

  0  0  0  0  0  0  0  0  0  0999 V3000
M  V30 BEGIN CTAB
M  V30 COUNTS 61 67 0 0 0
M  V30 BEGIN ATOM
M  V30 1 F 9.831352 0.657395 -3.319461 0
M  V30 2 C 8.847355 0.693019 -2.408005 0
M  V30 3 C 8.737108 1.775345 -1.535260 0
M  V30 4 C 7.739708 1.852609 -0.581978 0
M  V30 5 C 6.819646 0.826821 -0.486629 0
M  V30 6 C 6.883289 -0.267908 -1.326284 0
M  V30 7 C 5.891762 -1.332485 -1.194311 0
M  V30 8 C 6.215233 -2.677130 -1.203031 0
M  V30 9 C 5.242319 -3.650417 -1.074969 0
M  V30 10 N 3.937166 -3.279455 -0.937230 0
M  V30 11 C 3.621572 -1.976083 -0.928531 0
M  V30 12 N 2.457071 -1.319650 -0.812278 0
M  V30 13 C 2.571501 0.007454 -0.851958 0
M  V30 14 C 1.685666 1.149542 -0.776443 0
M  V30 15 N 2.057237 2.454046 -0.844232 0
M  V30 16 N 1.032305 3.262444 -0.746311 0
M  V30 17 C -0.107258 2.565247 -0.605087 0
M  V30 18 C -1.433025 2.916734 -0.464268 0
M  V30 19 C -2.397798 1.942085 -0.336954 0
M  V30 20 C -1.994526 0.623829 -0.355283 0
M  V30 21 C -3.005308 -0.447069 -0.221255 0
M  V30 22 C -2.734667 -1.662651 0.376626 0
M  V30 23 N -3.734289 -2.579996 0.449428 0
M  V30 24 C -4.950168 -2.310419 -0.046175 0
M  V30 25 C -5.263806 -1.091631 -0.658649 0
M  V30 26 C -6.661945 -1.049748 -1.134489 0
M  V30 27 N -7.560203 -0.672944 -0.096761 0
M  V30 28 C -8.944525 -0.618826 -0.571435 0
M  V30 29 C -9.034847 0.759802 -1.184856 0
M  V30 30 C -8.177253 1.600357 -0.296788 0
M  V30 31 F -7.445909 2.551549 -1.006874 0
M  V30 32 F -9.001323 2.271351 0.590455 0
M  V30 33 C -7.283548 0.630194 0.414235 0
M  V30 34 C -4.251347 -0.160840 -0.733734 0
M  V30 35 C -0.661628 0.307639 -0.497591 0
M  V30 36 C 0.324548 1.256556 -0.626791 0
M  V30 37 N 3.901289 0.166829 -1.003173 0
M  V30 38 C 4.554310 -1.000115 -1.052151 0
M  V30 39 C 7.894912 -0.298543 -2.259024 0
M  V30 40 H 9.429244 2.603142 -1.566870 0
M  V30 41 H 7.656847 2.705112 0.101869 0
M  V30 42 H 6.015550 0.863105 0.263349 0
M  V30 43 H 7.251499 -2.963117 -1.312622 0
M  V30 44 H 5.465911 -4.707759 -1.078351 0
M  V30 45 H 1.555663 -1.815291 -0.701745 0
M  V30 46 H 1.152025 4.297618 -0.780635 0
M  V30 47 H -1.654717 3.978410 -0.460987 0
M  V30 48 H -3.428849 2.231351 -0.227812 0
M  V30 49 H -1.721802 -1.824975 0.763303 0
M  V30 50 H -5.628316 -3.141333 0.091344 0
M  V30 51 H -6.951113 -2.028342 -1.620113 0
M  V30 52 H -6.718242 -0.312688 -1.981297 0
M  V30 53 H -9.592255 -0.689971 0.331312 0
M  V30 54 H -9.170501 -1.427643 -1.271705 0
M  V30 55 H -10.076616 1.152795 -1.218130 0
M  V30 56 H -8.629245 0.658246 -2.213032 0
M  V30 57 H -6.231184 0.918053 0.371140 0
M  V30 58 H -7.528870 0.592567 1.509099 0
M  V30 59 H -4.538802 0.753120 -1.222582 0
M  V30 60 H -0.418175 -0.725337 -0.503862 0
M  V30 61 H 7.976503 -1.141785 -2.935047 0
M  V30 END ATOM
M  V30 BEGIN BOND
M  V30 1 1 1 2
M  V30 2 2 2 3
M  V30 3 1 3 4
M  V30 4 2 4 5
M  V30 5 1 5 6
M  V30 6 1 6 7
M  V30 7 2 7 8
M  V30 8 1 8 9
M  V30 9 2 9 10
M  V30 10 1 10 11
M  V30 11 1 11 12
M  V30 12 1 12 13
M  V30 13 1 13 14
M  V30 14 2 14 15
M  V30 15 1 15 16
M  V30 16 1 16 17
M  V30 17 2 17 18
M  V30 18 1 18 19
M  V30 19 2 19 20
M  V30 20 1 20 21
M  V30 21 2 21 22
M  V30 22 1 22 23
M  V30 23 2 23 24
M  V30 24 1 24 25
M  V30 25 1 25 26
M  V30 26 1 26 27
M  V30 27 1 27 28
M  V30 28 1 28 29
M  V30 29 1 29 30
M  V30 30 1 30 31
M  V30 31 1 30 32
M  V30 32 1 30 33
M  V30 33 2 25 34
M  V30 34 1 20 35
M  V30 35 2 35 36
M  V30 36 2 13 37
M  V30 37 1 37 38
M  V30 38 2 6 39
M  V30 39 1 39 2
M  V30 40 1 38 7
M  V30 41 2 38 11
M  V30 42 1 36 14
M  V30 43 1 36 17
M  V30 44 1 34 21
M  V30 45 1 33 27
M  V30 46 1 3 40
M  V30 47 1 4 41
M  V30 48 1 5 42
M  V30 49 1 8 43
M  V30 50 1 9 44
M  V30 51 1 12 45
M  V30 52 1 16 46
M  V30 53 1 18 47
M  V30 54 1 19 48
M  V30 55 1 22 49
M  V30 56 1 24 50
M  V30 57 1 26 51
M  V30 58 1 26 52
M  V30 59 1 28 53
M  V30 60 1 28 54
M  V30 61 1 29 55
M  V30 62 1 29 56
M  V30 63 1 33 57
M  V30 64 1 33 58
M  V30 65 1 34 59
M  V30 66 1 35 60
M  V30 67 1 39 61
M  V30 END BOND
M  V30 END CTAB
M  END
>  <Dataset>  (627) 
ChEMBL_Kinases

>  <Ligand_Instance>  (627) 
nan

>  <PDB_ID>  (627) 
nan

>  <Standardized_SMILES>  (627) 
Fc1cccc(-c2ccnc3[nH]c(-c4n[nH]c5ccc(-c6cncc(CN7CCC(F)(F)C7)c6)cc45)nc23)c1

>  <Name>  (627) 
nan

>  <Pocket>  (627) 
nan

>  <ATP_Site>  (627) 
nan

>  <Peripheral>  (627) 
nan

>  <Num_H_Atoms_ProtBoundConf>  (627) 
nan

>  <Num_Resolved_Atoms>  (627) 
nan

>  <Num_Not_Resolved_Atoms>  (627) 
nan

$$$$
CHEMBL4798397
     RDKit          3D

  0  0  0  0  0  0  0  0  0  0999 V3000
M  V30 BEGIN CTAB
M  V30 COUNTS 48 53 0 0 0
M  V30 BEGIN ATOM
M  V30 1 C 4.084460 2.994854 -0.104519 0
M  V30 2 C 3.917827 1.690334 -0.766386 0
M  V30 3 C 4.972441 0.882611 -1.138634 0
M  V30 4 C 4.709307 -0.325229 -1.754233 0
M  V30 5 N 3.440914 -0.719172 -1.992899 0
M  V30 6 C 2.401339 0.083771 -1.622577 0
M  V30 7 C 2.608600 1.318779 -0.995124 0
M  V30 8 C 1.394911 2.027862 -0.678432 0
M  V30 9 C 1.280909 3.366103 -0.948839 0
M  V30 10 N 0.110058 3.992693 -0.629285 0
M  V30 11 C -0.899914 3.315377 -0.066163 0
M  V30 12 N -2.135664 3.645758 0.349194 0
M  V30 13 N -2.755476 2.591827 0.845429 0
M  V30 14 C -1.987278 1.490325 0.798762 0
M  V30 15 C -2.383934 0.189364 1.264172 0
M  V30 16 C -1.827672 -1.057713 1.336550 0
M  V30 17 C -2.684292 -1.981848 1.896480 0
M  V30 18 C -2.534525 -3.327702 2.156042 0
M  V30 19 C -1.309901 -4.046206 1.829390 0
M  V30 20 C -0.901208 -4.838790 2.908939 0
M  V30 21 C 0.239721 -5.622132 2.840343 0
M  V30 22 C 0.958441 -5.589630 1.662875 0
M  V30 23 N 0.559197 -4.825697 0.630342 0
M  V30 24 C -0.545106 -4.060865 0.682210 0
M  V30 25 C -3.602084 -3.992336 2.741287 0
M  V30 26 N -4.724289 -3.307925 3.027895 0
M  V30 27 C -4.845990 -1.993966 2.764460 0
M  V30 28 C -3.818387 -1.272055 2.181746 0
M  V30 29 N -3.606837 -0.018814 1.801444 0
M  V30 30 C -0.837126 1.968920 0.226613 0
M  V30 31 C 0.346167 1.345302 -0.098597 0
M  V30 32 H 4.381793 3.743597 -0.863847 0
M  V30 33 H 4.994212 2.914791 0.560993 0
M  V30 34 H 3.266974 3.276686 0.554068 0
M  V30 35 H 5.945847 1.297444 -0.898905 0
M  V30 36 H 5.604359 -0.891981 -2.010472 0
M  V30 37 H 1.446160 -0.369480 -1.881025 0
M  V30 38 H 2.053797 3.961915 -1.398472 0
M  V30 39 H -2.594138 4.584907 0.310532 0
M  V30 40 H -0.847395 -1.300272 1.004582 0
M  V30 41 H -1.406146 -4.927802 3.878917 0
M  V30 42 H 0.586733 -6.246559 3.652326 0
M  V30 43 H 1.873975 -6.162585 1.488022 0
M  V30 44 H -0.954014 -3.419309 -0.079671 0
M  V30 45 H -3.545944 -5.050825 2.970283 0
M  V30 46 H -5.756441 -1.462456 3.002533 0
M  V30 47 H -4.400973 0.659747 1.958231 0
M  V30 48 H 0.470619 0.301171 0.098145 0
M  V30 END ATOM
M  V30 BEGIN BOND
M  V30 1 1 1 2
M  V30 2 2 2 3
M  V30 3 1 3 4
M  V30 4 2 4 5
M  V30 5 1 5 6
M  V30 6 2 6 7
M  V30 7 1 7 8
M  V30 8 2 8 9
M  V30 9 1 9 10
M  V30 10 2 10 11
M  V30 11 1 11 12
M  V30 12 1 12 13
M  V30 13 2 13 14
M  V30 14 1 14 15
M  V30 15 2 15 16
M  V30 16 1 16 17
M  V30 17 2 17 18
M  V30 18 1 18 19
M  V30 19 2 19 20
M  V30 20 1 20 21
M  V30 21 2 21 22
M  V30 22 1 22 23
M  V30 23 2 23 24
M  V30 24 1 18 25
M  V30 25 2 25 26
M  V30 26 1 26 27
M  V30 27 2 27 28
M  V30 28 1 28 29
M  V30 29 1 14 30
M  V30 30 2 30 31
M  V30 31 1 7 2
M  V30 32 1 31 8
M  V30 33 1 30 11
M  V30 34 1 29 15
M  V30 35 1 28 17
M  V30 36 1 24 19
M  V30 37 1 1 32
M  V30 38 1 1 33
M  V30 39 1 1 34
M  V30 40 1 3 35
M  V30 41 1 4 36
M  V30 42 1 6 37
M  V30 43 1 9 38
M  V30 44 1 12 39
M  V30 45 1 16 40
M  V30 46 1 20 41
M  V30 47 1 21 42
M  V30 48 1 22 43
M  V30 49 1 24 44
M  V30 50 1 25 45
M  V30 51 1 27 46
M  V30 52 1 29 47
M  V30 53 1 31 48
M  V30 END BOND
M  V30 END CTAB
M  END
>  <Dataset>  (628) 
ChEMBL_Kinases

>  <Ligand_Instance>  (628) 
nan

>  <PDB_ID>  (628) 
nan

>  <Standardized_SMILES>  (628) 
Cc1ccncc1-c1cnc2[nH]nc(-c3cc4c(-c5cccnc5)cncc4[nH]3)c2c1

>  <Name>  (628) 
nan

>  <Pocket>  (628) 
nan

>  <ATP_Site>  (628) 
nan

>  <Peripheral>  (628) 
nan

>  <Num_H_Atoms_ProtBoundConf>  (628) 
nan

>  <Num_Resolved_Atoms>  (628) 
nan

>  <Num_Not_Resolved_Atoms>  (628) 
nan

$$$$
CHEMBL4798360
     RDKit          3D

  0  0  0  0  0  0  0  0  0  0999 V3000
M  V30 BEGIN CTAB
M  V30 COUNTS 56 62 0 0 0
M  V30 BEGIN ATOM
M  V30 1 O 4.186585 -2.466786 -0.518989 0
M  V30 2 C 3.861133 -3.053447 0.556095 0
M  V30 3 N 3.815339 -2.265058 1.724282 0
M  V30 4 C 4.155516 -0.881515 1.499995 0
M  V30 5 C 5.459164 -0.461707 1.602750 0
M  V30 6 N 5.638692 0.855530 1.368659 0
M  V30 7 C 4.619091 1.679167 1.061227 0
M  V30 8 C 3.326911 1.273045 0.957406 0
M  V30 9 C 2.195731 2.129386 0.627590 0
M  V30 10 C 2.340217 3.467051 0.384321 0
M  V30 11 C 1.312900 4.332041 0.067502 0
M  V30 12 C 0.017858 3.808621 -0.013575 0
M  V30 13 N -1.201184 4.323975 -0.288736 0
M  V30 14 N -2.090666 3.350939 -0.223419 0
M  V30 15 C -1.475901 2.179701 0.095097 0
M  V30 16 C -2.064585 0.856142 0.272353 0
M  V30 17 N -3.379210 0.621395 0.131481 0
M  V30 18 C -3.616154 -0.678200 0.354063 0
M  V30 19 C -4.794167 -1.377469 0.324250 0
M  V30 20 C -6.111962 -0.798945 0.022549 0
M  V30 21 C -6.386828 0.482591 -0.269198 0
M  V30 22 C -7.670778 0.865625 -0.527519 0
M  V30 23 C -8.653070 -0.190777 -0.459157 0
M  V30 24 Cl -10.429298 0.008644 -0.751386 0
M  V30 25 S -7.601899 -1.703603 -0.011283 0
M  V30 26 C -4.711028 -2.710843 0.599066 0
M  V30 27 N -3.530134 -3.286955 0.880830 0
M  V30 28 C -2.355523 -2.632410 0.918978 0
M  V30 29 C -2.409871 -1.281212 0.644746 0
M  V30 30 N -1.478241 -0.312512 0.586333 0
M  V30 31 C -0.110673 2.452912 0.235527 0
M  V30 32 N 0.928795 1.644619 0.542891 0
M  V30 33 C 3.070883 -0.074750 1.186637 0
M  V30 34 C 3.530741 -4.495775 0.658842 0
M  V30 35 C 3.611372 -5.247200 -0.653193 0
M  V30 36 C 2.339452 -5.979780 -0.243087 0
M  V30 37 C 2.064377 -4.838448 0.718519 0
M  V30 38 H 3.553631 -2.694804 2.637854 0
M  V30 39 H 6.190272 -1.195328 1.851381 0
M  V30 40 H 4.848793 2.711784 0.890378 0
M  V30 41 H 3.294810 3.949012 0.425125 0
M  V30 42 H 1.437773 5.380170 -0.121456 0
M  V30 43 H -1.319148 5.341997 -0.506320 0
M  V30 44 H -5.617021 1.240854 -0.309043 0
M  V30 45 H -8.054022 1.842410 -0.774622 0
M  V30 46 H -5.583059 -3.378482 0.606584 0
M  V30 47 H -1.415834 -3.090027 1.143038 0
M  V30 48 H -0.453708 -0.445872 0.758513 0
M  V30 49 H 2.074711 -0.447183 1.118295 0
M  V30 50 H 4.067011 -4.989107 1.482274 0
M  V30 51 H 3.419427 -4.509148 -1.483624 0
M  V30 52 H 4.503340 -5.866984 -0.798034 0
M  V30 53 H 1.592068 -6.063939 -1.065139 0
M  V30 54 H 2.617722 -6.937133 0.255227 0
M  V30 55 H 1.377359 -4.112520 0.239412 0
M  V30 56 H 1.685797 -5.135557 1.710555 0
M  V30 END ATOM
M  V30 BEGIN BOND
M  V30 1 2 1 2
M  V30 2 1 2 3
M  V30 3 1 3 4
M  V30 4 2 4 5
M  V30 5 1 5 6
M  V30 6 2 6 7
M  V30 7 1 7 8
M  V30 8 1 8 9
M  V30 9 2 9 10
M  V30 10 1 10 11
M  V30 11 2 11 12
M  V30 12 1 12 13
M  V30 13 1 13 14
M  V30 14 2 14 15
M  V30 15 1 15 16
M  V30 16 2 16 17
M  V30 17 1 17 18
M  V30 18 2 18 19
M  V30 19 1 19 20
M  V30 20 2 20 21
M  V30 21 1 21 22
M  V30 22 2 22 23
M  V30 23 1 23 24
M  V30 24 1 23 25
M  V30 25 1 19 26
M  V30 26 2 26 27
M  V30 27 1 27 28
M  V30 28 2 28 29
M  V30 29 1 29 30
M  V30 30 1 15 31
M  V30 31 2 31 32
M  V30 32 2 8 33
M  V30 33 1 2 34
M  V30 34 1 34 35
M  V30 35 1 35 36
M  V30 36 1 36 37
M  V30 37 1 33 4
M  V30 38 1 37 34
M  V30 39 1 32 9
M  V30 40 1 31 12
M  V30 41 1 30 16
M  V30 42 1 29 18
M  V30 43 1 25 20
M  V30 44 1 3 38
M  V30 45 1 5 39
M  V30 46 1 7 40
M  V30 47 1 10 41
M  V30 48 1 11 42
M  V30 49 1 13 43
M  V30 50 1 21 44
M  V30 51 1 22 45
M  V30 52 1 26 46
M  V30 53 1 28 47
M  V30 54 1 30 48
M  V30 55 1 33 49
M  V30 56 1 34 50
M  V30 57 1 35 51
M  V30 58 1 35 52
M  V30 59 1 36 53
M  V30 60 1 36 54
M  V30 61 1 37 55
M  V30 62 1 37 56
M  V30 END BOND
M  V30 END CTAB
M  END
>  <Dataset>  (629) 
ChEMBL_Kinases

>  <Ligand_Instance>  (629) 
nan

>  <PDB_ID>  (629) 
nan

>  <Standardized_SMILES>  (629) 
O=C(Nc1cncc(-c2ccc3[nH]nc(-c4nc5c(-c6ccc(Cl)s6)cncc5[nH]4)c3n2)c1)C1CCC1

>  <Name>  (629) 
nan

>  <Pocket>  (629) 
nan

>  <ATP_Site>  (629) 
nan

>  <Peripheral>  (629) 
nan

>  <Num_H_Atoms_ProtBoundConf>  (629) 
nan

>  <Num_Resolved_Atoms>  (629) 
nan

>  <Num_Not_Resolved_Atoms>  (629) 
nan

$$$$
CHEMBL4798330
     RDKit          3D

  0  0  0  0  0  0  0  0  0  0999 V3000
M  V30 BEGIN CTAB
M  V30 COUNTS 44 47 0 0 0
M  V30 BEGIN ATOM
M  V30 1 C 0.125423 -4.430178 1.135561 0
M  V30 2 C 1.263783 -4.401973 0.172628 0
M  V30 3 N 2.028883 -5.451881 -0.170025 0
M  V30 4 N 2.951571 -5.089193 -1.047355 0
M  V30 5 C 2.779332 -3.776717 -1.276831 0
M  V30 6 C 3.435829 -2.873365 -2.084919 0
M  V30 7 C 3.017360 -1.563219 -2.107187 0
M  V30 8 F 3.701119 -0.735372 -2.916641 0
M  V30 9 C 1.973303 -1.062896 -1.373945 0
M  V30 10 C 1.481705 0.306341 -1.351710 0
M  V30 11 C 1.941830 1.394649 -2.047730 0
M  V30 12 N 1.413402 2.624722 -1.954937 0
M  V30 13 C 0.366530 2.851858 -1.141527 0
M  V30 14 C -0.126721 1.785803 -0.424059 0
M  V30 15 C -1.280243 1.922209 0.504737 0
M  V30 16 N -0.874619 2.252791 1.830877 0
M  V30 17 C -0.016172 1.320308 2.470627 0
M  V30 18 C -0.649694 0.019819 2.866746 0
M  V30 19 C -1.609862 0.348969 4.002399 0
M  V30 20 C -1.945463 1.802766 4.015283 0
M  V30 21 C -2.059829 2.426879 2.645590 0
M  V30 22 N 0.435604 0.577640 -0.551527 0
M  V30 23 C 1.338234 -1.989781 -0.577125 0
M  V30 24 C 1.731228 -3.309687 -0.530706 0
M  V30 25 H 0.453361 -4.303870 2.189488 0
M  V30 26 H -0.624327 -3.651827 0.927384 0
M  V30 27 H -0.398369 -5.417962 1.093724 0
M  V30 28 H 3.709240 -5.654768 -1.521765 0
M  V30 29 H 4.269360 -3.204839 -2.689673 0
M  V30 30 H 2.777192 1.252836 -2.708041 0
M  V30 31 H -0.155607 3.781983 -0.968552 0
M  V30 32 H -1.977111 2.714463 0.163570 0
M  V30 33 H -1.849900 0.971461 0.461757 0
M  V30 34 H 0.306248 1.808499 3.438287 0
M  V30 35 H 0.920103 1.099034 1.958647 0
M  V30 36 H -1.192418 -0.484881 2.069561 0
M  V30 37 H 0.183663 -0.635580 3.232775 0
M  V30 38 H -2.522275 -0.279305 3.968333 0
M  V30 39 H -1.074694 0.128678 4.954232 0
M  V30 40 H -1.269530 2.389378 4.682332 0
M  V30 41 H -2.950142 1.902496 4.477477 0
M  V30 42 H -2.114652 3.538009 2.840165 0
M  V30 43 H -2.997534 2.158909 2.152037 0
M  V30 44 H 0.482744 -1.734025 0.067626 0
M  V30 END ATOM
M  V30 BEGIN BOND
M  V30 1 1 1 2
M  V30 2 2 2 3
M  V30 3 1 3 4
M  V30 4 1 4 5
M  V30 5 2 5 6
M  V30 6 1 6 7
M  V30 7 1 7 8
M  V30 8 2 7 9
M  V30 9 1 9 10
M  V30 10 2 10 11
M  V30 11 1 11 12
M  V30 12 2 12 13
M  V30 13 1 13 14
M  V30 14 1 14 15
M  V30 15 1 15 16
M  V30 16 1 16 17
M  V30 17 1 17 18
M  V30 18 1 18 19
M  V30 19 1 19 20
M  V30 20 1 20 21
M  V30 21 2 14 22
M  V30 22 1 9 23
M  V30 23 2 23 24
M  V30 24 1 24 2
M  V30 25 1 24 5
M  V30 26 1 22 10
M  V30 27 1 21 16
M  V30 28 1 1 25
M  V30 29 1 1 26
M  V30 30 1 1 27
M  V30 31 1 4 28
M  V30 32 1 6 29
M  V30 33 1 11 30
M  V30 34 1 13 31
M  V30 35 1 15 32
M  V30 36 1 15 33
M  V30 37 1 17 34
M  V30 38 1 17 35
M  V30 39 1 18 36
M  V30 40 1 18 37
M  V30 41 1 19 38
M  V30 42 1 19 39
M  V30 43 1 20 40
M  V30 44 1 20 41
M  V30 45 1 21 42
M  V30 46 1 21 43
M  V30 47 1 23 44
M  V30 END BOND
M  V30 END CTAB
M  END
>  <Dataset>  (630) 
ChEMBL_Kinases

>  <Ligand_Instance>  (630) 
nan

>  <PDB_ID>  (630) 
nan

>  <Standardized_SMILES>  (630) 
Cc1n[nH]c2cc(F)c(-c3cncc(CN4CCCCC4)n3)cc12

>  <Name>  (630) 
nan

>  <Pocket>  (630) 
nan

>  <ATP_Site>  (630) 
nan

>  <Peripheral>  (630) 
nan

>  <Num_H_Atoms_ProtBoundConf>  (630) 
nan

>  <Num_Resolved_Atoms>  (630) 
nan

>  <Num_Not_Resolved_Atoms>  (630) 
nan

$$$$
CHEMBL4798097
     RDKit          3D

  0  0  0  0  0  0  0  0  0  0999 V3000
M  V30 BEGIN CTAB
M  V30 COUNTS 72 77 0 0 0
M  V30 BEGIN ATOM
M  V30 1 C 7.553032 -1.255209 1.785770 0
M  V30 2 N 6.935768 -0.537580 2.846538 0
M  V30 3 C 6.446460 -1.401074 3.865137 0
M  V30 4 C 5.069433 -1.944191 3.682507 0
M  V30 5 N 4.241575 -0.874748 3.092360 0
M  V30 6 C 3.072677 -1.304363 2.430651 0
M  V30 7 C 2.555379 -2.562639 2.722964 0
M  V30 8 C 1.396750 -3.017774 2.139940 0
M  V30 9 N 0.705990 -2.252796 1.249339 0
M  V30 10 C 1.160611 -1.021494 0.925074 0
M  V30 11 N 0.710496 -0.069826 0.089437 0
M  V30 12 C 1.545360 1.006471 0.103948 0
M  V30 13 C 1.425165 2.246726 -0.657412 0
M  V30 14 N 2.233609 3.307904 -0.652648 0
M  V30 15 N 1.790323 4.253051 -1.494297 0
M  V30 16 C 0.663552 3.745948 -2.034363 0
M  V30 17 C -0.246259 4.238228 -2.968240 0
M  V30 18 C -1.335251 3.473537 -3.341615 0
M  V30 19 C -1.583657 2.221095 -2.833893 0
M  V30 20 C -2.725306 1.399570 -3.211767 0
M  V30 21 C -3.676599 1.790209 -4.127612 0
M  V30 22 N -4.725101 1.026435 -4.469027 0
M  V30 23 C -4.872845 -0.185845 -3.899000 0
M  V30 24 C -3.938029 -0.618728 -2.971332 0
M  V30 25 N -4.168863 -1.913929 -2.413138 0
M  V30 26 C -4.973584 -2.028477 -1.230857 0
M  V30 27 O -5.319534 -0.856987 -0.936885 0
M  V30 28 C -5.111769 -3.431917 -0.787040 0
M  V30 29 C -5.975128 -3.506763 0.433987 0
M  V30 30 C -6.143562 -4.929723 0.925764 0
M  V30 31 C -7.356419 -2.988452 0.127864 0
M  V30 32 C -5.394552 -2.676930 1.556564 0
M  V30 33 C -2.862087 0.162592 -2.619640 0
M  V30 34 N -0.674451 1.799407 -1.939324 0
M  V30 35 C 0.397818 2.495610 -1.540603 0
M  V30 36 C 2.528772 0.648926 0.999830 0
M  V30 37 C 2.328893 -0.587240 1.525922 0
M  V30 38 C 4.823487 0.418633 3.351755 0
M  V30 39 C 6.029472 0.511174 2.431486 0
M  V30 40 H 8.472027 -0.752980 1.400806 0
M  V30 41 H 7.811404 -2.285311 2.160511 0
M  V30 42 H 6.880424 -1.392230 0.922130 0
M  V30 43 H 6.599616 -1.005428 4.911636 0
M  V30 44 H 7.131844 -2.303667 3.852671 0
M  V30 45 H 4.617439 -2.149763 4.672512 0
M  V30 46 H 5.033673 -2.849255 3.042555 0
M  V30 47 H 3.070869 -3.208736 3.426031 0
M  V30 48 H 1.047261 -4.024020 2.420700 0
M  V30 49 H -0.156022 -0.165482 -0.476831 0
M  V30 50 H 2.233824 5.179354 -1.683185 0
M  V30 51 H -0.072185 5.224776 -3.384476 0
M  V30 52 H -2.010685 3.899096 -4.069203 0
M  V30 53 H -3.597889 2.752167 -4.608700 0
M  V30 54 H -5.719626 -0.785488 -4.182631 0
M  V30 55 H -3.673908 -2.647180 -3.001529 0
M  V30 56 H -5.591858 -4.068492 -1.575665 0
M  V30 57 H -4.114156 -3.879233 -0.607803 0
M  V30 58 H -6.391975 -4.887777 1.986922 0
M  V30 59 H -5.172842 -5.498972 0.839144 0
M  V30 60 H -6.942380 -5.432037 0.377015 0
M  V30 61 H -7.854909 -3.666626 -0.611655 0
M  V30 62 H -8.012201 -2.930903 0.998420 0
M  V30 63 H -7.260708 -2.017852 -0.380321 0
M  V30 64 H -4.815203 -1.853498 1.109309 0
M  V30 65 H -6.230166 -2.254366 2.136960 0
M  V30 66 H -4.741917 -3.318807 2.205795 0
M  V30 67 H -2.145161 -0.192409 -1.894812 0
M  V30 68 H 3.336799 1.335103 1.193630 0
M  V30 69 H 4.153283 1.267530 3.333049 0
M  V30 70 H 5.264849 0.419051 4.393779 0
M  V30 71 H 5.718888 0.279294 1.387377 0
M  V30 72 H 6.482232 1.517178 2.418345 0
M  V30 END ATOM
M  V30 BEGIN BOND
M  V30 1 1 1 2
M  V30 2 1 2 3
M  V30 3 1 3 4
M  V30 4 1 4 5
M  V30 5 1 5 6
M  V30 6 2 6 7
M  V30 7 1 7 8
M  V30 8 2 8 9
M  V30 9 1 9 10
M  V30 10 1 10 11
M  V30 11 1 11 12
M  V30 12 1 12 13
M  V30 13 2 13 14
M  V30 14 1 14 15
M  V30 15 1 15 16
M  V30 16 2 16 17
M  V30 17 1 17 18
M  V30 18 2 18 19
M  V30 19 1 19 20
M  V30 20 2 20 21
M  V30 21 1 21 22
M  V30 22 2 22 23
M  V30 23 1 23 24
M  V30 24 1 24 25
M  V30 25 1 25 26
M  V30 26 2 26 27
M  V30 27 1 26 28
M  V30 28 1 28 29
M  V30 29 1 29 30
M  V30 30 1 29 31
M  V30 31 1 29 32
M  V30 32 2 24 33
M  V30 33 1 19 34
M  V30 34 2 34 35
M  V30 35 2 12 36
M  V30 36 1 36 37
M  V30 37 1 5 38
M  V30 38 1 38 39
M  V30 39 1 39 2
M  V30 40 1 37 6
M  V30 41 2 37 10
M  V30 42 1 35 13
M  V30 43 1 35 16
M  V30 44 1 33 20
M  V30 45 1 1 40
M  V30 46 1 1 41
M  V30 47 1 1 42
M  V30 48 1 3 43
M  V30 49 1 3 44
M  V30 50 1 4 45
M  V30 51 1 4 46
M  V30 52 1 7 47
M  V30 53 1 8 48
M  V30 54 1 11 49
M  V30 55 1 15 50
M  V30 56 1 17 51
M  V30 57 1 18 52
M  V30 58 1 21 53
M  V30 59 1 23 54
M  V30 60 1 25 55
M  V30 61 1 28 56
M  V30 62 1 28 57
M  V30 63 1 30 58
M  V30 64 1 30 59
M  V30 65 1 30 60
M  V30 66 1 31 61
M  V30 67 1 31 62
M  V30 68 1 31 63
M  V30 69 1 32 64
M  V30 70 1 32 65
M  V30 71 1 32 66
M  V30 72 1 33 67
M  V30 73 1 36 68
M  V30 74 1 38 69
M  V30 75 1 38 70
M  V30 76 1 39 71
M  V30 77 1 39 72
M  V30 END BOND
M  V30 END CTAB
M  END
>  <Dataset>  (631) 
ChEMBL_Kinases

>  <Ligand_Instance>  (631) 
nan

>  <PDB_ID>  (631) 
nan

>  <Standardized_SMILES>  (631) 
CN1CCN(c2ccnc3[nH]c(-c4n[nH]c5ccc(-c6cncc(NC(=O)CC(C)(C)C)c6)nc45)cc23)CC1

>  <Name>  (631) 
nan

>  <Pocket>  (631) 
nan

>  <ATP_Site>  (631) 
nan

>  <Peripheral>  (631) 
nan

>  <Num_H_Atoms_ProtBoundConf>  (631) 
nan

>  <Num_Resolved_Atoms>  (631) 
nan

>  <Num_Not_Resolved_Atoms>  (631) 
nan

$$$$
CHEMBL4798005
     RDKit          3D

  0  0  0  0  0  0  0  0  0  0999 V3000
M  V30 BEGIN CTAB
M  V30 COUNTS 58 63 0 0 0
M  V30 BEGIN ATOM
M  V30 1 C 0.095986 -1.390516 5.254402 0
M  V30 2 C 1.555154 -1.837947 5.118552 0
M  V30 3 C 2.134578 -1.957916 6.488302 0
M  V30 4 C 1.579021 -3.119837 4.341811 0
M  V30 5 C 2.217687 -0.783517 4.307490 0
M  V30 6 O 3.176373 -0.191667 4.841983 0
M  V30 7 N 1.824516 -0.432795 3.003142 0
M  V30 8 C 2.371545 0.543357 2.139732 0
M  V30 9 C 3.434703 1.365369 2.422845 0
M  V30 10 N 3.936837 2.287183 1.582739 0
M  V30 11 C 3.378140 2.451105 0.346413 0
M  V30 12 C 2.296850 1.644192 0.005385 0
M  V30 13 C 1.743947 1.863218 -1.324381 0
M  V30 14 C 0.662829 1.138446 -1.814387 0
M  V30 15 C 0.194034 1.400806 -3.082789 0
M  V30 16 C -0.830102 0.871049 -3.834964 0
M  V30 17 C -1.773211 -0.179118 -3.497505 0
M  V30 18 N -1.946555 -0.933860 -2.402516 0
M  V30 19 C -2.968145 -1.781772 -2.566678 0
M  V30 20 C -3.492142 -2.719185 -1.727209 0
M  V30 21 C -3.002363 -2.995266 -0.389932 0
M  V30 22 C -1.912529 -2.373425 0.315153 0
M  V30 23 C -1.651572 -2.809213 1.560342 0
M  V30 24 C -2.423257 -3.822498 2.115763 0
M  V30 25 F -2.262951 -4.369680 3.395139 0
M  V30 26 S -3.633874 -4.183567 0.725547 0
M  V30 27 N -4.534292 -3.449136 -2.143197 0
M  V30 28 C -5.055702 -3.263833 -3.363286 0
M  V30 29 C -4.559937 -2.332602 -4.238850 0
M  V30 30 C -3.487071 -1.572583 -3.826377 0
M  V30 31 N -2.739010 -0.602594 -4.347813 0
M  V30 32 N -0.830678 1.514114 -5.014167 0
M  V30 33 N 0.131817 2.416365 -5.047994 0
M  V30 34 C 0.768953 2.356364 -3.866231 0
M  V30 35 C 1.824622 3.038295 -3.340403 0
M  V30 36 N 2.284895 2.785425 -2.103702 0
M  V30 37 C 1.820874 0.714680 0.903429 0
M  V30 38 H -0.604774 -2.242141 5.170716 0
M  V30 39 H -0.061700 -0.872111 6.238579 0
M  V30 40 H -0.183165 -0.673980 4.473793 0
M  V30 41 H 3.105276 -2.451041 6.532603 0
M  V30 42 H 2.278228 -0.921685 6.891047 0
M  V30 43 H 1.407322 -2.487193 7.128664 0
M  V30 44 H 1.166825 -2.926588 3.331790 0
M  V30 45 H 2.666836 -3.367118 4.168879 0
M  V30 46 H 1.057525 -3.942731 4.874721 0
M  V30 47 H 1.014370 -1.002302 2.679916 0
M  V30 48 H 3.938790 1.317222 3.356174 0
M  V30 49 H 3.816445 3.210547 -0.304391 0
M  V30 50 H 0.181396 0.373732 -1.223299 0
M  V30 51 H -1.382000 -1.597688 -0.212396 0
M  V30 52 H -0.850750 -2.391160 2.150548 0
M  V30 53 H -5.903578 -3.882507 -3.656209 0
M  V30 54 H -4.971527 -2.182059 -5.209695 0
M  V30 55 H -2.963205 -0.274175 -5.329511 0
M  V30 56 H 0.364677 3.061665 -5.838548 0
M  V30 57 H 2.357847 3.827167 -3.888558 0
M  V30 58 H 0.979798 0.098852 0.616654 0
M  V30 END ATOM
M  V30 BEGIN BOND
M  V30 1 1 1 2
M  V30 2 1 2 3
M  V30 3 1 2 4
M  V30 4 1 2 5
M  V30 5 2 5 6
M  V30 6 1 5 7
M  V30 7 1 7 8
M  V30 8 2 8 9
M  V30 9 1 9 10
M  V30 10 2 10 11
M  V30 11 1 11 12
M  V30 12 1 12 13
M  V30 13 2 13 14
M  V30 14 1 14 15
M  V30 15 1 15 16
M  V30 16 1 16 17
M  V30 17 2 17 18
M  V30 18 1 18 19
M  V30 19 2 19 20
M  V30 20 1 20 21
M  V30 21 2 21 22
M  V30 22 1 22 23
M  V30 23 2 23 24
M  V30 24 1 24 25
M  V30 25 1 24 26
M  V30 26 1 20 27
M  V30 27 2 27 28
M  V30 28 1 28 29
M  V30 29 2 29 30
M  V30 30 1 30 31
M  V30 31 2 16 32
M  V30 32 1 32 33
M  V30 33 1 33 34
M  V30 34 1 34 35
M  V30 35 2 35 36
M  V30 36 2 12 37
M  V30 37 1 37 8
M  V30 38 1 36 13
M  V30 39 2 34 15
M  V30 40 1 31 17
M  V30 41 1 30 19
M  V30 42 1 26 21
M  V30 43 1 1 38
M  V30 44 1 1 39
M  V30 45 1 1 40
M  V30 46 1 3 41
M  V30 47 1 3 42
M  V30 48 1 3 43
M  V30 49 1 4 44
M  V30 50 1 4 45
M  V30 51 1 4 46
M  V30 52 1 7 47
M  V30 53 1 9 48
M  V30 54 1 11 49
M  V30 55 1 14 50
M  V30 56 1 22 51
M  V30 57 1 23 52
M  V30 58 1 28 53
M  V30 59 1 29 54
M  V30 60 1 31 55
M  V30 61 1 33 56
M  V30 62 1 35 57
M  V30 63 1 37 58
M  V30 END BOND
M  V30 END CTAB
M  END
>  <Dataset>  (632) 
ChEMBL_Kinases

>  <Ligand_Instance>  (632) 
nan

>  <PDB_ID>  (632) 
nan

>  <Standardized_SMILES>  (632) 
CC(C)(C)C(=O)Nc1cncc(-c2cc3c(-c4nc5c(-c6ccc(F)s6)nccc5[nH]4)n[nH]c3cn2)c1

>  <Name>  (632) 
nan

>  <Pocket>  (632) 
nan

>  <ATP_Site>  (632) 
nan

>  <Peripheral>  (632) 
nan

>  <Num_H_Atoms_ProtBoundConf>  (632) 
nan

>  <Num_Resolved_Atoms>  (632) 
nan

>  <Num_Not_Resolved_Atoms>  (632) 
nan

$$$$
CHEMBL3394074
     RDKit          3D

  0  0  0  0  0  0  0  0  0  0999 V3000
M  V30 BEGIN CTAB
M  V30 COUNTS 42 45 0 0 0
M  V30 BEGIN ATOM
M  V30 1 C -0.157919 -5.361202 -0.746263 0
M  V30 2 C -0.194552 -4.790773 0.663285 0
M  V30 3 C -1.573722 -5.056169 1.234009 0
M  V30 4 N 0.086327 -3.390263 0.699012 0
M  V30 5 C 1.307826 -2.849632 0.246064 0
M  V30 6 C 2.330304 -3.610457 -0.258016 0
M  V30 7 N 3.497519 -3.098002 -0.691957 0
M  V30 8 C 3.710628 -1.770335 -0.644710 0
M  V30 9 C 2.708943 -0.964973 -0.144689 0
M  V30 10 C 2.931141 0.476605 -0.089506 0
M  V30 11 C 4.058663 1.164770 -0.488562 0
M  V30 12 N 3.886194 2.483764 -0.281629 0
M  V30 13 C 2.662755 2.681825 0.248152 0
M  V30 14 C 2.028397 3.847761 0.631721 0
M  V30 15 C 0.753550 3.814928 1.159226 0
M  V30 16 C 0.172351 2.573243 1.274080 0
M  V30 17 C -1.203762 2.275676 1.816674 0
M  V30 18 N -1.964060 1.448303 2.048515 0
M  V30 19 N -3.147060 1.611119 2.557911 0
M  V30 20 C -3.627009 2.649837 2.864285 0
M  V30 21 N -4.884771 3.030859 3.427122 0
M  V30 22 S -2.181428 3.800817 2.380210 0
M  V30 23 C 0.776349 1.393826 0.901761 0
M  V30 24 C 2.057362 1.440399 0.373100 0
M  V30 25 N 1.563760 -1.529228 0.274762 0
M  V30 26 H -1.191381 -5.678609 -1.070869 0
M  V30 27 H 0.149159 -4.599183 -1.504342 0
M  V30 28 H 0.483309 -6.261751 -0.768207 0
M  V30 29 H 0.503300 -5.379165 1.303048 0
M  V30 30 H -1.973278 -4.132357 1.733454 0
M  V30 31 H -2.284820 -5.341367 0.411842 0
M  V30 32 H -1.592516 -5.898922 1.944769 0
M  V30 33 H -0.634283 -2.715458 1.075086 0
M  V30 34 H 2.235520 -4.685013 -0.327878 0
M  V30 35 H 4.664976 -1.412091 -1.005735 0
M  V30 36 H 4.919403 0.647692 -0.899978 0
M  V30 37 H 4.607371 3.202399 -0.508343 0
M  V30 38 H 2.470680 4.839861 0.549116 0
M  V30 39 H 0.143483 4.638985 1.497677 0
M  V30 40 H -5.633054 3.224531 2.711357 0
M  V30 41 H -4.959917 3.085096 4.462440 0
M  V30 42 H 0.359155 0.400111 0.973720 0
M  V30 END ATOM
M  V30 BEGIN BOND
M  V30 1 1 1 2
M  V30 2 1 2 3
M  V30 3 1 2 4
M  V30 4 1 4 5
M  V30 5 2 5 6
M  V30 6 1 6 7
M  V30 7 2 7 8
M  V30 8 1 8 9
M  V30 9 1 9 10
M  V30 10 2 10 11
M  V30 11 1 11 12
M  V30 12 1 12 13
M  V30 13 2 13 14
M  V30 14 1 14 15
M  V30 15 2 15 16
M  V30 16 1 16 17
M  V30 17 2 17 18
M  V30 18 1 18 19
M  V30 19 2 19 20
M  V30 20 1 20 21
M  V30 21 1 20 22
M  V30 22 1 16 23
M  V30 23 2 23 24
M  V30 24 2 9 25
M  V30 25 1 25 5
M  V30 26 1 24 10
M  V30 27 1 24 13
M  V30 28 1 22 17
M  V30 29 1 1 26
M  V30 30 1 1 27
M  V30 31 1 1 28
M  V30 32 1 2 29
M  V30 33 1 3 30
M  V30 34 1 3 31
M  V30 35 1 3 32
M  V30 36 1 4 33
M  V30 37 1 6 34
M  V30 38 1 8 35
M  V30 39 1 11 36
M  V30 40 1 12 37
M  V30 41 1 14 38
M  V30 42 1 15 39
M  V30 43 1 21 40
M  V30 44 1 21 41
M  V30 45 1 23 42
M  V30 END BOND
M  V30 END CTAB
M  END
>  <Dataset>  (633) 
ChEMBL_Kinases

>  <Ligand_Instance>  (633) 
nan

>  <PDB_ID>  (633) 
nan

>  <Standardized_SMILES>  (633) 
CC(C)Nc1cncc(-c2c[nH]c3ccc(-c4nnc(N)s4)cc23)n1

>  <Name>  (633) 
nan

>  <Pocket>  (633) 
nan

>  <ATP_Site>  (633) 
nan

>  <Peripheral>  (633) 
nan

>  <Num_H_Atoms_ProtBoundConf>  (633) 
nan

>  <Num_Resolved_Atoms>  (633) 
nan

>  <Num_Not_Resolved_Atoms>  (633) 
nan

$$$$
CHEMBL3394073
     RDKit          3D

  0  0  0  0  0  0  0  0  0  0999 V3000
M  V30 BEGIN CTAB
M  V30 COUNTS 44 48 0 0 0
M  V30 BEGIN ATOM
M  V30 1 N -1.423817 -4.955994 4.218423 0
M  V30 2 C -1.621070 -4.449849 2.883083 0
M  V30 3 N -2.301744 -4.803051 1.998740 0
M  V30 4 N -2.387400 -4.250883 0.829513 0
M  V30 5 C -1.779669 -3.299939 0.492018 0
M  V30 6 C -1.661221 -2.457341 -0.739356 0
M  V30 7 C -2.426298 -2.796030 -1.836244 0
M  V30 8 C -2.297171 -2.002371 -2.957044 0
M  V30 9 C -1.441910 -0.918635 -2.981151 0
M  V30 10 N -1.124431 0.001540 -3.908686 0
M  V30 11 C -0.216867 0.873123 -3.440667 0
M  V30 12 C 0.100906 0.533925 -2.133996 0
M  V30 13 C 1.046637 1.224081 -1.259668 0
M  V30 14 C 1.703545 2.327251 -1.762648 0
M  V30 15 N 2.591419 3.025382 -1.031908 0
M  V30 16 C 2.865170 2.657505 0.230752 0
M  V30 17 C 2.225964 1.559625 0.763665 0
M  V30 18 N 2.410712 1.050278 2.078435 0
M  V30 19 C 1.769076 -0.086763 2.709314 0
M  V30 20 C 1.044887 0.267977 3.985172 0
M  V30 21 O 1.989855 0.806663 4.875076 0
M  V30 22 C 2.439459 1.980690 4.277232 0
M  V30 23 C 3.306711 1.584753 3.079252 0
M  V30 24 N 1.332558 0.868334 0.008499 0
M  V30 25 C -0.678453 -0.578736 -1.889972 0
M  V30 26 C -0.815743 -1.378333 -0.776775 0
M  V30 27 S -0.799677 -2.940046 2.028796 0
M  V30 28 H -0.522180 -5.431948 4.305636 0
M  V30 29 H -2.214330 -4.768946 4.895852 0
M  V30 30 H -3.072682 -3.660775 -1.736981 0
M  V30 31 H -2.897210 -2.269627 -3.814398 0
M  V30 32 H -1.553567 0.009699 -4.875176 0
M  V30 33 H 0.182097 1.703835 -4.028777 0
M  V30 34 H 1.500421 2.650654 -2.789237 0
M  V30 35 H 3.569989 3.189287 0.851203 0
M  V30 36 H 1.027855 -0.552264 2.030883 0
M  V30 37 H 2.495877 -0.876669 2.985422 0
M  V30 38 H 0.277905 1.015593 3.781671 0
M  V30 39 H 0.639190 -0.693738 4.370191 0
M  V30 40 H 2.960570 2.618611 4.991520 0
M  V30 41 H 1.506344 2.471790 3.877440 0
M  V30 42 H 4.012794 0.808508 3.487059 0
M  V30 43 H 3.875276 2.433387 2.694106 0
M  V30 44 H -0.241893 -1.161370 0.111316 0
M  V30 END ATOM
M  V30 BEGIN BOND
M  V30 1 1 1 2
M  V30 2 2 2 3
M  V30 3 1 3 4
M  V30 4 2 4 5
M  V30 5 1 5 6
M  V30 6 2 6 7
M  V30 7 1 7 8
M  V30 8 2 8 9
M  V30 9 1 9 10
M  V30 10 1 10 11
M  V30 11 2 11 12
M  V30 12 1 12 13
M  V30 13 2 13 14
M  V30 14 1 14 15
M  V30 15 2 15 16
M  V30 16 1 16 17
M  V30 17 1 17 18
M  V30 18 1 18 19
M  V30 19 1 19 20
M  V30 20 1 20 21
M  V30 21 1 21 22
M  V30 22 1 22 23
M  V30 23 2 17 24
M  V30 24 1 12 25
M  V30 25 2 25 26
M  V30 26 1 5 27
M  V30 27 1 27 2
M  V30 28 1 26 6
M  V30 29 1 25 9
M  V30 30 1 24 13
M  V30 31 1 23 18
M  V30 32 1 1 28
M  V30 33 1 1 29
M  V30 34 1 7 30
M  V30 35 1 8 31
M  V30 36 1 10 32
M  V30 37 1 11 33
M  V30 38 1 14 34
M  V30 39 1 16 35
M  V30 40 1 19 36
M  V30 41 1 19 37
M  V30 42 1 20 38
M  V30 43 1 20 39
M  V30 44 1 22 40
M  V30 45 1 22 41
M  V30 46 1 23 42
M  V30 47 1 23 43
M  V30 48 1 26 44
M  V30 END BOND
M  V30 END CTAB
M  END
>  <Dataset>  (634) 
ChEMBL_Kinases

>  <Ligand_Instance>  (634) 
nan

>  <PDB_ID>  (634) 
nan

>  <Standardized_SMILES>  (634) 
Nc1nnc(-c2ccc3[nH]cc(-c4cncc(N5CCOCC5)n4)c3c2)s1

>  <Name>  (634) 
nan

>  <Pocket>  (634) 
nan

>  <ATP_Site>  (634) 
nan

>  <Peripheral>  (634) 
nan

>  <Num_H_Atoms_ProtBoundConf>  (634) 
nan

>  <Num_Resolved_Atoms>  (634) 
nan

>  <Num_Not_Resolved_Atoms>  (634) 
nan

$$$$
CHEMBL3394071
     RDKit          3D

  0  0  0  0  0  0  0  0  0  0999 V3000
M  V30 BEGIN CTAB
M  V30 COUNTS 33 36 0 0 0
M  V30 BEGIN ATOM
M  V30 1 N 2.835093 -5.820638 0.682118 0
M  V30 2 C 1.842859 -4.835329 0.941924 0
M  V30 3 C 0.713138 -5.146911 1.656776 0
M  V30 4 N -0.158178 -4.161844 1.849930 0
M  V30 5 C 0.083081 -2.935910 1.358290 0
M  V30 6 C 1.179750 -2.565888 0.644087 0
M  V30 7 C 1.564214 -1.302240 0.074746 0
M  V30 8 C 2.795333 -1.124409 -0.522849 0
M  V30 9 N 2.914109 0.131844 -0.982350 0
M  V30 10 C 1.798855 0.817686 -0.716112 0
M  V30 11 C 1.391154 2.109287 -0.960865 0
M  V30 12 C 0.151301 2.572986 -0.573293 0
M  V30 13 C -0.641861 1.662146 0.069008 0
M  V30 14 C -2.012488 2.084162 0.526744 0
M  V30 15 N -2.549914 3.168969 0.405934 0
M  V30 16 N -3.721037 3.508825 0.803850 0
M  V30 17 C -4.450692 2.566565 1.428726 0
M  V30 18 N -5.783003 2.780159 1.937956 0
M  V30 19 S -3.231440 1.079306 1.384699 0
M  V30 20 C -0.251787 0.374448 0.320307 0
M  V30 21 C 0.980747 -0.073671 -0.068536 0
M  V30 22 N 2.013718 -3.606908 0.488270 0
M  V30 23 H 3.356601 -5.998749 1.566117 0
M  V30 24 H 3.251485 -6.437390 -0.037478 0
M  V30 25 H 0.632877 -6.160143 1.997234 0
M  V30 26 H -0.671757 -2.220177 1.576517 0
M  V30 27 H 3.644451 -1.812191 -0.672047 0
M  V30 28 H 3.718816 0.569146 -1.476587 0
M  V30 29 H 2.046303 2.806296 -1.473463 0
M  V30 30 H -0.231937 3.576493 -0.734431 0
M  V30 31 H -6.485401 2.441420 1.245840 0
M  V30 32 H -5.850263 3.221439 2.879858 0
M  V30 33 H -0.933146 -0.250850 0.814189 0
M  V30 END ATOM
M  V30 BEGIN BOND
M  V30 1 1 1 2
M  V30 2 2 2 3
M  V30 3 1 3 4
M  V30 4 2 4 5
M  V30 5 1 5 6
M  V30 6 1 6 7
M  V30 7 2 7 8
M  V30 8 1 8 9
M  V30 9 1 9 10
M  V30 10 2 10 11
M  V30 11 1 11 12
M  V30 12 2 12 13
M  V30 13 1 13 14
M  V30 14 2 14 15
M  V30 15 1 15 16
M  V30 16 2 16 17
M  V30 17 1 17 18
M  V30 18 1 17 19
M  V30 19 1 13 20
M  V30 20 2 20 21
M  V30 21 2 6 22
M  V30 22 1 22 2
M  V30 23 1 21 7
M  V30 24 1 21 10
M  V30 25 1 19 14
M  V30 26 1 1 23
M  V30 27 1 1 24
M  V30 28 1 3 25
M  V30 29 1 5 26
M  V30 30 1 8 27
M  V30 31 1 9 28
M  V30 32 1 11 29
M  V30 33 1 12 30
M  V30 34 1 18 31
M  V30 35 1 18 32
M  V30 36 1 20 33
M  V30 END BOND
M  V30 END CTAB
M  END
>  <Dataset>  (635) 
ChEMBL_Kinases

>  <Ligand_Instance>  (635) 
nan

>  <PDB_ID>  (635) 
nan

>  <Standardized_SMILES>  (635) 
Nc1cncc(-c2c[nH]c3ccc(-c4nnc(N)s4)cc23)n1

>  <Name>  (635) 
nan

>  <Pocket>  (635) 
nan

>  <ATP_Site>  (635) 
nan

>  <Peripheral>  (635) 
nan

>  <Num_H_Atoms_ProtBoundConf>  (635) 
nan

>  <Num_Resolved_Atoms>  (635) 
nan

>  <Num_Not_Resolved_Atoms>  (635) 
nan

$$$$
CHEMBL3394166
     RDKit          3D

  0  0  0  0  0  0  0  0  0  0999 V3000
M  V30 BEGIN CTAB
M  V30 COUNTS 39 42 0 0 0
M  V30 BEGIN ATOM
M  V30 1 C -1.042126 -3.014282 1.621825 0
M  V30 2 C 0.139491 -3.509948 2.428252 0
M  V30 3 O 1.126852 -4.141081 1.611346 0
M  V30 4 C 1.769113 -3.474956 0.590328 0
M  V30 5 C 2.709271 -4.220738 -0.122121 0
M  V30 6 C 3.402490 -3.616616 -1.171903 0
M  V30 7 C 3.058300 -2.296662 -1.386860 0
M  V30 8 C 2.134167 -1.535277 -0.699407 0
M  V30 9 C 1.907144 -0.145415 -1.076665 0
M  V30 10 C 2.543780 0.529255 -2.097276 0
M  V30 11 N 2.047255 1.799337 -2.117516 0
M  V30 12 C 1.129983 1.911620 -1.139736 0
M  V30 13 C 0.352264 3.012125 -0.767384 0
M  V30 14 C -0.554463 2.933194 0.285626 0
M  V30 15 C -0.628117 1.732979 0.913631 0
M  V30 16 C -1.528840 1.408226 2.071799 0
M  V30 17 N -1.862705 0.544292 2.839177 0
M  V30 18 N -2.756519 0.731079 3.757080 0
M  V30 19 C -3.362791 1.687526 4.002442 0
M  V30 20 N -4.374534 1.869693 5.054739 0
M  V30 21 S -2.627901 2.842609 2.652763 0
M  V30 22 C 0.105304 0.608582 0.601815 0
M  V30 23 C 1.013110 0.706622 -0.461093 0
M  V30 24 N 1.508942 -2.188408 0.296601 0
M  V30 25 H -1.849401 -3.787732 1.600779 0
M  V30 26 H -1.500117 -2.137795 2.124574 0
M  V30 27 H -0.788493 -2.734210 0.584558 0
M  V30 28 H -0.278956 -4.225690 3.164238 0
M  V30 29 H 0.546095 -2.645057 2.986165 0
M  V30 30 H 2.938778 -5.256076 0.091750 0
M  V30 31 H 4.143140 -4.093449 -1.783479 0
M  V30 32 H 3.587920 -1.796331 -2.206534 0
M  V30 33 H 3.301195 0.169734 -2.783420 0
M  V30 34 H 2.355463 2.533149 -2.796652 0
M  V30 35 H 0.422888 3.975432 -1.284341 0
M  V30 36 H -1.184175 3.712671 0.637817 0
M  V30 37 H -4.083570 2.197382 6.007767 0
M  V30 38 H -5.312337 1.620736 4.649820 0
M  V30 39 H 0.079062 -0.347322 1.065607 0
M  V30 END ATOM
M  V30 BEGIN BOND
M  V30 1 1 1 2
M  V30 2 1 2 3
M  V30 3 1 3 4
M  V30 4 2 4 5
M  V30 5 1 5 6
M  V30 6 2 6 7
M  V30 7 1 7 8
M  V30 8 1 8 9
M  V30 9 2 9 10
M  V30 10 1 10 11
M  V30 11 1 11 12
M  V30 12 2 12 13
M  V30 13 1 13 14
M  V30 14 2 14 15
M  V30 15 1 15 16
M  V30 16 2 16 17
M  V30 17 1 17 18
M  V30 18 2 18 19
M  V30 19 1 19 20
M  V30 20 1 19 21
M  V30 21 1 15 22
M  V30 22 2 22 23
M  V30 23 2 8 24
M  V30 24 1 24 4
M  V30 25 1 23 9
M  V30 26 1 23 12
M  V30 27 1 21 16
M  V30 28 1 1 25
M  V30 29 1 1 26
M  V30 30 1 1 27
M  V30 31 1 2 28
M  V30 32 1 2 29
M  V30 33 1 5 30
M  V30 34 1 6 31
M  V30 35 1 7 32
M  V30 36 1 10 33
M  V30 37 1 11 34
M  V30 38 1 13 35
M  V30 39 1 14 36
M  V30 40 1 20 37
M  V30 41 1 20 38
M  V30 42 1 22 39
M  V30 END BOND
M  V30 END CTAB
M  END
>  <Dataset>  (636) 
ChEMBL_Kinases

>  <Ligand_Instance>  (636) 
nan

>  <PDB_ID>  (636) 
nan

>  <Standardized_SMILES>  (636) 
CCOc1cccc(-c2c[nH]c3ccc(-c4nnc(N)s4)cc23)n1

>  <Name>  (636) 
nan

>  <Pocket>  (636) 
nan

>  <ATP_Site>  (636) 
nan

>  <Peripheral>  (636) 
nan

>  <Num_H_Atoms_ProtBoundConf>  (636) 
nan

>  <Num_Resolved_Atoms>  (636) 
nan

>  <Num_Not_Resolved_Atoms>  (636) 
nan

$$$$
CHEMBL4800437
     RDKit          3D

  0  0  0  0  0  0  0  0  0  0999 V3000
M  V30 BEGIN CTAB
M  V30 COUNTS 61 66 0 0 0
M  V30 BEGIN ATOM
M  V30 1 O 0.218940 -0.444964 2.709379 0
M  V30 2 C -0.507013 -0.697648 3.735063 0
M  V30 3 N 0.281315 -0.617357 4.909482 0
M  V30 4 C 1.604783 -0.274627 4.447181 0
M  V30 5 C 2.626918 -1.128242 4.082721 0
M  V30 6 C 3.819474 -0.575378 3.661180 0
M  V30 7 C 3.984172 0.791605 3.605984 0
M  V30 8 N 5.194078 1.391779 3.170434 0
M  V30 9 C 5.530695 2.801849 3.094816 0
M  V30 10 C 5.793378 2.918610 1.585296 0
M  V30 11 C 6.673259 1.675598 1.388300 0
M  V30 12 C 6.447135 0.861390 2.670517 0
M  V30 13 N 2.969822 1.638481 3.968150 0
M  V30 14 C 1.787746 1.088944 4.385867 0
M  V30 15 C -1.951782 -1.023034 3.687531 0
M  V30 16 N -2.814323 -1.303763 4.645915 0
M  V30 17 N -4.002691 -1.520224 4.103313 0
M  V30 18 C -3.925090 -1.380200 2.759245 0
M  V30 19 C -4.858611 -1.492530 1.740329 0
M  V30 20 C -4.512935 -1.288924 0.398541 0
M  V30 21 C -3.189781 -0.973821 0.184296 0
M  V30 22 C -2.746114 -0.733756 -1.206921 0
M  V30 23 C -1.733288 0.130739 -1.601300 0
M  V30 24 N -1.438393 0.247584 -2.913393 0
M  V30 25 C -2.074543 -0.429812 -3.858457 0
M  V30 26 C -3.102523 -1.323018 -3.600271 0
M  V30 27 C -3.869078 -2.123815 -4.586174 0
M  V30 28 N -3.401892 -3.359874 -4.917160 0
M  V30 29 C -2.175400 -3.679533 -5.491864 0
M  V30 30 C -2.276755 -4.992155 -4.695351 0
M  V30 31 C -3.731773 -4.608785 -4.401433 0
M  V30 32 C -3.393293 -1.430235 -2.236454 0
M  V30 33 C -2.233201 -0.853350 1.169430 0
M  V30 34 C -2.598092 -1.056525 2.469382 0
M  V30 35 H -0.214622 -0.809594 5.832160 0
M  V30 36 H 2.381196 -2.171188 4.167956 0
M  V30 37 H 4.599168 -1.248417 3.382777 0
M  V30 38 H 6.488953 3.043880 3.590633 0
M  V30 39 H 4.685365 3.442723 3.354674 0
M  V30 40 H 6.306709 3.846439 1.321802 0
M  V30 41 H 4.827977 2.788944 1.052777 0
M  V30 42 H 7.717033 2.033177 1.304504 0
M  V30 43 H 6.344641 1.088777 0.517279 0
M  V30 44 H 6.395509 -0.218467 2.441502 0
M  V30 45 H 7.252452 1.116617 3.368256 0
M  V30 46 H 1.042120 1.854272 4.652470 0
M  V30 47 H -4.914441 -1.766178 4.560384 0
M  V30 48 H -5.897184 -1.742523 1.943072 0
M  V30 49 H -5.242473 -1.376653 -0.394002 0
M  V30 50 H -1.243102 0.661869 -0.796618 0
M  V30 51 H -1.821807 -0.323441 -4.925290 0
M  V30 52 H -3.992056 -1.461769 -5.485019 0
M  V30 53 H -4.898437 -2.205515 -4.165374 0
M  V30 54 H -1.283383 -3.084707 -5.272308 0
M  V30 55 H -2.249643 -3.864123 -6.587465 0
M  V30 56 H -1.710349 -4.979430 -3.752845 0
M  V30 57 H -2.136603 -5.891450 -5.295848 0
M  V30 58 H -4.036585 -4.632485 -3.357499 0
M  V30 59 H -4.385152 -5.261364 -5.010338 0
M  V30 60 H -4.202391 -2.127556 -1.978091 0
M  V30 61 H -1.235853 -0.607461 0.902303 0
M  V30 END ATOM
M  V30 BEGIN BOND
M  V30 1 2 1 2
M  V30 2 1 2 3
M  V30 3 1 3 4
M  V30 4 2 4 5
M  V30 5 1 5 6
M  V30 6 2 6 7
M  V30 7 1 7 8
M  V30 8 1 8 9
M  V30 9 1 9 10
M  V30 10 1 10 11
M  V30 11 1 11 12
M  V30 12 1 7 13
M  V30 13 2 13 14
M  V30 14 1 2 15
M  V30 15 2 15 16
M  V30 16 1 16 17
M  V30 17 1 17 18
M  V30 18 2 18 19
M  V30 19 1 19 20
M  V30 20 2 20 21
M  V30 21 1 21 22
M  V30 22 2 22 23
M  V30 23 1 23 24
M  V30 24 2 24 25
M  V30 25 1 25 26
M  V30 26 1 26 27
M  V30 27 1 27 28
M  V30 28 1 28 29
M  V30 29 1 29 30
M  V30 30 1 30 31
M  V30 31 2 26 32
M  V30 32 1 21 33
M  V30 33 2 33 34
M  V30 34 1 14 4
M  V30 35 1 34 15
M  V30 36 1 12 8
M  V30 37 1 34 18
M  V30 38 1 32 22
M  V30 39 1 31 28
M  V30 40 1 3 35
M  V30 41 1 5 36
M  V30 42 1 6 37
M  V30 43 1 9 38
M  V30 44 1 9 39
M  V30 45 1 10 40
M  V30 46 1 10 41
M  V30 47 1 11 42
M  V30 48 1 11 43
M  V30 49 1 12 44
M  V30 50 1 12 45
M  V30 51 1 14 46
M  V30 52 1 17 47
M  V30 53 1 19 48
M  V30 54 1 20 49
M  V30 55 1 23 50
M  V30 56 1 25 51
M  V30 57 1 27 52
M  V30 58 1 27 53
M  V30 59 1 29 54
M  V30 60 1 29 55
M  V30 61 1 30 56
M  V30 62 1 30 57
M  V30 63 1 31 58
M  V30 64 1 31 59
M  V30 65 1 32 60
M  V30 66 1 33 61
M  V30 END BOND
M  V30 END CTAB
M  END
>  <Dataset>  (637) 
ChEMBL_Kinases

>  <Ligand_Instance>  (637) 
nan

>  <PDB_ID>  (637) 
nan

>  <Standardized_SMILES>  (637) 
O=C(Nc1ccc(N2CCCC2)nc1)c1n[nH]c2ccc(-c3cncc(CN4CCC4)c3)cc12

>  <Name>  (637) 
nan

>  <Pocket>  (637) 
nan

>  <ATP_Site>  (637) 
nan

>  <Peripheral>  (637) 
nan

>  <Num_H_Atoms_ProtBoundConf>  (637) 
nan

>  <Num_Resolved_Atoms>  (637) 
nan

>  <Num_Not_Resolved_Atoms>  (637) 
nan

$$$$
CHEMBL4800405
     RDKit          3D

  0  0  0  0  0  0  0  0  0  0999 V3000
M  V30 BEGIN CTAB
M  V30 COUNTS 52 58 0 0 0
M  V30 BEGIN ATOM
M  V30 1 O 1.586621 -3.181115 0.776064 0
M  V30 2 C 2.562895 -3.399592 0.021195 0
M  V30 3 C 3.940411 -2.906807 -0.118291 0
M  V30 4 O 4.312816 -1.951979 0.791208 0
M  V30 5 C 3.849249 -0.710739 1.065534 0
M  V30 6 C 4.591729 -0.164569 2.121040 0
M  V30 7 C 4.346065 1.114270 2.628918 0
M  V30 8 C 3.298986 1.801079 1.995638 0
M  V30 9 C 2.546924 1.267831 0.938585 0
M  V30 10 C 2.830311 0.002628 0.477008 0
M  V30 11 C 1.532638 2.165799 0.438081 0
M  V30 12 C 2.186704 3.314329 -0.043146 0
M  V30 13 N 1.610037 4.421320 -0.607855 0
M  V30 14 C 0.268566 4.442544 -0.729474 0
M  V30 15 C -0.399855 3.318865 -0.260461 0
M  V30 16 N -1.716671 3.054430 -0.241112 0
M  V30 17 C -1.949529 1.828511 0.315606 0
M  V30 18 N -0.750978 1.319396 0.649362 0
M  V30 19 C 0.164606 2.202085 0.307840 0
M  V30 20 C -3.247789 1.197313 0.511930 0
M  V30 21 N -4.474985 1.734076 0.621135 0
M  V30 22 N -5.331376 0.741567 0.788353 0
M  V30 23 C -4.728991 -0.459338 0.797243 0
M  V30 24 C -5.164121 -1.762010 0.936253 0
M  V30 25 C -4.217841 -2.787511 0.894368 0
M  V30 26 C -2.890182 -2.458321 0.716233 0
M  V30 27 C -2.466658 -1.156354 0.578334 0
M  V30 28 C -3.393676 -0.166870 0.620276 0
M  V30 29 C -1.906926 -3.538505 0.681363 0
M  V30 30 C -2.238603 -4.757787 1.234258 0
M  V30 31 N -1.364228 -5.793713 1.238014 0
M  V30 32 C -0.138919 -5.577680 0.670529 0
M  V30 33 C 0.238072 -4.360810 0.100503 0
M  V30 34 C -0.670119 -3.328247 0.110758 0
M  V30 35 N 1.546729 -4.259910 -0.451650 0
M  V30 36 H 4.179362 -2.523628 -1.138132 0
M  V30 37 H 4.608095 -3.809523 0.003865 0
M  V30 38 H 5.422553 -0.633284 2.668626 0
M  V30 39 H 4.879557 1.575851 3.427941 0
M  V30 40 H 3.080785 2.814376 2.364907 0
M  V30 41 H 2.277423 -0.424598 -0.319698 0
M  V30 42 H 3.278240 3.477619 -0.021454 0
M  V30 43 H -0.250172 5.274650 -1.161902 0
M  V30 44 H -2.445924 3.732171 -0.617637 0
M  V30 45 H -6.382519 0.856407 0.904439 0
M  V30 46 H -6.231960 -1.954425 1.074181 0
M  V30 47 H -4.617152 -3.783757 1.006996 0
M  V30 48 H -1.422484 -0.931221 0.441579 0
M  V30 49 H -3.181430 -5.004118 1.700459 0
M  V30 50 H 0.614298 -6.383567 0.642203 0
M  V30 51 H -0.333212 -2.434517 -0.335246 0
M  V30 52 H 1.526966 -4.949167 -1.231075 0
M  V30 END ATOM
M  V30 BEGIN BOND
M  V30 1 2 1 2
M  V30 2 1 2 3
M  V30 3 1 3 4
M  V30 4 1 4 5
M  V30 5 1 5 6
M  V30 6 2 6 7
M  V30 7 1 7 8
M  V30 8 2 8 9
M  V30 9 1 9 10
M  V30 10 1 9 11
M  V30 11 1 11 12
M  V30 12 2 12 13
M  V30 13 1 13 14
M  V30 14 2 14 15
M  V30 15 1 15 16
M  V30 16 1 16 17
M  V30 17 2 17 18
M  V30 18 1 18 19
M  V30 19 1 17 20
M  V30 20 2 20 21
M  V30 21 1 21 22
M  V30 22 1 22 23
M  V30 23 2 23 24
M  V30 24 1 24 25
M  V30 25 2 25 26
M  V30 26 1 26 27
M  V30 27 2 27 28
M  V30 28 1 26 29
M  V30 29 1 29 30
M  V30 30 2 30 31
M  V30 31 1 31 32
M  V30 32 2 32 33
M  V30 33 1 33 34
M  V30 34 1 33 35
M  V30 35 1 35 2
M  V30 36 2 10 5
M  V30 37 2 19 11
M  V30 38 1 28 20
M  V30 39 2 34 29
M  V30 40 1 19 15
M  V30 41 1 28 23
M  V30 42 1 3 36
M  V30 43 1 3 37
M  V30 44 1 6 38
M  V30 45 1 7 39
M  V30 46 1 8 40
M  V30 47 1 10 41
M  V30 48 1 12 42
M  V30 49 1 14 43
M  V30 50 1 16 44
M  V30 51 1 22 45
M  V30 52 1 24 46
M  V30 53 1 25 47
M  V30 54 1 27 48
M  V30 55 1 30 49
M  V30 56 1 32 50
M  V30 57 1 34 51
M  V30 58 1 35 52
M  V30 END BOND
M  V30 END CTAB
M  END
>  <Dataset>  (638) 
ChEMBL_Kinases

>  <Ligand_Instance>  (638) 
nan

>  <PDB_ID>  (638) 
nan

>  <Standardized_SMILES>  (638) 
O=C1COc2cccc(c2)-c2cncc3[nH]c(nc23)-c2n[nH]c3ccc(cc23)-c2cncc(c2)N1

>  <Name>  (638) 
nan

>  <Pocket>  (638) 
nan

>  <ATP_Site>  (638) 
nan

>  <Peripheral>  (638) 
nan

>  <Num_H_Atoms_ProtBoundConf>  (638) 
nan

>  <Num_Resolved_Atoms>  (638) 
nan

>  <Num_Not_Resolved_Atoms>  (638) 
nan

$$$$
CHEMBL4800320
     RDKit          3D

  0  0  0  0  0  0  0  0  0  0999 V3000
M  V30 BEGIN CTAB
M  V30 COUNTS 53 58 0 0 0
M  V30 BEGIN ATOM
M  V30 1 C 5.068428 -0.138764 4.106670 0
M  V30 2 C 4.753930 -1.108885 3.012486 0
M  V30 3 C 4.602983 -2.506934 3.602702 0
M  V30 4 N 3.581808 -0.747074 2.241930 0
M  V30 5 C 3.522497 0.466845 1.510839 0
M  V30 6 C 4.542213 1.391085 1.456382 0
M  V30 7 N 4.427428 2.526716 0.746550 0
M  V30 8 C 3.326391 2.848254 0.043224 0
M  V30 9 C 2.264437 1.971257 0.050442 0
M  V30 10 C 1.010591 2.186051 -0.663109 0
M  V30 11 C 0.770680 3.309908 -1.424815 0
M  V30 12 C -0.413594 3.541196 -2.115029 0
M  V30 13 C -1.405501 2.588741 -2.031301 0
M  V30 14 N -2.647274 2.437044 -2.527301 0
M  V30 15 N -3.190635 1.295195 -2.123320 0
M  V30 16 C -2.280581 0.658982 -1.328262 0
M  V30 17 C -2.421201 -0.640288 -0.643910 0
M  V30 18 N -3.500417 -1.426181 -0.696772 0
M  V30 19 C -3.333668 -2.551631 0.031712 0
M  V30 20 C -4.038185 -3.690975 0.359012 0
M  V30 21 C -5.379689 -3.813493 -0.200161 0
M  V30 22 C -5.906983 -3.594144 -1.464670 0
M  V30 23 C -7.267100 -3.884342 -1.383617 0
M  V30 24 O -7.546041 -4.254014 -0.155786 0
M  V30 25 C -6.459091 -4.228071 0.583786 0
M  V30 26 N -3.533234 -4.650433 1.150410 0
M  V30 27 C -2.276065 -4.502099 1.655147 0
M  V30 28 C -1.503369 -3.380544 1.370157 0
M  V30 29 C -2.070675 -2.424709 0.551565 0
M  V30 30 N -1.520830 -1.278968 0.147923 0
M  V30 31 C -1.159499 1.466688 -1.267780 0
M  V30 32 N 0.007621 1.295070 -0.620088 0
M  V30 33 C 2.401949 0.811088 0.785175 0
M  V30 34 H 4.904061 -0.627607 5.092808 0
M  V30 35 H 4.399683 0.766755 4.097363 0
M  V30 36 H 6.129290 0.149971 4.042184 0
M  V30 37 H 5.606405 -1.144470 2.300523 0
M  V30 38 H 4.924463 -3.275767 2.875443 0
M  V30 39 H 5.277094 -2.584039 4.470758 0
M  V30 40 H 3.539133 -2.704884 3.855132 0
M  V30 41 H 2.756245 -1.382411 2.214448 0
M  V30 42 H 5.458508 1.199710 1.995799 0
M  V30 43 H 3.246459 3.749857 -0.515071 0
M  V30 44 H 1.505976 4.074388 -1.520635 0
M  V30 45 H -0.577058 4.432118 -2.706319 0
M  V30 46 H -3.088879 3.169508 -3.157816 0
M  V30 47 H -5.254903 -3.256428 -2.279069 0
M  V30 48 H -7.809140 -3.754241 -2.311032 0
M  V30 49 H -6.451028 -4.498519 1.646108 0
M  V30 50 H -1.871782 -5.279914 2.294317 0
M  V30 51 H -0.503686 -3.297293 1.791561 0
M  V30 52 H -0.598669 -0.824366 0.318408 0
M  V30 53 H 1.566571 0.101080 0.802503 0
M  V30 END ATOM
M  V30 BEGIN BOND
M  V30 1 1 1 2
M  V30 2 1 2 3
M  V30 3 1 2 4
M  V30 4 1 4 5
M  V30 5 2 5 6
M  V30 6 1 6 7
M  V30 7 2 7 8
M  V30 8 1 8 9
M  V30 9 1 9 10
M  V30 10 2 10 11
M  V30 11 1 11 12
M  V30 12 2 12 13
M  V30 13 1 13 14
M  V30 14 1 14 15
M  V30 15 2 15 16
M  V30 16 1 16 17
M  V30 17 2 17 18
M  V30 18 1 18 19
M  V30 19 2 19 20
M  V30 20 1 20 21
M  V30 21 1 21 22
M  V30 22 2 22 23
M  V30 23 1 23 24
M  V30 24 1 24 25
M  V30 25 1 20 26
M  V30 26 2 26 27
M  V30 27 1 27 28
M  V30 28 2 28 29
M  V30 29 1 29 30
M  V30 30 1 16 31
M  V30 31 2 31 32
M  V30 32 2 9 33
M  V30 33 1 33 5
M  V30 34 1 32 10
M  V30 35 1 31 13
M  V30 36 1 30 17
M  V30 37 1 29 19
M  V30 38 2 25 21
M  V30 39 1 1 34
M  V30 40 1 1 35
M  V30 41 1 1 36
M  V30 42 1 2 37
M  V30 43 1 3 38
M  V30 44 1 3 39
M  V30 45 1 3 40
M  V30 46 1 4 41
M  V30 47 1 6 42
M  V30 48 1 8 43
M  V30 49 1 11 44
M  V30 50 1 12 45
M  V30 51 1 14 46
M  V30 52 1 22 47
M  V30 53 1 23 48
M  V30 54 1 25 49
M  V30 55 1 27 50
M  V30 56 1 28 51
M  V30 57 1 30 52
M  V30 58 1 33 53
M  V30 END BOND
M  V30 END CTAB
M  END
>  <Dataset>  (639) 
ChEMBL_Kinases

>  <Ligand_Instance>  (639) 
nan

>  <PDB_ID>  (639) 
nan

>  <Standardized_SMILES>  (639) 
CC(C)Nc1cncc(-c2ccc3[nH]nc(-c4nc5c(-c6ccoc6)nccc5[nH]4)c3n2)c1

>  <Name>  (639) 
nan

>  <Pocket>  (639) 
nan

>  <ATP_Site>  (639) 
nan

>  <Peripheral>  (639) 
nan

>  <Num_H_Atoms_ProtBoundConf>  (639) 
nan

>  <Num_Resolved_Atoms>  (639) 
nan

>  <Num_Not_Resolved_Atoms>  (639) 
nan

$$$$
CHEMBL4800296
     RDKit          3D

  0  0  0  0  0  0  0  0  0  0999 V3000
M  V30 BEGIN CTAB
M  V30 COUNTS 43 46 0 0 0
M  V30 BEGIN ATOM
M  V30 1 C 5.082439 -8.177014 -1.953347 0
M  V30 2 C 4.014188 -7.141557 -1.822103 0
M  V30 3 N 3.177816 -6.603995 -2.405323 0
M  V30 4 C 2.340578 -5.673695 -2.006287 0
M  V30 5 C 2.445435 -5.251681 -0.706724 0
M  V30 6 C 1.832613 -4.309531 0.243872 0
M  V30 7 O 2.319005 -4.298066 1.399386 0
M  V30 8 N 0.789914 -3.572088 -0.316049 0
M  V30 9 C 0.049908 -2.600812 0.415168 0
M  V30 10 C 0.429003 -1.255991 0.472906 0
M  V30 11 C -0.385906 -0.406195 1.224582 0
M  V30 12 C -0.040051 0.926660 1.302135 0
M  V30 13 C -0.815564 1.800888 2.032865 0
M  V30 14 C -0.390478 3.194687 2.071527 0
M  V30 15 C 0.933536 3.572203 2.283572 0
M  V30 16 N 0.922743 4.905965 2.251189 0
M  V30 17 C -0.312872 5.363814 2.034659 0
M  V30 18 C -0.654303 6.803839 1.944410 0
M  V30 19 N -1.143880 4.315911 1.920169 0
M  V30 20 C -2.571966 4.341986 1.680912 0
M  V30 21 C -1.935267 1.309603 2.677203 0
M  V30 22 C -2.305941 -0.020319 2.617141 0
M  V30 23 C -1.504748 -0.887696 1.870747 0
M  V30 24 C -1.840683 -2.225942 1.785379 0
M  V30 25 N -1.058322 -3.054063 1.060831 0
M  V30 26 S 3.878174 -6.325188 -0.090353 0
M  V30 27 H 5.888737 -8.056696 -1.188347 0
M  V30 28 H 5.600193 -8.098318 -2.925190 0
M  V30 29 H 4.658554 -9.205529 -1.764114 0
M  V30 30 H 1.556681 -5.172131 -2.558427 0
M  V30 31 H 0.463522 -3.661935 -1.300825 0
M  V30 32 H 1.321953 -0.941090 -0.059058 0
M  V30 33 H 0.840329 1.283228 0.788905 0
M  V30 34 H 1.837212 2.987976 2.448115 0
M  V30 35 H -0.249462 7.340706 2.847685 0
M  V30 36 H -1.727682 7.007774 1.907897 0
M  V30 37 H -0.143695 7.277500 1.067761 0
M  V30 38 H -2.922451 3.402145 1.194036 0
M  V30 39 H -3.087084 4.426019 2.658946 0
M  V30 40 H -2.864269 5.239992 1.096038 0
M  V30 41 H -2.532637 2.006501 3.245404 0
M  V30 42 H -3.183111 -0.356147 3.133426 0
M  V30 43 H -2.737193 -2.591101 2.308072 0
M  V30 END ATOM
M  V30 BEGIN BOND
M  V30 1 1 1 2
M  V30 2 2 2 3
M  V30 3 1 3 4
M  V30 4 2 4 5
M  V30 5 1 5 6
M  V30 6 2 6 7
M  V30 7 1 6 8
M  V30 8 1 8 9
M  V30 9 2 9 10
M  V30 10 1 10 11
M  V30 11 2 11 12
M  V30 12 1 12 13
M  V30 13 1 13 14
M  V30 14 2 14 15
M  V30 15 1 15 16
M  V30 16 2 16 17
M  V30 17 1 17 18
M  V30 18 1 17 19
M  V30 19 1 19 20
M  V30 20 2 13 21
M  V30 21 1 21 22
M  V30 22 2 22 23
M  V30 23 1 23 24
M  V30 24 2 24 25
M  V30 25 1 5 26
M  V30 26 1 26 2
M  V30 27 1 25 9
M  V30 28 1 23 11
M  V30 29 1 19 14
M  V30 30 1 1 27
M  V30 31 1 1 28
M  V30 32 1 1 29
M  V30 33 1 4 30
M  V30 34 1 8 31
M  V30 35 1 10 32
M  V30 36 1 12 33
M  V30 37 1 15 34
M  V30 38 1 18 35
M  V30 39 1 18 36
M  V30 40 1 18 37
M  V30 41 1 20 38
M  V30 42 1 20 39
M  V30 43 1 20 40
M  V30 44 1 21 41
M  V30 45 1 22 42
M  V30 46 1 24 43
M  V30 END BOND
M  V30 END CTAB
M  END
>  <Dataset>  (640) 
ChEMBL_Kinases

>  <Ligand_Instance>  (640) 
nan

>  <PDB_ID>  (640) 
nan

>  <Standardized_SMILES>  (640) 
Cc1ncc(C(=O)Nc2cc3cc(-c4cnc(C)n4C)ccc3cn2)s1

>  <Name>  (640) 
nan

>  <Pocket>  (640) 
nan

>  <ATP_Site>  (640) 
nan

>  <Peripheral>  (640) 
nan

>  <Num_H_Atoms_ProtBoundConf>  (640) 
nan

>  <Num_Resolved_Atoms>  (640) 
nan

>  <Num_Not_Resolved_Atoms>  (640) 
nan

$$$$
CHEMBL4800211
     RDKit          3D

  0  0  0  0  0  0  0  0  0  0999 V3000
M  V30 BEGIN CTAB
M  V30 COUNTS 57 61 0 0 0
M  V30 BEGIN ATOM
M  V30 1 C 2.673811 -0.091054 6.860656 0
M  V30 2 N 4.056518 -0.356374 7.073242 0
M  V30 3 C 4.975302 0.571135 6.494305 0
M  V30 4 C 4.978527 0.480760 4.991033 0
M  V30 5 N 4.215268 -0.673833 4.498566 0
M  V30 6 C 3.579929 -0.496773 3.231968 0
M  V30 7 C 2.813406 -1.482007 2.642819 0
M  V30 8 C 2.192123 -1.338947 1.418164 0
M  V30 9 C 2.353140 -0.139209 0.752411 0
M  V30 10 C 1.809759 0.272130 -0.539133 0
M  V30 11 O 2.054624 1.388212 -1.130986 0
M  V30 12 N 0.946631 -0.412563 -1.380824 0
M  V30 13 C 0.103214 -0.867767 -2.399329 0
M  V30 14 C -1.254776 -0.560585 -2.327874 0
M  V30 15 C -2.092212 -0.976900 -3.359361 0
M  V30 16 C -3.445650 -0.737955 -3.404582 0
M  V30 17 C -4.204817 -1.201941 -4.487359 0
M  V30 18 C -5.646466 -0.950446 -4.544359 0
M  V30 19 C -6.535579 -0.762137 -5.578987 0
M  V30 20 N -7.762589 -0.561715 -5.064342 0
M  V30 21 N -7.724525 -0.608547 -3.741906 0
M  V30 22 C -8.877325 -0.430431 -2.863201 0
M  V30 23 C -6.438113 -0.845760 -3.400668 0
M  V30 24 C -3.605409 -1.905610 -5.523976 0
M  V30 25 C -2.234105 -2.102381 -5.399452 0
M  V30 26 C -1.433470 -1.674566 -4.366806 0
M  V30 27 C -0.097361 -1.992300 -4.462782 0
M  V30 28 N 0.671117 -1.561795 -3.430770 0
M  V30 29 C 3.113541 0.852500 1.324723 0
M  V30 30 N 3.682038 0.631038 2.517999 0
M  V30 31 C 4.069242 -1.944427 5.185664 0
M  V30 32 C 4.406400 -1.684328 6.655618 0
M  V30 33 H 2.129513 -0.300460 7.829453 0
M  V30 34 H 2.227606 -0.839186 6.147201 0
M  V30 35 H 2.399425 0.933771 6.606398 0
M  V30 36 H 4.888491 1.608028 6.885007 0
M  V30 37 H 6.000850 0.231713 6.834378 0
M  V30 38 H 6.028778 0.436339 4.570090 0
M  V30 39 H 4.528141 1.421993 4.582898 0
M  V30 40 H 2.664158 -2.440250 3.136079 0
M  V30 41 H 1.587715 -2.047914 0.897169 0
M  V30 42 H 0.779483 -1.319144 -0.832005 0
M  V30 43 H -1.685703 -0.015296 -1.512936 0
M  V30 44 H -3.905282 -0.190071 -2.592483 0
M  V30 45 H -6.143322 -0.800284 -6.593125 0
M  V30 46 H -9.558352 -1.272149 -3.058871 0
M  V30 47 H -8.590324 -0.317261 -1.817037 0
M  V30 48 H -9.414385 0.492958 -3.220007 0
M  V30 49 H -6.090944 -0.940527 -2.368269 0
M  V30 50 H -4.177512 -2.259610 -6.349713 0
M  V30 51 H -1.814416 -2.665199 -6.248667 0
M  V30 52 H 0.288555 -2.541300 -5.304510 0
M  V30 53 H 3.289443 1.827700 0.861983 0
M  V30 54 H 4.811732 -2.700187 4.784329 0
M  V30 55 H 3.066719 -2.377699 5.125514 0
M  V30 56 H 3.899495 -2.449809 7.303621 0
M  V30 57 H 5.509957 -1.825333 6.784122 0
M  V30 END ATOM
M  V30 BEGIN BOND
M  V30 1 1 1 2
M  V30 2 1 2 3
M  V30 3 1 3 4
M  V30 4 1 4 5
M  V30 5 1 5 6
M  V30 6 2 6 7
M  V30 7 1 7 8
M  V30 8 2 8 9
M  V30 9 1 9 10
M  V30 10 2 10 11
M  V30 11 1 10 12
M  V30 12 1 12 13
M  V30 13 2 13 14
M  V30 14 1 14 15
M  V30 15 2 15 16
M  V30 16 1 16 17
M  V30 17 1 17 18
M  V30 18 1 18 19
M  V30 19 2 19 20
M  V30 20 1 20 21
M  V30 21 1 21 22
M  V30 22 1 21 23
M  V30 23 2 17 24
M  V30 24 1 24 25
M  V30 25 2 25 26
M  V30 26 1 26 27
M  V30 27 2 27 28
M  V30 28 1 9 29
M  V30 29 2 29 30
M  V30 30 1 5 31
M  V30 31 1 31 32
M  V30 32 1 32 2
M  V30 33 1 30 6
M  V30 34 1 28 13
M  V30 35 1 26 15
M  V30 36 2 23 18
M  V30 37 1 1 33
M  V30 38 1 1 34
M  V30 39 1 1 35
M  V30 40 1 3 36
M  V30 41 1 3 37
M  V30 42 1 4 38
M  V30 43 1 4 39
M  V30 44 1 7 40
M  V30 45 1 8 41
M  V30 46 1 12 42
M  V30 47 1 14 43
M  V30 48 1 16 44
M  V30 49 1 19 45
M  V30 50 1 22 46
M  V30 51 1 22 47
M  V30 52 1 22 48
M  V30 53 1 23 49
M  V30 54 1 24 50
M  V30 55 1 25 51
M  V30 56 1 27 52
M  V30 57 1 29 53
M  V30 58 1 31 54
M  V30 59 1 31 55
M  V30 60 1 32 56
M  V30 61 1 32 57
M  V30 END BOND
M  V30 END CTAB
M  END
>  <Dataset>  (641) 
ChEMBL_Kinases

>  <Ligand_Instance>  (641) 
nan

>  <PDB_ID>  (641) 
nan

>  <Standardized_SMILES>  (641) 
CN1CCN(c2ccc(C(=O)Nc3cc4cc(-c5cnn(C)c5)ccc4cn3)cn2)CC1

>  <Name>  (641) 
nan

>  <Pocket>  (641) 
nan

>  <ATP_Site>  (641) 
nan

>  <Peripheral>  (641) 
nan

>  <Num_H_Atoms_ProtBoundConf>  (641) 
nan

>  <Num_Resolved_Atoms>  (641) 
nan

>  <Num_Not_Resolved_Atoms>  (641) 
nan

$$$$
CHEMBL4800107
     RDKit          3D

  0  0  0  0  0  0  0  0  0  0999 V3000
M  V30 BEGIN CTAB
M  V30 COUNTS 62 67 0 0 0
M  V30 BEGIN ATOM
M  V30 1 C -2.791745 5.871511 -2.555816 0
M  V30 2 C -1.423570 6.504359 -2.503193 0
M  V30 3 C -0.780123 6.327161 -1.141120 0
M  V30 4 C -0.506908 5.956886 -3.574226 0
M  V30 5 C -0.329697 4.470827 -3.397273 0
M  V30 6 O -0.975093 4.108750 -2.351273 0
M  V30 7 N 0.365523 3.476695 -4.118996 0
M  V30 8 C 0.107070 2.264739 -3.382286 0
M  V30 9 C -1.008922 1.521293 -3.691711 0
M  V30 10 N -1.149308 0.413931 -2.941813 0
M  V30 11 C -0.274239 0.065987 -1.975345 0
M  V30 12 C 0.850892 0.847761 -1.688997 0
M  V30 13 C 1.743712 0.393928 -0.626632 0
M  V30 14 C 2.877910 1.096082 -0.282151 0
M  V30 15 C 3.703156 0.622357 0.736294 0
M  V30 16 C 3.317954 -0.546940 1.345715 0
M  V30 17 N 3.946646 -1.208898 2.355403 0
M  V30 18 N 3.222041 -2.270891 2.613375 0
M  V30 19 C 2.152232 -2.353655 1.837401 0
M  V30 20 C 1.125502 -3.382181 1.830303 0
M  V30 21 C 0.015477 -3.439443 1.014500 0
M  V30 22 C -0.749631 -4.563305 1.291621 0
M  V30 23 C -1.928907 -5.024819 0.736236 0
M  V30 24 C -2.520891 -4.231498 -0.324066 0
M  V30 25 C -2.000238 -3.764908 -1.511158 0
M  V30 26 C -2.764695 -3.013988 -2.374880 0
M  V30 27 C -4.074614 -2.727067 -2.038995 0
M  V30 28 C -4.654062 -3.175601 -0.845900 0
M  V30 29 C -3.846903 -3.932079 -0.000626 0
M  V30 30 F -4.527860 -4.305181 1.120811 0
M  V30 31 N -2.412798 -6.158521 1.238187 0
M  V30 32 C -1.802265 -6.834216 2.232626 0
M  V30 33 C -0.621027 -6.370509 2.788526 0
M  V30 34 C -0.066721 -5.192298 2.307210 0
M  V30 35 N 1.026786 -4.468641 2.594726 0
M  V30 36 C 2.184568 -1.254932 1.007059 0
M  V30 37 N 1.415375 -0.747333 0.005709 0
M  V30 38 C 1.046422 2.004802 -2.433487 0
M  V30 39 H -3.607000 6.646495 -2.439650 0
M  V30 40 H -3.016577 5.410853 -3.556084 0
M  V30 41 H -2.959301 5.160527 -1.721072 0
M  V30 42 H -1.529109 7.590195 -2.676806 0
M  V30 43 H -1.317565 5.576684 -0.524333 0
M  V30 44 H -0.705892 7.256829 -0.562162 0
M  V30 45 H 0.254140 5.944652 -1.272112 0
M  V30 46 H -0.906769 6.128201 -4.578224 0
M  V30 47 H 0.483868 6.447206 -3.508125 0
M  V30 48 H 0.839761 3.941905 -4.950487 0
M  V30 49 H -1.655967 1.864977 -4.473711 0
M  V30 50 H -0.534456 -0.857856 -1.463648 0
M  V30 51 H 3.158140 1.997199 -0.763165 0
M  V30 52 H 4.584934 1.181929 0.991522 0
M  V30 53 H 4.841657 -0.914802 2.829721 0
M  V30 54 H -0.187524 -2.675036 0.266521 0
M  V30 55 H -0.976238 -4.063157 -1.637556 0
M  V30 56 H -2.293030 -2.681991 -3.285969 0
M  V30 57 H -4.642698 -2.132630 -2.746101 0
M  V30 58 H -5.682988 -2.903618 -0.663144 0
M  V30 59 H -2.231856 -7.753614 2.610739 0
M  V30 60 H -0.124910 -6.902011 3.582712 0
M  V30 61 H 1.704163 -4.756043 3.341634 0
M  V30 62 H 1.902875 2.614754 -2.227733 0
M  V30 END ATOM
M  V30 BEGIN BOND
M  V30 1 1 1 2
M  V30 2 1 2 3
M  V30 3 1 2 4
M  V30 4 1 4 5
M  V30 5 2 5 6
M  V30 6 1 5 7
M  V30 7 1 7 8
M  V30 8 2 8 9
M  V30 9 1 9 10
M  V30 10 2 10 11
M  V30 11 1 11 12
M  V30 12 1 12 13
M  V30 13 2 13 14
M  V30 14 1 14 15
M  V30 15 2 15 16
M  V30 16 1 16 17
M  V30 17 1 17 18
M  V30 18 2 18 19
M  V30 19 1 19 20
M  V30 20 2 20 21
M  V30 21 1 21 22
M  V30 22 2 22 23
M  V30 23 1 23 24
M  V30 24 2 24 25
M  V30 25 1 25 26
M  V30 26 2 26 27
M  V30 27 1 27 28
M  V30 28 2 28 29
M  V30 29 1 29 30
M  V30 30 1 23 31
M  V30 31 2 31 32
M  V30 32 1 32 33
M  V30 33 2 33 34
M  V30 34 1 34 35
M  V30 35 1 19 36
M  V30 36 2 36 37
M  V30 37 2 12 38
M  V30 38 1 38 8
M  V30 39 1 37 13
M  V30 40 1 36 16
M  V30 41 1 35 20
M  V30 42 1 34 22
M  V30 43 1 29 24
M  V30 44 1 1 39
M  V30 45 1 1 40
M  V30 46 1 1 41
M  V30 47 1 2 42
M  V30 48 1 3 43
M  V30 49 1 3 44
M  V30 50 1 3 45
M  V30 51 1 4 46
M  V30 52 1 4 47
M  V30 53 1 7 48
M  V30 54 1 9 49
M  V30 55 1 11 50
M  V30 56 1 14 51
M  V30 57 1 15 52
M  V30 58 1 17 53
M  V30 59 1 21 54
M  V30 60 1 25 55
M  V30 61 1 26 56
M  V30 62 1 27 57
M  V30 63 1 28 58
M  V30 64 1 32 59
M  V30 65 1 33 60
M  V30 66 1 35 61
M  V30 67 1 38 62
M  V30 END BOND
M  V30 END CTAB
M  END
>  <Dataset>  (642) 
ChEMBL_Kinases

>  <Ligand_Instance>  (642) 
nan

>  <PDB_ID>  (642) 
nan

>  <Standardized_SMILES>  (642) 
CC(C)CC(=O)Nc1cncc(-c2ccc3[nH]nc(-c4cc5c(-c6ccccc6F)nccc5[nH]4)c3n2)c1

>  <Name>  (642) 
nan

>  <Pocket>  (642) 
nan

>  <ATP_Site>  (642) 
nan

>  <Peripheral>  (642) 
nan

>  <Num_H_Atoms_ProtBoundConf>  (642) 
nan

>  <Num_Resolved_Atoms>  (642) 
nan

>  <Num_Not_Resolved_Atoms>  (642) 
nan

$$$$
CHEMBL4800084
     RDKit          3D

  0  0  0  0  0  0  0  0  0  0999 V3000
M  V30 BEGIN CTAB
M  V30 COUNTS 59 63 0 0 0
M  V30 BEGIN ATOM
M  V30 1 C 7.049180 -5.118090 2.877109 0
M  V30 2 O 6.221997 -4.417577 3.799346 0
M  V30 3 C 5.703047 -3.186563 3.419915 0
M  V30 4 C 4.894913 -2.474913 4.287259 0
M  V30 5 C 4.322197 -1.245692 4.024688 0
M  V30 6 C 4.585441 -0.687615 2.786274 0
M  V30 7 N 4.022489 0.594996 2.438632 0
M  V30 8 C 2.754903 0.732814 1.803503 0
M  V30 9 O 2.039567 -0.258021 1.503405 0
M  V30 10 C 2.364614 2.120546 1.534512 0
M  V30 11 N 3.010159 3.293314 1.777617 0
M  V30 12 N 2.291363 4.311343 1.372687 0
M  V30 13 C 1.134684 3.887301 0.840215 0
M  V30 14 C 0.098455 4.624922 0.300153 0
M  V30 15 C -0.968506 3.885838 -0.169115 0
M  V30 16 C -0.979969 2.509889 -0.094978 0
M  V30 17 C -2.189679 1.900206 -0.635139 0
M  V30 18 C -2.853486 2.513276 -1.697425 0
M  V30 19 N -3.969799 1.915833 -2.159094 0
M  V30 20 C -4.466611 0.774228 -1.652260 0
M  V30 21 C -3.864710 0.112665 -0.603585 0
M  V30 22 C -4.322795 -1.148428 0.036381 0
M  V30 23 N -3.718168 -2.245081 -0.660918 0
M  V30 24 C -4.062731 -3.531005 -0.146876 0
M  V30 25 C -3.431850 -4.675997 -0.856227 0
M  V30 26 C -3.687365 -4.579393 -2.348254 0
M  V30 27 C -3.103573 -3.280802 -2.799411 0
M  V30 28 C -3.651263 -2.096009 -2.067882 0
M  V30 29 C -2.704786 0.726379 -0.118095 0
M  V30 30 C 0.088419 1.828371 0.457134 0
M  V30 31 C 1.182778 2.515048 0.942708 0
M  V30 32 C 5.394054 -1.393971 1.911490 0
M  V30 33 N 5.920814 -2.588911 2.231013 0
M  V30 34 H 7.613486 -4.369356 2.270392 0
M  V30 35 H 7.737442 -5.820652 3.399216 0
M  V30 36 H 6.372324 -5.645589 2.153015 0
M  V30 37 H 4.686960 -2.903939 5.250872 0
M  V30 38 H 3.698521 -0.749405 4.757915 0
M  V30 39 H 4.623915 1.408915 2.692741 0
M  V30 40 H 2.614270 5.317550 1.469951 0
M  V30 41 H 0.155061 5.706655 0.264575 0
M  V30 42 H -1.777805 4.498496 -0.592874 0
M  V30 43 H -2.517799 3.429543 -2.158761 0
M  V30 44 H -5.365088 0.320233 -2.043501 0
M  V30 45 H -5.437406 -1.194915 -0.123854 0
M  V30 46 H -4.165948 -1.158426 1.113980 0
M  V30 47 H -5.165623 -3.633227 -0.091082 0
M  V30 48 H -3.713954 -3.552838 0.914045 0
M  V30 49 H -3.941766 -5.613327 -0.493598 0
M  V30 50 H -2.352481 -4.768704 -0.625306 0
M  V30 51 H -3.164945 -5.406334 -2.867816 0
M  V30 52 H -4.790769 -4.600744 -2.473833 0
M  V30 53 H -1.994505 -3.346842 -2.598664 0
M  V30 54 H -3.265813 -3.217442 -3.893254 0
M  V30 55 H -4.683449 -1.931350 -2.471502 0
M  V30 56 H -3.081527 -1.171234 -2.288587 0
M  V30 57 H -2.158245 0.297447 0.694944 0
M  V30 58 H 0.022058 0.749622 0.487459 0
M  V30 59 H 5.618172 -0.977975 0.928289 0
M  V30 END ATOM
M  V30 BEGIN BOND
M  V30 1 1 1 2
M  V30 2 1 2 3
M  V30 3 2 3 4
M  V30 4 1 4 5
M  V30 5 2 5 6
M  V30 6 1 6 7
M  V30 7 1 7 8
M  V30 8 2 8 9
M  V30 9 1 8 10
M  V30 10 2 10 11
M  V30 11 1 11 12
M  V30 12 1 12 13
M  V30 13 2 13 14
M  V30 14 1 14 15
M  V30 15 2 15 16
M  V30 16 1 16 17
M  V30 17 2 17 18
M  V30 18 1 18 19
M  V30 19 2 19 20
M  V30 20 1 20 21
M  V30 21 1 21 22
M  V30 22 1 22 23
M  V30 23 1 23 24
M  V30 24 1 24 25
M  V30 25 1 25 26
M  V30 26 1 26 27
M  V30 27 1 27 28
M  V30 28 2 21 29
M  V30 29 1 16 30
M  V30 30 2 30 31
M  V30 31 1 6 32
M  V30 32 2 32 33
M  V30 33 1 33 3
M  V30 34 1 31 10
M  V30 35 1 31 13
M  V30 36 1 29 17
M  V30 37 1 28 23
M  V30 38 1 1 34
M  V30 39 1 1 35
M  V30 40 1 1 36
M  V30 41 1 4 37
M  V30 42 1 5 38
M  V30 43 1 7 39
M  V30 44 1 12 40
M  V30 45 1 14 41
M  V30 46 1 15 42
M  V30 47 1 18 43
M  V30 48 1 20 44
M  V30 49 1 22 45
M  V30 50 1 22 46
M  V30 51 1 24 47
M  V30 52 1 24 48
M  V30 53 1 25 49
M  V30 54 1 25 50
M  V30 55 1 26 51
M  V30 56 1 26 52
M  V30 57 1 27 53
M  V30 58 1 27 54
M  V30 59 1 28 55
M  V30 60 1 28 56
M  V30 61 1 29 57
M  V30 62 1 30 58
M  V30 63 1 32 59
M  V30 END BOND
M  V30 END CTAB
M  END
>  <Dataset>  (643) 
ChEMBL_Kinases

>  <Ligand_Instance>  (643) 
nan

>  <PDB_ID>  (643) 
nan

>  <Standardized_SMILES>  (643) 
COc1ccc(NC(=O)c2n[nH]c3ccc(-c4cncc(CN5CCCCC5)c4)cc23)cn1

>  <Name>  (643) 
nan

>  <Pocket>  (643) 
nan

>  <ATP_Site>  (643) 
nan

>  <Peripheral>  (643) 
nan

>  <Num_H_Atoms_ProtBoundConf>  (643) 
nan

>  <Num_Resolved_Atoms>  (643) 
nan

>  <Num_Not_Resolved_Atoms>  (643) 
nan

$$$$
CHEMBL4800068
     RDKit          3D

  0  0  0  0  0  0  0  0  0  0999 V3000
M  V30 BEGIN CTAB
M  V30 COUNTS 67 71 0 0 0
M  V30 BEGIN ATOM
M  V30 1 C 7.384731 3.612813 4.819828 0
M  V30 2 N 6.927606 3.212112 3.507687 0
M  V30 3 C 5.675690 2.486955 3.605346 0
M  V30 4 C 4.755557 2.807696 2.496796 0
M  V30 5 C 4.954697 3.520326 1.401284 0
M  V30 6 C 3.950935 3.761977 0.376613 0
M  V30 7 C 2.695523 3.261573 0.465757 0
M  V30 8 C 1.773378 3.513316 -0.525760 0
M  V30 9 C 0.391719 3.050593 -0.576263 0
M  V30 10 O -0.429290 3.293250 -1.494972 0
M  V30 11 N -0.080188 2.254282 0.502421 0
M  V30 12 C -1.318508 1.629319 0.818278 0
M  V30 13 C -1.690107 0.350113 0.458659 0
M  V30 14 C -2.898797 -0.201890 0.792288 0
M  V30 15 C -3.218459 -1.502938 0.399950 0
M  V30 16 C -4.452621 -1.992150 0.772402 0
M  V30 17 C -4.805388 -3.348942 0.373094 0
M  V30 18 C -6.003705 -3.949192 0.684539 0
M  V30 19 N -6.236926 -5.208752 0.270995 0
M  V30 20 C -5.309823 -5.885115 -0.443292 0
M  V30 21 C -4.099785 -5.312313 -0.771650 0
M  V30 22 N -3.098532 -5.979599 -1.516036 0
M  V30 23 C -3.247479 -7.330597 -2.005311 0
M  V30 24 C -3.464127 -8.307669 -0.845457 0
M  V30 25 C -4.411713 -7.458189 -2.961690 0
M  V30 26 C -1.996160 -7.801493 -2.720597 0
M  V30 27 N -3.907794 -4.053586 -0.339194 0
M  V30 28 C -5.290645 -1.175860 1.503254 0
M  V30 29 N -4.945048 0.073859 1.862020 0
M  V30 30 C -3.752557 0.612612 1.529684 0
M  V30 31 C -3.396557 1.888409 1.895094 0
M  V30 32 N -2.188887 2.369940 1.532558 0
M  V30 33 C 2.152660 4.289599 -1.619771 0
M  V30 34 C 3.438255 4.784983 -1.681919 0
M  V30 35 N 4.298331 4.508696 -0.686387 0
M  V30 36 C 6.332142 4.077198 1.290398 0
M  V30 37 C 6.797017 4.402574 2.689349 0
M  V30 38 H 6.530052 3.916342 5.479825 0
M  V30 39 H 7.914145 2.763607 5.338415 0
M  V30 40 H 8.121932 4.425951 4.747585 0
M  V30 41 H 5.207548 2.779508 4.575157 0
M  V30 42 H 5.846588 1.376711 3.694399 0
M  V30 43 H 3.798259 2.363305 2.672730 0
M  V30 44 H 2.354452 2.658797 1.286607 0
M  V30 45 H 0.453414 1.953415 1.345096 0
M  V30 46 H -0.953427 -0.216052 -0.120592 0
M  V30 47 H -2.483728 -2.059480 -0.174683 0
M  V30 48 H -6.738476 -3.417627 1.248979 0
M  V30 49 H -5.544358 -6.893529 -0.751949 0
M  V30 50 H -2.209071 -5.485979 -1.727794 0
M  V30 51 H -2.605437 -9.010084 -0.728403 0
M  V30 52 H -4.345057 -8.953837 -0.997117 0
M  V30 53 H -3.484884 -7.745195 0.125376 0
M  V30 54 H -4.045641 -7.760109 -3.962197 0
M  V30 55 H -5.002438 -6.500328 -3.050566 0
M  V30 56 H -5.090439 -8.298146 -2.641050 0
M  V30 57 H -1.905202 -7.353270 -3.728780 0
M  V30 58 H -2.113989 -8.900287 -2.905309 0
M  V30 59 H -1.085694 -7.649725 -2.110614 0
M  V30 60 H -6.249996 -1.523372 1.806240 0
M  V30 61 H -4.087036 2.479493 2.463387 0
M  V30 62 H 1.505724 4.545401 -2.450542 0
M  V30 63 H 3.749061 5.397253 -2.537291 0
M  V30 64 H 6.319439 4.993097 0.698870 0
M  V30 65 H 7.042783 3.351143 0.851726 0
M  V30 66 H 6.058754 5.106337 3.156160 0
M  V30 67 H 7.768341 4.902535 2.641110 0
M  V30 END ATOM
M  V30 BEGIN BOND
M  V30 1 1 1 2
M  V30 2 1 2 3
M  V30 3 1 3 4
M  V30 4 2 4 5
M  V30 5 1 5 6
M  V30 6 2 6 7
M  V30 7 1 7 8
M  V30 8 1 8 9
M  V30 9 2 9 10
M  V30 10 1 9 11
M  V30 11 1 11 12
M  V30 12 2 12 13
M  V30 13 1 13 14
M  V30 14 2 14 15
M  V30 15 1 15 16
M  V30 16 1 16 17
M  V30 17 2 17 18
M  V30 18 1 18 19
M  V30 19 2 19 20
M  V30 20 1 20 21
M  V30 21 1 21 22
M  V30 22 1 22 23
M  V30 23 1 23 24
M  V30 24 1 23 25
M  V30 25 1 23 26
M  V30 26 2 21 27
M  V30 27 2 16 28
M  V30 28 1 28 29
M  V30 29 2 29 30
M  V30 30 1 30 31
M  V30 31 2 31 32
M  V30 32 2 8 33
M  V30 33 1 33 34
M  V30 34 2 34 35
M  V30 35 1 5 36
M  V30 36 1 36 37
M  V30 37 1 37 2
M  V30 38 1 35 6
M  V30 39 1 32 12
M  V30 40 1 30 14
M  V30 41 1 27 17
M  V30 42 1 1 38
M  V30 43 1 1 39
M  V30 44 1 1 40
M  V30 45 1 3 41
M  V30 46 1 3 42
M  V30 47 1 4 43
M  V30 48 1 7 44
M  V30 49 1 11 45
M  V30 50 1 13 46
M  V30 51 1 15 47
M  V30 52 1 18 48
M  V30 53 1 20 49
M  V30 54 1 22 50
M  V30 55 1 24 51
M  V30 56 1 24 52
M  V30 57 1 24 53
M  V30 58 1 25 54
M  V30 59 1 25 55
M  V30 60 1 25 56
M  V30 61 1 26 57
M  V30 62 1 26 58
M  V30 63 1 26 59
M  V30 64 1 28 60
M  V30 65 1 31 61
M  V30 66 1 33 62
M  V30 67 1 34 63
M  V30 68 1 36 64
M  V30 69 1 36 65
M  V30 70 1 37 66
M  V30 71 1 37 67
M  V30 END BOND
M  V30 END CTAB
M  END
>  <Dataset>  (644) 
ChEMBL_Kinases

>  <Ligand_Instance>  (644) 
nan

>  <PDB_ID>  (644) 
nan

>  <Standardized_SMILES>  (644) 
CN1CC=C(c2cc(C(=O)Nc3cc4cc(-c5cncc(NC(C)(C)C)n5)cnc4cn3)ccn2)CC1

>  <Name>  (644) 
nan

>  <Pocket>  (644) 
nan

>  <ATP_Site>  (644) 
nan

>  <Peripheral>  (644) 
nan

>  <Num_H_Atoms_ProtBoundConf>  (644) 
nan

>  <Num_Resolved_Atoms>  (644) 
nan

>  <Num_Not_Resolved_Atoms>  (644) 
nan

$$$$
CHEMBL4799905
     RDKit          3D

  0  0  0  0  0  0  0  0  0  0999 V3000
M  V30 BEGIN CTAB
M  V30 COUNTS 56 61 0 0 0
M  V30 BEGIN ATOM
M  V30 1 O 2.168001 -3.625296 -0.877646 0
M  V30 2 C 1.307478 -4.141209 -0.093355 0
M  V30 3 N 1.161918 -3.294102 1.053174 0
M  V30 4 C 1.908845 -2.089458 1.233118 0
M  V30 5 C 3.085757 -2.610149 1.806946 0
M  V30 6 N 4.012640 -1.629298 2.093478 0
M  V30 7 C 3.811790 -0.338509 1.851166 0
M  V30 8 C 2.653947 0.153774 1.287368 0
M  V30 9 C 2.431817 1.567390 1.059761 0
M  V30 10 C 3.537147 2.374139 0.793047 0
M  V30 11 N 3.237853 3.695442 0.611176 0
M  V30 12 C 1.974646 4.137179 0.692061 0
M  V30 13 N 1.653435 5.403690 0.553235 0
M  V30 14 N 0.400730 5.421379 0.710625 0
M  V30 15 C -0.293227 4.328250 0.956461 0
M  V30 16 C -1.471704 3.637461 1.248159 0
M  V30 17 C -2.162052 2.509798 1.484593 0
M  V30 18 C -3.500083 2.705314 1.728075 0
M  V30 19 C -4.377698 1.663683 2.000254 0
M  V30 20 C -5.691551 2.078345 2.225309 0
M  V30 21 C -5.930597 3.438769 2.149567 0
M  V30 22 N -4.990726 4.390008 1.870765 0
M  V30 23 C -3.694770 4.044863 1.641861 0
M  V30 24 N -2.478973 4.586439 1.355771 0
M  V30 25 C 0.828358 3.445197 0.943631 0
M  V30 26 C 1.172753 2.104953 1.122450 0
M  V30 27 C 1.716111 -0.770708 0.992522 0
M  V30 28 C 0.575416 -5.413315 -0.319663 0
M  V30 29 C -0.871046 -5.311232 -0.445137 0
M  V30 30 C -1.456780 -5.370351 -1.807981 0
M  V30 31 C -0.673039 -6.059283 -2.861340 0
M  V30 32 C 0.757923 -5.573217 -2.810557 0
M  V30 33 C 1.270305 -6.082945 -1.480366 0
M  V30 34 H 0.442645 -3.654421 1.746054 0
M  V30 35 H 3.521156 -3.552719 2.106901 0
M  V30 36 H 4.590924 0.404825 2.095060 0
M  V30 37 H 4.531343 1.997193 0.729188 0
M  V30 38 H 2.028735 6.352688 0.367684 0
M  V30 39 H -1.607835 1.601434 1.451240 0
M  V30 40 H -4.101056 0.622148 2.042012 0
M  V30 41 H -6.453021 1.370697 2.446774 0
M  V30 42 H -6.936002 3.857966 2.307657 0
M  V30 43 H -2.606909 5.645057 1.279704 0
M  V30 44 H 0.451484 1.360560 1.344651 0
M  V30 45 H 0.752976 -0.598070 0.567321 0
M  V30 46 H 0.875597 -6.051552 0.583510 0
M  V30 47 H -1.251338 -4.426367 0.083452 0
M  V30 48 H -1.324751 -6.176284 0.140894 0
M  V30 49 H -2.448408 -5.918808 -1.765643 0
M  V30 50 H -1.737244 -4.369123 -2.184285 0
M  V30 51 H -0.681934 -7.154616 -2.687959 0
M  V30 52 H -1.142796 -5.814838 -3.849437 0
M  V30 53 H 0.839735 -4.491429 -2.911101 0
M  V30 54 H 1.344604 -6.081839 -3.590690 0
M  V30 55 H 2.365079 -5.931520 -1.473978 0
M  V30 56 H 1.095901 -7.173844 -1.474692 0
M  V30 END ATOM
M  V30 BEGIN BOND
M  V30 1 2 1 2
M  V30 2 1 2 3
M  V30 3 1 3 4
M  V30 4 2 4 5
M  V30 5 1 5 6
M  V30 6 2 6 7
M  V30 7 1 7 8
M  V30 8 1 8 9
M  V30 9 2 9 10
M  V30 10 1 10 11
M  V30 11 2 11 12
M  V30 12 1 12 13
M  V30 13 1 13 14
M  V30 14 2 14 15
M  V30 15 1 15 16
M  V30 16 2 16 17
M  V30 17 1 17 18
M  V30 18 2 18 19
M  V30 19 1 19 20
M  V30 20 2 20 21
M  V30 21 1 21 22
M  V30 22 2 22 23
M  V30 23 1 23 24
M  V30 24 1 15 25
M  V30 25 2 25 26
M  V30 26 2 8 27
M  V30 27 1 2 28
M  V30 28 1 28 29
M  V30 29 1 29 30
M  V30 30 1 30 31
M  V30 31 1 31 32
M  V30 32 1 32 33
M  V30 33 1 27 4
M  V30 34 1 33 28
M  V30 35 1 26 9
M  V30 36 1 25 12
M  V30 37 1 24 16
M  V30 38 1 23 18
M  V30 39 1 3 34
M  V30 40 1 5 35
M  V30 41 1 7 36
M  V30 42 1 10 37
M  V30 43 1 13 38
M  V30 44 1 17 39
M  V30 45 1 19 40
M  V30 46 1 20 41
M  V30 47 1 21 42
M  V30 48 1 24 43
M  V30 49 1 26 44
M  V30 50 1 27 45
M  V30 51 1 28 46
M  V30 52 1 29 47
M  V30 53 1 29 48
M  V30 54 1 30 49
M  V30 55 1 30 50
M  V30 56 1 31 51
M  V30 57 1 31 52
M  V30 58 1 32 53
M  V30 59 1 32 54
M  V30 60 1 33 55
M  V30 61 1 33 56
M  V30 END BOND
M  V30 END CTAB
M  END
>  <Dataset>  (645) 
ChEMBL_Kinases

>  <Ligand_Instance>  (645) 
nan

>  <PDB_ID>  (645) 
nan

>  <Standardized_SMILES>  (645) 
O=C(Nc1cncc(-c2cnc3[nH]nc(-c4cc5cccnc5[nH]4)c3c2)c1)C1CCCCC1

>  <Name>  (645) 
nan

>  <Pocket>  (645) 
nan

>  <ATP_Site>  (645) 
nan

>  <Peripheral>  (645) 
nan

>  <Num_H_Atoms_ProtBoundConf>  (645) 
nan

>  <Num_Resolved_Atoms>  (645) 
nan

>  <Num_Not_Resolved_Atoms>  (645) 
nan

$$$$
CHEMBL4799892
     RDKit          3D

  0  0  0  0  0  0  0  0  0  0999 V3000
M  V30 BEGIN CTAB
M  V30 COUNTS 57 60 0 0 0
M  V30 BEGIN ATOM
M  V30 1 C 0.248054 -6.387685 5.167983 0
M  V30 2 C 0.467198 -4.945813 4.891009 0
M  V30 3 N 0.875992 -4.022640 5.812346 0
M  V30 4 N 0.955081 -2.863887 5.194196 0
M  V30 5 C 0.613951 -2.990688 3.902362 0
M  V30 6 C 0.615006 -1.856353 2.985366 0
M  V30 7 O 0.312747 -1.883689 1.770534 0
M  V30 8 N 0.973077 -0.549599 3.389460 0
M  V30 9 C 0.883230 0.363924 2.279760 0
M  V30 10 C 2.015019 0.538332 1.499716 0
M  V30 11 C 1.947597 1.411280 0.430029 0
M  V30 12 C 0.768826 2.106030 0.135073 0
M  V30 13 O 0.912303 2.918741 -0.962798 0
M  V30 14 C -0.182566 3.705417 -1.415899 0
M  V30 15 C -0.540738 3.181717 -2.809124 0
M  V30 16 C 0.248497 4.046044 -3.769087 0
M  V30 17 N -0.444992 5.309790 -3.845529 0
M  V30 18 C -1.702569 5.251382 -4.523214 0
M  V30 19 C -0.456285 5.937953 -2.565184 0
M  V30 20 C 0.165572 5.153671 -1.451959 0
M  V30 21 N -0.310205 1.910499 0.915726 0
M  V30 22 C -0.263263 1.062518 1.963990 0
M  V30 23 C 0.296079 -4.313784 3.677657 0
M  V30 24 C -0.115680 -4.814338 2.399424 0
M  V30 25 C -0.454316 -6.015639 1.987104 0
M  V30 26 C -0.862852 -6.429843 0.652227 0
M  V30 27 C -0.967964 -5.612682 -0.438841 0
M  V30 28 C -1.358858 -6.046182 -1.686305 0
M  V30 29 C -1.667432 -7.374630 -1.872918 0
M  V30 30 N -1.564004 -8.185689 -0.793686 0
M  V30 31 C -1.181196 -7.748902 0.418030 0
M  V30 32 H -0.815729 -6.689149 5.082604 0
M  V30 33 H 0.963371 -7.056298 4.653254 0
M  V30 34 H 0.469205 -6.541650 6.270391 0
M  V30 35 H 1.096019 -4.162633 6.825650 0
M  V30 36 H 1.257831 -0.354988 4.396651 0
M  V30 37 H 2.904568 -0.010670 1.753539 0
M  V30 38 H 2.871318 1.487123 -0.122577 0
M  V30 39 H -1.094671 3.571443 -0.796345 0
M  V30 40 H -1.635587 3.283765 -2.966329 0
M  V30 41 H -0.299136 2.120923 -2.841626 0
M  V30 42 H 1.238293 4.236864 -3.306565 0
M  V30 43 H 0.350571 3.556247 -4.758579 0
M  V30 44 H -1.667898 5.786197 -5.510145 0
M  V30 45 H -2.577555 5.553288 -3.933390 0
M  V30 46 H -1.861839 4.176971 -4.812154 0
M  V30 47 H 0.043274 6.916327 -2.660908 0
M  V30 48 H -1.540385 6.072091 -2.276450 0
M  V30 49 H -0.099759 5.623823 -0.473647 0
M  V30 50 H 1.274515 5.248473 -1.538835 0
M  V30 51 H -1.145967 0.925513 2.573583 0
M  V30 52 H -0.191751 -4.132710 1.537108 0
M  V30 53 H -0.412910 -6.765043 2.762256 0
M  V30 54 H -0.739561 -4.570464 -0.348298 0
M  V30 55 H -1.429594 -5.366468 -2.525543 0
M  V30 56 H -1.979354 -7.764958 -2.832434 0
M  V30 57 H -1.140566 -8.513024 1.202435 0
M  V30 END ATOM
M  V30 BEGIN BOND
M  V30 1 1 1 2
M  V30 2 1 2 3
M  V30 3 1 3 4
M  V30 4 2 4 5
M  V30 5 1 5 6
M  V30 6 2 6 7
M  V30 7 1 6 8
M  V30 8 1 8 9
M  V30 9 2 9 10
M  V30 10 1 10 11
M  V30 11 2 11 12
M  V30 12 1 12 13
M  V30 13 1 13 14
M  V30 14 1 14 15
M  V30 15 1 15 16
M  V30 16 1 16 17
M  V30 17 1 17 18
M  V30 18 1 17 19
M  V30 19 1 19 20
M  V30 20 1 12 21
M  V30 21 2 21 22
M  V30 22 1 5 23
M  V30 23 1 23 24
M  V30 24 2 24 25
M  V30 25 1 25 26
M  V30 26 2 26 27
M  V30 27 1 27 28
M  V30 28 2 28 29
M  V30 29 1 29 30
M  V30 30 2 30 31
M  V30 31 2 23 2
M  V30 32 1 31 26
M  V30 33 1 22 9
M  V30 34 1 20 14
M  V30 35 1 1 32
M  V30 36 1 1 33
M  V30 37 1 1 34
M  V30 38 1 3 35
M  V30 39 1 8 36
M  V30 40 1 10 37
M  V30 41 1 11 38
M  V30 42 1 14 39
M  V30 43 1 15 40
M  V30 44 1 15 41
M  V30 45 1 16 42
M  V30 46 1 16 43
M  V30 47 1 18 44
M  V30 48 1 18 45
M  V30 49 1 18 46
M  V30 50 1 19 47
M  V30 51 1 19 48
M  V30 52 1 20 49
M  V30 53 1 20 50
M  V30 54 1 22 51
M  V30 55 1 24 52
M  V30 56 1 25 53
M  V30 57 1 27 54
M  V30 58 1 28 55
M  V30 59 1 29 56
M  V30 60 1 31 57
M  V30 END BOND
M  V30 END CTAB
M  END
>  <Dataset>  (646) 
ChEMBL_Kinases

>  <Ligand_Instance>  (646) 
nan

>  <PDB_ID>  (646) 
nan

>  <Standardized_SMILES>  (646) 
Cc1[nH]nc(C(=O)Nc2ccc(OC3CCN(C)CC3)nc2)c1/C=C/c1cccnc1

>  <Name>  (646) 
nan

>  <Pocket>  (646) 
nan

>  <ATP_Site>  (646) 
nan

>  <Peripheral>  (646) 
nan

>  <Num_H_Atoms_ProtBoundConf>  (646) 
nan

>  <Num_Resolved_Atoms>  (646) 
nan

>  <Num_Not_Resolved_Atoms>  (646) 
nan

$$$$
CHEMBL4098896
     RDKit          3D

  0  0  0  0  0  0  0  0  0  0999 V3000
M  V30 BEGIN CTAB
M  V30 COUNTS 46 49 0 0 0
M  V30 BEGIN ATOM
M  V30 1 C 6.799768 -4.122075 1.218926 0
M  V30 2 O 6.029800 -2.927828 1.194525 0
M  V30 3 C 6.604904 -1.664055 1.261213 0
M  V30 4 N 7.899325 -1.253508 1.356630 0
M  V30 5 N 7.865180 0.061941 1.383900 0
M  V30 6 C 6.624492 0.576202 1.312833 0
M  V30 7 N 6.231504 1.871474 1.315681 0
M  V30 8 C 4.892432 2.092090 1.231366 0
M  V30 9 C 4.010958 1.032021 1.148862 0
M  V30 10 C 2.586489 1.217663 1.057815 0
M  V30 11 C 1.377616 1.370925 0.960289 0
M  V30 12 C -0.048475 1.534642 0.842590 0
M  V30 13 C -0.736849 2.369240 1.680939 0
M  V30 14 F -0.018612 3.023546 2.613174 0
M  V30 15 C -2.100025 2.458072 1.488102 0
M  V30 16 C -2.709205 1.727223 0.488948 0
M  V30 17 C -2.033006 0.882662 -0.363589 0
M  V30 18 N -2.755484 0.179923 -1.364124 0
M  V30 19 S -4.444002 -0.052290 -1.505721 0
M  V30 20 O -5.173294 1.271124 -1.519991 0
M  V30 21 O -4.707384 -0.814042 -2.779528 0
M  V30 22 C -5.058066 -0.939188 -0.126444 0
M  V30 23 C -5.600691 -0.475408 1.050144 0
M  V30 24 C -6.017529 -1.351700 2.010363 0
M  V30 25 C -5.926755 -2.721290 1.872246 0
M  V30 26 C -5.386315 -3.210631 0.701205 0
M  V30 27 C -5.288589 -4.635005 0.549988 0
M  V30 28 N -5.192710 -5.784599 0.433561 0
M  V30 29 C -4.966017 -2.321535 -0.267028 0
M  V30 30 C -0.651713 0.812340 -0.145014 0
M  V30 31 F 0.038411 -0.013061 -0.972144 0
M  V30 32 C 4.444981 -0.283080 1.148328 0
M  V30 33 C 5.800671 -0.527722 1.233184 0
M  V30 34 H 6.894319 -4.556397 2.219621 0
M  V30 35 H 6.258790 -4.879281 0.593140 0
M  V30 36 H 7.783439 -3.967666 0.742651 0
M  V30 37 H 8.753289 0.591184 1.454901 0
M  V30 38 H 4.441563 3.074509 1.223316 0
M  V30 39 H -2.631530 3.125113 2.162182 0
M  V30 40 H -3.758801 1.887105 0.442599 0
M  V30 41 H -2.096051 -0.220480 -2.074588 0
M  V30 42 H -5.645536 0.603424 1.091930 0
M  V30 43 H -6.424701 -0.822339 2.885198 0
M  V30 44 H -6.291136 -3.320432 2.704050 0
M  V30 45 H -4.554584 -2.820321 -1.152778 0
M  V30 46 H 3.767427 -1.124958 1.084450 0
M  V30 END ATOM
M  V30 BEGIN BOND
M  V30 1 1 1 2
M  V30 2 1 2 3
M  V30 3 2 3 4
M  V30 4 1 4 5
M  V30 5 1 5 6
M  V30 6 2 6 7
M  V30 7 1 7 8
M  V30 8 2 8 9
M  V30 9 1 9 10
M  V30 10 3 10 11
M  V30 11 1 11 12
M  V30 12 2 12 13
M  V30 13 1 13 14
M  V30 14 1 13 15
M  V30 15 2 15 16
M  V30 16 1 16 17
M  V30 17 1 17 18
M  V30 18 1 18 19
M  V30 19 2 19 20
M  V30 20 2 19 21
M  V30 21 1 19 22
M  V30 22 2 22 23
M  V30 23 1 23 24
M  V30 24 2 24 25
M  V30 25 1 25 26
M  V30 26 1 26 27
M  V30 27 3 27 28
M  V30 28 2 26 29
M  V30 29 2 17 30
M  V30 30 1 30 31
M  V30 31 1 9 32
M  V30 32 2 32 33
M  V30 33 1 33 3
M  V30 34 1 33 6
M  V30 35 1 30 12
M  V30 36 1 29 22
M  V30 37 1 1 34
M  V30 38 1 1 35
M  V30 39 1 1 36
M  V30 40 1 5 37
M  V30 41 1 8 38
M  V30 42 1 15 39
M  V30 43 1 16 40
M  V30 44 1 18 41
M  V30 45 1 23 42
M  V30 46 1 24 43
M  V30 47 1 25 44
M  V30 48 1 29 45
M  V30 49 1 32 46
M  V30 END BOND
M  V30 END CTAB
M  END
>  <Dataset>  (647) 
ChEMBL_Kinases

>  <Ligand_Instance>  (647) 
nan

>  <PDB_ID>  (647) 
nan

>  <Standardized_SMILES>  (647) 
COc1n[nH]c2ncc(C#Cc3c(F)ccc(NS(=O)(=O)c4cccc(C#N)c4)c3F)cc12

>  <Name>  (647) 
nan

>  <Pocket>  (647) 
nan

>  <ATP_Site>  (647) 
nan

>  <Peripheral>  (647) 
nan

>  <Num_H_Atoms_ProtBoundConf>  (647) 
nan

>  <Num_Resolved_Atoms>  (647) 
nan

>  <Num_Not_Resolved_Atoms>  (647) 
nan

$$$$
CHEMBL4799857
     RDKit          3D

  0  0  0  0  0  0  0  0  0  0999 V3000
M  V30 BEGIN CTAB
M  V30 COUNTS 67 72 0 0 0
M  V30 BEGIN ATOM
M  V30 1 C 3.535961 -3.152115 4.092387 0
M  V30 2 C 3.275200 -3.916738 2.787242 0
M  V30 3 C 1.823273 -4.288163 2.790356 0
M  V30 4 C 3.561510 -2.899850 1.711875 0
M  V30 5 O 3.866071 -1.925065 2.475831 0
M  V30 6 N 3.548307 -2.866653 0.292571 0
M  V30 7 C 3.951508 -1.509687 0.013020 0
M  V30 8 C 5.307391 -1.350864 -0.084277 0
M  V30 9 N 5.724256 -0.089669 -0.337465 0
M  V30 10 C 4.813256 0.911741 -0.476261 0
M  V30 11 C 3.449846 0.754670 -0.379195 0
M  V30 12 C 2.611561 1.929719 -0.538259 0
M  V30 13 C 1.243396 1.914784 -0.470005 0
M  V30 14 C 0.505700 3.063863 -0.624053 0
M  V30 15 C -0.842548 3.303889 -0.592907 0
M  V30 16 C -1.978450 2.440554 -0.391081 0
M  V30 17 C -2.216632 1.111998 -0.187737 0
M  V30 18 C -3.557608 0.823430 -0.073389 0
M  V30 19 C -4.250969 -0.347119 0.137175 0
M  V30 20 N -3.599899 -1.587903 0.233922 0
M  V30 21 C -3.083767 -1.957248 -1.069498 0
M  V30 22 C -2.202495 -3.181970 -0.875750 0
M  V30 23 N -1.279253 -3.005550 0.210920 0
M  V30 24 C -0.425235 -4.167875 0.244988 0
M  V30 25 C -1.905686 -2.788322 1.479329 0
M  V30 26 C -3.379737 -2.488974 1.343535 0
M  V30 27 C -5.641125 -0.355254 0.223300 0
M  V30 28 C -6.266826 0.853720 0.086342 0
M  V30 29 C -5.560168 2.017643 -0.125626 0
M  V30 30 C -4.188794 2.038712 -0.211791 0
M  V30 31 N -3.230535 2.953041 -0.395625 0
M  V30 32 N -0.903291 4.628683 -0.803288 0
M  V30 33 N 0.277357 5.163103 -0.951577 0
M  V30 34 C 1.220636 4.217052 -0.848441 0
M  V30 35 C 2.590688 4.277412 -0.925107 0
M  V30 36 N 3.220280 3.101430 -0.761583 0
M  V30 37 C 2.998671 -0.520459 -0.121879 0
M  V30 38 H 2.881467 -2.257447 4.091639 0
M  V30 39 H 3.390493 -3.791293 4.964930 0
M  V30 40 H 4.603091 -2.797380 4.024391 0
M  V30 41 H 3.941897 -4.778665 2.723180 0
M  V30 42 H 1.529613 -4.608680 3.809950 0
M  V30 43 H 1.241233 -3.389262 2.480524 0
M  V30 44 H 1.616713 -5.114297 2.081974 0
M  V30 45 H 3.255058 -3.827262 0.000807 0
M  V30 46 H 6.019264 -2.155695 0.028156 0
M  V30 47 H 5.318209 1.868296 -0.676896 0
M  V30 48 H 0.738258 0.987710 -0.292501 0
M  V30 49 H -1.434537 0.380439 -0.120117 0
M  V30 50 H -2.535424 -1.142074 -1.532886 0
M  V30 51 H -3.995452 -2.243104 -1.663272 0
M  V30 52 H -2.856549 -4.069308 -0.709607 0
M  V30 53 H -1.575012 -3.343189 -1.789823 0
M  V30 54 H -0.611761 -4.853616 -0.625119 0
M  V30 55 H 0.647819 -3.849635 0.185561 0
M  V30 56 H -0.574323 -4.695810 1.208974 0
M  V30 57 H -1.738686 -3.667896 2.141647 0
M  V30 58 H -1.417440 -1.927645 1.998144 0
M  V30 59 H -3.877824 -3.468617 1.080349 0
M  V30 60 H -3.803990 -2.087488 2.292806 0
M  V30 61 H -6.191634 -1.264349 0.388789 0
M  V30 62 H -7.361731 0.901109 0.146281 0
M  V30 63 H -6.083631 2.953048 -0.229566 0
M  V30 64 H -3.565823 3.947381 -0.519757 0
M  V30 65 H 0.393551 6.181872 -1.121967 0
M  V30 66 H 3.109114 5.197757 -1.101967 0
M  V30 67 H 1.936946 -0.691086 -0.037848 0
M  V30 END ATOM
M  V30 BEGIN BOND
M  V30 1 1 1 2
M  V30 2 1 2 3
M  V30 3 1 2 4
M  V30 4 2 4 5
M  V30 5 1 4 6
M  V30 6 1 6 7
M  V30 7 2 7 8
M  V30 8 1 8 9
M  V30 9 2 9 10
M  V30 10 1 10 11
M  V30 11 1 11 12
M  V30 12 2 12 13
M  V30 13 1 13 14
M  V30 14 1 14 15
M  V30 15 1 15 16
M  V30 16 2 16 17
M  V30 17 1 17 18
M  V30 18 2 18 19
M  V30 19 1 19 20
M  V30 20 1 20 21
M  V30 21 1 21 22
M  V30 22 1 22 23
M  V30 23 1 23 24
M  V30 24 1 23 25
M  V30 25 1 25 26
M  V30 26 1 19 27
M  V30 27 2 27 28
M  V30 28 1 28 29
M  V30 29 2 29 30
M  V30 30 1 30 31
M  V30 31 2 15 32
M  V30 32 1 32 33
M  V30 33 1 33 34
M  V30 34 1 34 35
M  V30 35 2 35 36
M  V30 36 2 11 37
M  V30 37 1 37 7
M  V30 38 1 36 12
M  V30 39 2 34 14
M  V30 40 1 31 16
M  V30 41 1 30 18
M  V30 42 1 26 20
M  V30 43 1 1 38
M  V30 44 1 1 39
M  V30 45 1 1 40
M  V30 46 1 2 41
M  V30 47 1 3 42
M  V30 48 1 3 43
M  V30 49 1 3 44
M  V30 50 1 6 45
M  V30 51 1 8 46
M  V30 52 1 10 47
M  V30 53 1 13 48
M  V30 54 1 17 49
M  V30 55 1 21 50
M  V30 56 1 21 51
M  V30 57 1 22 52
M  V30 58 1 22 53
M  V30 59 1 24 54
M  V30 60 1 24 55
M  V30 61 1 24 56
M  V30 62 1 25 57
M  V30 63 1 25 58
M  V30 64 1 26 59
M  V30 65 1 26 60
M  V30 66 1 27 61
M  V30 67 1 28 62
M  V30 68 1 29 63
M  V30 69 1 31 64
M  V30 70 1 33 65
M  V30 71 1 35 66
M  V30 72 1 37 67
M  V30 END BOND
M  V30 END CTAB
M  END
>  <Dataset>  (648) 
ChEMBL_Kinases

>  <Ligand_Instance>  (648) 
nan

>  <PDB_ID>  (648) 
nan

>  <Standardized_SMILES>  (648) 
CC(C)C(=O)Nc1cncc(-c2cc3c(-c4cc5c(N6CCN(C)CC6)cccc5[nH]4)n[nH]c3cn2)c1

>  <Name>  (648) 
nan

>  <Pocket>  (648) 
nan

>  <ATP_Site>  (648) 
nan

>  <Peripheral>  (648) 
nan

>  <Num_H_Atoms_ProtBoundConf>  (648) 
nan

>  <Num_Resolved_Atoms>  (648) 
nan

>  <Num_Not_Resolved_Atoms>  (648) 
nan

$$$$
CHEMBL4102553
     RDKit          3D

  0  0  0  0  0  0  0  0  0  0999 V3000
M  V30 BEGIN CTAB
M  V30 COUNTS 41 45 0 0 0
M  V30 BEGIN ATOM
M  V30 1 O 2.268745 -6.747750 1.506380 0
M  V30 2 C 2.131167 -5.546753 0.785980 0
M  V30 3 C 2.061257 -5.551774 -0.601039 0
M  V30 4 C 1.926197 -4.347471 -1.264157 0
M  V30 5 C 1.859912 -3.153541 -0.587866 0
M  V30 6 C 1.716855 -1.851460 -1.231481 0
M  V30 7 C 2.256642 -1.580962 -2.490987 0
M  V30 8 N 2.079753 -0.353146 -3.016435 0
M  V30 9 C 1.397317 0.593987 -2.342706 0
M  V30 10 N 1.121419 1.868788 -2.707308 0
M  V30 11 C 0.402190 2.460061 -1.707837 0
M  V30 12 C 0.213243 1.551523 -0.685810 0
M  V30 13 C -0.492784 1.741178 0.580702 0
M  V30 14 C 0.127773 1.281982 1.748785 0
M  V30 15 C -0.496145 1.431687 2.993170 0
M  V30 16 C -1.733753 2.037844 3.064013 0
M  V30 17 C -2.362411 2.182140 4.368272 0
M  V30 18 N -3.548003 2.726866 4.696595 0
M  V30 19 N -3.732266 2.648793 6.013861 0
M  V30 20 N -2.672602 2.057030 6.536359 0
M  V30 21 N -1.854694 1.779922 5.543562 0
M  V30 22 C -2.358006 2.495542 1.921363 0
M  V30 23 C -1.738658 2.346591 0.688938 0
M  V30 24 C 0.838646 0.389089 -1.092467 0
M  V30 25 C 1.024046 -0.864739 -0.565432 0
M  V30 26 C 1.932976 -3.179071 0.809439 0
M  V30 27 C 2.068831 -4.376381 1.499450 0
M  V30 28 H 1.652646 -6.895597 2.319777 0
M  V30 29 H 2.108919 -6.455026 -1.158068 0
M  V30 30 H 1.867975 -4.305245 -2.342420 0
M  V30 31 H 2.799539 -2.376813 -2.996252 0
M  V30 32 H 1.399015 2.343508 -3.594590 0
M  V30 33 H 0.047035 3.483053 -1.735997 0
M  V30 34 H 1.086017 0.800829 1.794059 0
M  V30 35 H -0.027914 1.081259 3.907404 0
M  V30 36 H -0.937294 1.303129 5.719087 0
M  V30 37 H -3.333134 2.973032 1.974882 0
M  V30 38 H -2.180446 2.687301 -0.248082 0
M  V30 39 H 0.614721 -1.084399 0.397075 0
M  V30 40 H 1.891564 -2.294797 1.457127 0
M  V30 41 H 2.126544 -4.396260 2.597739 0
M  V30 END ATOM
M  V30 BEGIN BOND
M  V30 1 1 1 2
M  V30 2 2 2 3
M  V30 3 1 3 4
M  V30 4 2 4 5
M  V30 5 1 5 6
M  V30 6 2 6 7
M  V30 7 1 7 8
M  V30 8 2 8 9
M  V30 9 1 9 10
M  V30 10 1 10 11
M  V30 11 2 11 12
M  V30 12 1 12 13
M  V30 13 2 13 14
M  V30 14 1 14 15
M  V30 15 2 15 16
M  V30 16 1 16 17
M  V30 17 2 17 18
M  V30 18 1 18 19
M  V30 19 2 19 20
M  V30 20 1 20 21
M  V30 21 1 16 22
M  V30 22 2 22 23
M  V30 23 1 12 24
M  V30 24 2 24 25
M  V30 25 1 5 26
M  V30 26 2 26 27
M  V30 27 1 27 2
M  V30 28 1 25 6
M  V30 29 1 24 9
M  V30 30 1 23 13
M  V30 31 1 21 17
M  V30 32 1 1 28
M  V30 33 1 3 29
M  V30 34 1 4 30
M  V30 35 1 7 31
M  V30 36 1 10 32
M  V30 37 1 11 33
M  V30 38 1 14 34
M  V30 39 1 15 35
M  V30 40 1 21 36
M  V30 41 1 22 37
M  V30 42 1 23 38
M  V30 43 1 25 39
M  V30 44 1 26 40
M  V30 45 1 27 41
M  V30 END BOND
M  V30 END CTAB
M  END
>  <Dataset>  (649) 
ChEMBL_Kinases

>  <Ligand_Instance>  (649) 
nan

>  <PDB_ID>  (649) 
nan

>  <Standardized_SMILES>  (649) 
Oc1ccc(-c2cnc3[nH]cc(-c4ccc(-c5nnn[nH]5)cc4)c3c2)cc1

>  <Name>  (649) 
nan

>  <Pocket>  (649) 
nan

>  <ATP_Site>  (649) 
nan

>  <Peripheral>  (649) 
nan

>  <Num_H_Atoms_ProtBoundConf>  (649) 
nan

>  <Num_Resolved_Atoms>  (649) 
nan

>  <Num_Not_Resolved_Atoms>  (649) 
nan

$$$$
CHEMBL4799714
     RDKit          3D

  0  0  0  0  0  0  0  0  0  0999 V3000
M  V30 BEGIN CTAB
M  V30 COUNTS 62 68 0 0 0
M  V30 BEGIN ATOM
M  V30 1 O 3.350866 2.396652 3.543182 0
M  V30 2 C 3.617561 1.158455 3.587483 0
M  V30 3 N 3.936059 0.717900 2.273386 0
M  V30 4 C 3.948500 1.543288 1.112247 0
M  V30 5 C 5.008854 2.264666 0.602852 0
M  V30 6 N 4.862384 3.003329 -0.511988 0
M  V30 7 C 3.687902 3.065797 -1.165746 0
M  V30 8 C 2.569906 2.381317 -0.736346 0
M  V30 9 C 1.264928 2.408137 -1.400179 0
M  V30 10 C 0.851232 3.563640 -2.075113 0
M  V30 11 N -0.369180 3.525458 -2.670015 0
M  V30 12 C -1.159607 2.459862 -2.633742 0
M  V30 13 N -2.376642 2.159588 -3.120526 0
M  V30 14 N -2.722196 0.945001 -2.801281 0
M  V30 15 C -1.765946 0.312177 -2.067090 0
M  V30 16 C -1.834683 -1.041241 -1.554366 0
M  V30 17 N -2.913449 -1.807736 -1.784549 0
M  V30 18 C -2.771852 -3.008208 -1.229186 0
M  V30 19 C -3.578021 -4.151360 -1.171458 0
M  V30 20 C -4.886026 -4.116071 -1.839035 0
M  V30 21 C -5.584833 -2.939306 -1.577710 0
M  V30 22 C -6.854611 -2.677136 -2.103745 0
M  V30 23 C -7.364619 -3.680895 -2.906653 0
M  V30 24 C -6.703913 -4.854142 -3.186126 0
M  V30 25 F -7.175351 -5.843989 -3.961539 0
M  V30 26 C -5.453799 -5.073456 -2.647607 0
M  V30 27 C -3.094601 -5.240479 -0.490576 0
M  V30 28 N -1.894424 -5.253679 0.115214 0
M  V30 29 C -1.118456 -4.168176 0.065793 0
M  V30 30 C -1.547681 -3.053648 -0.598392 0
M  V30 31 N -1.045824 -1.841702 -0.836530 0
M  V30 32 C -0.806572 1.296126 -1.985928 0
M  V30 33 C 0.428062 1.314926 -1.376085 0
M  V30 34 C 2.743351 1.618867 0.425085 0
M  V30 35 N 3.651039 0.205746 4.642629 0
M  V30 36 C 3.945368 -1.209220 4.754188 0
M  V30 37 C 2.705750 -1.958121 5.263984 0
M  V30 38 O 2.330969 -1.477252 6.518222 0
M  V30 39 C 2.051050 -0.132137 6.427779 0
M  V30 40 C 3.331921 0.604835 6.014278 0
M  V30 41 H 4.199659 -0.275141 2.011201 0
M  V30 42 H 5.932949 2.171296 1.179376 0
M  V30 43 H 3.590501 3.660722 -2.054061 0
M  V30 44 H 1.478103 4.457375 -2.123657 0
M  V30 45 H -3.007361 2.774744 -3.685100 0
M  V30 46 H -5.204264 -2.125448 -0.943485 0
M  V30 47 H -7.380449 -1.764817 -1.892546 0
M  V30 48 H -8.350257 -3.531527 -3.343624 0
M  V30 49 H -4.793926 -5.935168 -2.761228 0
M  V30 50 H -3.735371 -6.131814 -0.451986 0
M  V30 51 H -0.145295 -4.127099 0.536102 0
M  V30 52 H -0.113921 -1.571815 -0.479351 0
M  V30 53 H 0.787395 0.461443 -0.850790 0
M  V30 54 H 1.868441 1.081946 0.763300 0
M  V30 55 H 4.116999 -1.585405 3.724741 0
M  V30 56 H 4.786271 -1.413260 5.440738 0
M  V30 57 H 1.860538 -1.778259 4.563716 0
M  V30 58 H 2.891562 -3.047085 5.269121 0
M  V30 59 H 1.752565 0.279554 7.417669 0
M  V30 60 H 1.234074 0.091951 5.712504 0
M  V30 61 H 3.043489 1.675363 6.004923 0
M  V30 62 H 4.123697 0.392391 6.731332 0
M  V30 END ATOM
M  V30 BEGIN BOND
M  V30 1 2 1 2
M  V30 2 1 2 3
M  V30 3 1 3 4
M  V30 4 2 4 5
M  V30 5 1 5 6
M  V30 6 2 6 7
M  V30 7 1 7 8
M  V30 8 1 8 9
M  V30 9 2 9 10
M  V30 10 1 10 11
M  V30 11 2 11 12
M  V30 12 1 12 13
M  V30 13 1 13 14
M  V30 14 2 14 15
M  V30 15 1 15 16
M  V30 16 2 16 17
M  V30 17 1 17 18
M  V30 18 2 18 19
M  V30 19 1 19 20
M  V30 20 2 20 21
M  V30 21 1 21 22
M  V30 22 2 22 23
M  V30 23 1 23 24
M  V30 24 1 24 25
M  V30 25 2 24 26
M  V30 26 1 19 27
M  V30 27 2 27 28
M  V30 28 1 28 29
M  V30 29 2 29 30
M  V30 30 1 30 31
M  V30 31 1 15 32
M  V30 32 2 32 33
M  V30 33 2 8 34
M  V30 34 1 2 35
M  V30 35 1 35 36
M  V30 36 1 36 37
M  V30 37 1 37 38
M  V30 38 1 38 39
M  V30 39 1 39 40
M  V30 40 1 34 4
M  V30 41 1 40 35
M  V30 42 1 33 9
M  V30 43 1 32 12
M  V30 44 1 31 16
M  V30 45 1 30 18
M  V30 46 1 26 20
M  V30 47 1 3 41
M  V30 48 1 5 42
M  V30 49 1 7 43
M  V30 50 1 10 44
M  V30 51 1 13 45
M  V30 52 1 21 46
M  V30 53 1 22 47
M  V30 54 1 23 48
M  V30 55 1 26 49
M  V30 56 1 27 50
M  V30 57 1 29 51
M  V30 58 1 31 52
M  V30 59 1 33 53
M  V30 60 1 34 54
M  V30 61 1 36 55
M  V30 62 1 36 56
M  V30 63 1 37 57
M  V30 64 1 37 58
M  V30 65 1 39 59
M  V30 66 1 39 60
M  V30 67 1 40 61
M  V30 68 1 40 62
M  V30 END BOND
M  V30 END CTAB
M  END
>  <Dataset>  (650) 
ChEMBL_Kinases

>  <Ligand_Instance>  (650) 
nan

>  <PDB_ID>  (650) 
nan

>  <Standardized_SMILES>  (650) 
O=C(Nc1cncc(-c2cnc3[nH]nc(-c4nc5c(-c6cccc(F)c6)cncc5[nH]4)c3c2)c1)N1CCOCC1

>  <Name>  (650) 
nan

>  <Pocket>  (650) 
nan

>  <ATP_Site>  (650) 
nan

>  <Peripheral>  (650) 
nan

>  <Num_H_Atoms_ProtBoundConf>  (650) 
nan

>  <Num_Resolved_Atoms>  (650) 
nan

>  <Num_Not_Resolved_Atoms>  (650) 
nan

$$$$
CHEMBL4099731
     RDKit          3D

  0  0  0  0  0  0  0  0  0  0999 V3000
M  V30 BEGIN CTAB
M  V30 COUNTS 52 56 0 0 0
M  V30 BEGIN ATOM
M  V30 1 C 1.235456 -0.354624 5.202744 0
M  V30 2 C 2.425640 0.035572 4.415584 0
M  V30 3 C 3.641803 0.096727 5.062062 0
M  V30 4 N 4.741992 0.457318 4.337061 0
M  V30 5 C 4.587220 0.739367 3.010982 0
M  V30 6 C 3.388895 0.681638 2.362897 0
M  V30 7 C 3.241983 0.987734 0.945612 0
M  V30 8 C 4.272774 1.361775 0.110616 0
M  V30 9 C 4.117458 1.648791 -1.228576 0
M  V30 10 F 5.174176 2.010889 -1.993872 0
M  V30 11 C 2.851974 1.561094 -1.789023 0
M  V30 12 C 2.337211 1.772326 -3.070401 0
M  V30 13 N 1.013964 1.528463 -3.007139 0
M  V30 14 N 0.680414 1.179806 -1.766305 0
M  V30 15 C -0.655093 0.858690 -1.386061 0
M  V30 16 C -1.600318 1.825717 -1.661442 0
M  V30 17 C -2.901587 1.517640 -1.295212 0
M  V30 18 C -3.146334 0.298705 -0.698379 0
M  V30 19 C -2.195887 -0.652525 -0.431002 0
M  V30 20 N -2.445930 -1.908120 0.184262 0
M  V30 21 C -3.750605 -2.283754 0.635500 0
M  V30 22 C -4.418132 -3.211882 -0.362127 0
M  V30 23 C -3.404676 -4.226808 -0.878733 0
M  V30 24 N -2.671847 -4.830524 0.178924 0
M  V30 25 C -1.528455 -4.165366 0.665753 0
M  V30 26 C -1.309220 -2.754414 0.308508 0
M  V30 27 N -0.949461 -0.316064 -0.800668 0
M  V30 28 C 1.781471 1.188656 -0.990720 0
M  V30 29 C 2.001782 0.913143 0.347566 0
M  V30 30 N 2.292680 0.321469 3.089191 0
M  V30 31 H 0.331429 -0.469306 4.590410 0
M  V30 32 H 0.981071 0.434021 5.967026 0
M  V30 33 H 1.422366 -1.284693 5.792407 0
M  V30 34 H 3.720393 -0.134436 6.112597 0
M  V30 35 H 5.488965 1.014856 2.504676 0
M  V30 36 H 5.268087 1.437010 0.526059 0
M  V30 37 H 3.010976 2.074917 -3.864485 0
M  V30 38 H -1.366536 2.771080 -2.132120 0
M  V30 39 H -3.701610 2.223981 -1.477772 0
M  V30 40 H -4.174188 0.113488 -0.437103 0
M  V30 41 H -3.692961 -2.862249 1.601896 0
M  V30 42 H -4.398018 -1.436115 0.836327 0
M  V30 43 H -5.202402 -3.775823 0.176754 0
M  V30 44 H -4.844873 -2.688318 -1.217877 0
M  V30 45 H -2.727158 -3.833766 -1.633681 0
M  V30 46 H -4.025550 -5.041537 -1.346671 0
M  V30 47 H -3.244094 -5.341908 0.872427 0
M  V30 48 H -1.505560 -4.294588 1.783338 0
M  V30 49 H -0.606166 -4.732101 0.334727 0
M  V30 50 H -0.659134 -2.674432 -0.593337 0
M  V30 51 H -0.674735 -2.299814 1.126393 0
M  V30 52 H 1.154693 0.621751 0.964098 0
M  V30 END ATOM
M  V30 BEGIN BOND
M  V30 1 1 1 2
M  V30 2 2 2 3
M  V30 3 1 3 4
M  V30 4 2 4 5
M  V30 5 1 5 6
M  V30 6 1 6 7
M  V30 7 2 7 8
M  V30 8 1 8 9
M  V30 9 1 9 10
M  V30 10 2 9 11
M  V30 11 1 11 12
M  V30 12 2 12 13
M  V30 13 1 13 14
M  V30 14 1 14 15
M  V30 15 2 15 16
M  V30 16 1 16 17
M  V30 17 2 17 18
M  V30 18 1 18 19
M  V30 19 1 19 20
M  V30 20 1 20 21
M  V30 21 1 21 22
M  V30 22 1 22 23
M  V30 23 1 23 24
M  V30 24 1 24 25
M  V30 25 1 25 26
M  V30 26 2 19 27
M  V30 27 1 14 28
M  V30 28 2 28 29
M  V30 29 2 6 30
M  V30 30 1 30 2
M  V30 31 1 29 7
M  V30 32 1 28 11
M  V30 33 1 27 15
M  V30 34 1 26 20
M  V30 35 1 1 31
M  V30 36 1 1 32
M  V30 37 1 1 33
M  V30 38 1 3 34
M  V30 39 1 5 35
M  V30 40 1 8 36
M  V30 41 1 12 37
M  V30 42 1 16 38
M  V30 43 1 17 39
M  V30 44 1 18 40
M  V30 45 1 21 41
M  V30 46 1 21 42
M  V30 47 1 22 43
M  V30 48 1 22 44
M  V30 49 1 23 45
M  V30 50 1 23 46
M  V30 51 1 24 47
M  V30 52 1 25 48
M  V30 53 1 25 49
M  V30 54 1 26 50
M  V30 55 1 26 51
M  V30 56 1 29 52
M  V30 END BOND
M  V30 END CTAB
M  END
>  <Dataset>  (651) 
ChEMBL_Kinases

>  <Ligand_Instance>  (651) 
nan

>  <PDB_ID>  (651) 
nan

>  <Standardized_SMILES>  (651) 
Cc1cncc(-c2cc(F)c3cnn(-c4cccc(N5CCCNCC5)n4)c3c2)n1

>  <Name>  (651) 
nan

>  <Pocket>  (651) 
nan

>  <ATP_Site>  (651) 
nan

>  <Peripheral>  (651) 
nan

>  <Num_H_Atoms_ProtBoundConf>  (651) 
nan

>  <Num_Resolved_Atoms>  (651) 
nan

>  <Num_Not_Resolved_Atoms>  (651) 
nan

$$$$
CHEMBL4799685
     RDKit          3D

  0  0  0  0  0  0  0  0  0  0999 V3000
M  V30 BEGIN CTAB
M  V30 COUNTS 56 61 0 0 0
M  V30 BEGIN ATOM
M  V30 1 C 5.421746 -1.908309 -1.276909 0
M  V30 2 C 4.911935 -1.943789 0.143743 0
M  V30 3 C 4.839636 -3.377359 0.599954 0
M  V30 4 N 3.600523 -1.314000 0.153363 0
M  V30 5 C 3.414008 0.043066 -0.216578 0
M  V30 6 C 4.437590 0.860334 -0.597827 0
M  V30 7 N 4.228814 2.153916 -0.948870 0
M  V30 8 C 2.961486 2.663174 -0.923406 0
M  V30 9 C 1.892135 1.882595 -0.546500 0
M  V30 10 C 0.575441 2.503903 -0.547086 0
M  V30 11 C -0.583427 1.856972 -0.197037 0
M  V30 12 C -1.821325 2.457719 -0.202452 0
M  V30 13 C -3.067251 1.980947 0.109595 0
M  V30 14 C -3.536979 0.688406 0.553932 0
M  V30 15 C -2.998298 -0.534406 0.838924 0
M  V30 16 C -3.950403 -1.438643 1.235727 0
M  V30 17 C -3.848577 -2.760498 1.611567 0
M  V30 18 C -2.571322 -3.460527 1.634089 0
M  V30 19 C -1.568073 -3.505395 0.697505 0
M  V30 20 C -0.431437 -4.244810 0.950349 0
M  V30 21 C -0.279939 -4.949713 2.140760 0
M  V30 22 N -1.268101 -4.907470 3.066649 0
M  V30 23 C -2.391321 -4.179348 2.821838 0
M  V30 24 C -4.991814 -3.441893 1.971444 0
M  V30 25 C -6.170638 -2.735423 1.926585 0
M  V30 26 N -6.234953 -1.447181 1.555267 0
M  V30 27 C -5.131746 -0.754694 1.197810 0
M  V30 28 N -4.854394 0.484115 0.795606 0
M  V30 29 N -3.845585 3.055540 -0.098515 0
M  V30 30 N -3.142972 4.096226 -0.501133 0
M  V30 31 C -1.838452 3.781636 -0.588861 0
M  V30 32 C -0.698416 4.462637 -0.946310 0
M  V30 33 N 0.491743 3.794709 -0.914567 0
M  V30 34 C 2.141419 0.575138 -0.197029 0
M  V30 35 H 4.730656 -1.355189 -1.934448 0
M  V30 36 H 5.432711 -2.954159 -1.680133 0
M  V30 37 H 6.469882 -1.545816 -1.295938 0
M  V30 38 H 5.634729 -1.357725 0.778187 0
M  V30 39 H 3.940111 -3.607838 1.202466 0
M  V30 40 H 4.920553 -4.068089 -0.262924 0
M  V30 41 H 5.708624 -3.648727 1.261973 0
M  V30 42 H 2.790461 -1.902618 0.445714 0
M  V30 43 H 5.448739 0.516727 -0.634331 0
M  V30 44 H 2.878292 3.697035 -1.215505 0
M  V30 45 H -0.497456 0.827783 0.093285 0
M  V30 46 H -1.968366 -0.757051 0.764202 0
M  V30 47 H -1.778362 -2.938766 -0.175798 0
M  V30 48 H 0.330207 -4.243388 0.171884 0
M  V30 49 H 0.634609 -5.513134 2.284120 0
M  V30 50 H -3.058858 -4.276464 3.686989 0
M  V30 51 H -4.896919 -4.485782 2.266427 0
M  V30 52 H -7.080752 -3.246406 2.203752 0
M  V30 53 H -5.681792 1.143023 0.716093 0
M  V30 54 H -3.583415 5.020805 -0.711827 0
M  V30 55 H -0.776296 5.498513 -1.239731 0
M  V30 56 H 1.335094 -0.046173 0.096761 0
M  V30 END ATOM
M  V30 BEGIN BOND
M  V30 1 1 1 2
M  V30 2 1 2 3
M  V30 3 1 2 4
M  V30 4 1 4 5
M  V30 5 2 5 6
M  V30 6 1 6 7
M  V30 7 2 7 8
M  V30 8 1 8 9
M  V30 9 1 9 10
M  V30 10 2 10 11
M  V30 11 1 11 12
M  V30 12 1 12 13
M  V30 13 1 13 14
M  V30 14 2 14 15
M  V30 15 1 15 16
M  V30 16 2 16 17
M  V30 17 1 17 18
M  V30 18 2 18 19
M  V30 19 1 19 20
M  V30 20 2 20 21
M  V30 21 1 21 22
M  V30 22 2 22 23
M  V30 23 1 17 24
M  V30 24 2 24 25
M  V30 25 1 25 26
M  V30 26 2 26 27
M  V30 27 1 27 28
M  V30 28 2 13 29
M  V30 29 1 29 30
M  V30 30 1 30 31
M  V30 31 1 31 32
M  V30 32 2 32 33
M  V30 33 2 9 34
M  V30 34 1 34 5
M  V30 35 1 33 10
M  V30 36 2 31 12
M  V30 37 1 28 14
M  V30 38 1 27 16
M  V30 39 1 23 18
M  V30 40 1 1 35
M  V30 41 1 1 36
M  V30 42 1 1 37
M  V30 43 1 2 38
M  V30 44 1 3 39
M  V30 45 1 3 40
M  V30 46 1 3 41
M  V30 47 1 4 42
M  V30 48 1 6 43
M  V30 49 1 8 44
M  V30 50 1 11 45
M  V30 51 1 15 46
M  V30 52 1 19 47
M  V30 53 1 20 48
M  V30 54 1 21 49
M  V30 55 1 23 50
M  V30 56 1 24 51
M  V30 57 1 25 52
M  V30 58 1 28 53
M  V30 59 1 30 54
M  V30 60 1 32 55
M  V30 61 1 34 56
M  V30 END BOND
M  V30 END CTAB
M  END
>  <Dataset>  (652) 
ChEMBL_Kinases

>  <Ligand_Instance>  (652) 
nan

>  <PDB_ID>  (652) 
nan

>  <Standardized_SMILES>  (652) 
CC(C)Nc1cncc(-c2cc3c(-c4cc5c(-c6cccnc6)ccnc5[nH]4)n[nH]c3cn2)c1

>  <Name>  (652) 
nan

>  <Pocket>  (652) 
nan

>  <ATP_Site>  (652) 
nan

>  <Peripheral>  (652) 
nan

>  <Num_H_Atoms_ProtBoundConf>  (652) 
nan

>  <Num_Resolved_Atoms>  (652) 
nan

>  <Num_Not_Resolved_Atoms>  (652) 
nan

$$$$
CHEMBL4100324
     RDKit          3D

  0  0  0  0  0  0  0  0  0  0999 V3000
M  V30 BEGIN CTAB
M  V30 COUNTS 56 59 0 0 0
M  V30 BEGIN ATOM
M  V30 1 C -0.378585 -3.658588 3.037437 0
M  V30 2 C 0.939024 -3.498213 2.276120 0
M  V30 3 C 2.044754 -4.273573 2.953346 0
M  V30 4 N 1.290134 -2.101825 2.146833 0
M  V30 5 C 2.402457 -1.541971 2.633795 0
M  V30 6 N 2.332417 -0.251528 2.296591 0
M  V30 7 C 1.198549 -0.015565 1.612934 0
M  V30 8 C 0.723254 1.186501 1.074788 0
M  V30 9 N 1.445715 2.398843 1.194961 0
M  V30 10 C 2.359282 3.153904 0.413999 0
M  V30 11 C 2.635555 2.743792 -0.871410 0
M  V30 12 C 3.529251 3.537114 -1.544027 0
M  V30 13 N 3.950980 3.290930 -2.889092 0
M  V30 14 C 4.097455 4.651114 -0.968616 0
M  V30 15 C 3.780031 5.019662 0.339924 0
M  V30 16 Cl 4.473888 6.432580 1.137512 0
M  V30 17 C 2.884961 4.252134 1.055720 0
M  V30 18 N -0.469858 1.109414 0.435171 0
M  V30 19 C -1.161119 -0.045230 0.319831 0
M  V30 20 N -2.410260 -0.066346 -0.378034 0
M  V30 21 C -3.196273 -1.285380 -0.511717 0 CFG=2
M  V30 22 C -3.659790 -1.806578 0.830940 0
M  V30 23 C -4.376710 -3.120388 0.615364 0
M  V30 24 C -4.687317 -3.393508 -0.835184 0
M  V30 25 C -3.419939 -3.440911 -1.644381 0
M  V30 26 C -2.445983 -2.371886 -1.207189 0 CFG=1
M  V30 27 N -1.804495 -1.864059 -2.395116 0
M  V30 28 N -0.664643 -1.176282 0.853569 0
M  V30 29 C 0.508401 -1.208049 1.506934 0
M  V30 30 H -0.139614 -3.793587 4.119844 0
M  V30 31 H -0.913578 -2.677333 2.969291 0
M  V30 32 H -0.952837 -4.510193 2.655729 0
M  V30 33 H 0.753755 -3.893598 1.259011 0
M  V30 34 H 1.649898 -5.251010 3.320191 0
M  V30 35 H 2.461137 -3.753430 3.821642 0
M  V30 36 H 2.867515 -4.504913 2.267815 0
M  V30 37 H 3.215418 -1.965369 3.182978 0
M  V30 38 H 1.090446 2.642579 2.142509 0
M  V30 39 H 2.219945 1.895275 -1.350223 0
M  V30 40 H 3.904818 4.027106 -3.640622 0
M  V30 41 H 4.342774 2.458782 -3.375726 0
M  V30 42 H 4.812728 5.339188 -1.421010 0
M  V30 43 H 2.627847 4.523723 2.070280 0
M  V30 44 H -2.756419 0.826291 -0.799139 0
M  V30 45 H -4.132426 -1.037200 -1.072429 0
M  V30 46 H -2.776198 -2.023548 1.456338 0
M  V30 47 H -4.336744 -1.068416 1.333441 0
M  V30 48 H -5.326468 -3.161517 1.195101 0
M  V30 49 H -3.785419 -3.993777 1.013872 0
M  V30 50 H -5.409519 -2.622596 -1.180658 0
M  V30 51 H -5.222465 -4.365138 -0.865180 0
M  V30 52 H -3.652717 -3.332364 -2.742931 0
M  V30 53 H -2.966663 -4.462675 -1.512083 0
M  V30 54 H -1.727431 -2.819044 -0.493486 0
M  V30 55 H -0.793099 -2.019611 -2.462635 0
M  V30 56 H -2.352319 -1.919599 -3.260076 0
M  V30 END ATOM
M  V30 BEGIN BOND
M  V30 1 1 1 2
M  V30 2 1 2 3
M  V30 3 1 2 4
M  V30 4 1 4 5
M  V30 5 2 5 6
M  V30 6 1 6 7
M  V30 7 2 7 8
M  V30 8 1 8 9
M  V30 9 1 9 10
M  V30 10 2 10 11
M  V30 11 1 11 12
M  V30 12 1 12 13
M  V30 13 2 12 14
M  V30 14 1 14 15
M  V30 15 1 15 16
M  V30 16 2 15 17
M  V30 17 1 8 18
M  V30 18 2 18 19
M  V30 19 1 19 20
M  V30 20 1 20 21
M  V30 21 1 21 22
M  V30 22 1 22 23
M  V30 23 1 23 24
M  V30 24 1 24 25
M  V30 25 1 25 26
M  V30 26 1 26 27
M  V30 27 1 19 28
M  V30 28 2 28 29
M  V30 29 1 29 4
M  V30 30 1 29 7
M  V30 31 1 17 10
M  V30 32 1 26 21
M  V30 33 1 1 30
M  V30 34 1 1 31
M  V30 35 1 1 32
M  V30 36 1 2 33
M  V30 37 1 3 34
M  V30 38 1 3 35
M  V30 39 1 3 36
M  V30 40 1 5 37
M  V30 41 1 9 38
M  V30 42 1 11 39
M  V30 43 1 13 40
M  V30 44 1 13 41
M  V30 45 1 14 42
M  V30 46 1 17 43
M  V30 47 1 20 44
M  V30 48 1 21 45 CFG=3
M  V30 49 1 22 46
M  V30 50 1 22 47
M  V30 51 1 23 48
M  V30 52 1 23 49
M  V30 53 1 24 50
M  V30 54 1 24 51
M  V30 55 1 25 52
M  V30 56 1 25 53
M  V30 57 1 26 54 CFG=1
M  V30 58 1 27 55
M  V30 59 1 27 56
M  V30 END BOND
M  V30 END CTAB
M  END
>  <Dataset>  (653) 
ChEMBL_Kinases

>  <Ligand_Instance>  (653) 
nan

>  <PDB_ID>  (653) 
nan

>  <Standardized_SMILES>  (653) 
CC(C)n1cnc2c(Nc3cc(N)cc(Cl)c3)nc(N[C@@H]3CCCC[C@H]3N)nc21

>  <Name>  (653) 
nan

>  <Pocket>  (653) 
nan

>  <ATP_Site>  (653) 
nan

>  <Peripheral>  (653) 
nan

>  <Num_H_Atoms_ProtBoundConf>  (653) 
nan

>  <Num_Resolved_Atoms>  (653) 
nan

>  <Num_Not_Resolved_Atoms>  (653) 
nan

$$$$
CHEMBL4799387
     RDKit          3D

  0  0  0  0  0  0  0  0  0  0999 V3000
M  V30 BEGIN CTAB
M  V30 COUNTS 54 57 0 0 0
M  V30 BEGIN ATOM
M  V30 1 C 3.024388 -6.502565 2.849264 0
M  V30 2 N 3.988202 -5.922824 3.740576 0
M  V30 3 C 3.338130 -5.403689 4.915301 0
M  V30 4 C 2.311310 -4.384292 4.509468 0
M  V30 5 C 2.962457 -3.307216 3.691782 0
M  V30 6 O 2.390214 -3.271107 2.410553 0
M  V30 7 C 1.729990 -2.205819 1.835743 0
M  V30 8 C 1.461751 -0.943852 2.319942 0
M  V30 9 C 0.770857 -0.050881 1.529488 0
M  V30 10 C 0.342158 -0.392532 0.264158 0
M  V30 11 N -0.376725 0.503392 -0.572311 0
M  V30 12 C 0.243082 1.378286 -1.462465 0
M  V30 13 O 1.495640 1.174079 -1.338864 0
M  V30 14 C -0.198241 2.374120 -2.406871 0
M  V30 15 N 0.758596 2.985772 -3.130539 0
M  V30 16 N 0.199885 3.872608 -3.947082 0
M  V30 17 C -1.126110 3.859255 -3.774803 0
M  V30 18 C -1.369888 2.927809 -2.818018 0
M  V30 19 C -2.635482 2.542565 -2.277655 0
M  V30 20 C -3.727389 3.141345 -2.722727 0
M  V30 21 C -5.101718 2.885440 -2.294155 0
M  V30 22 C -6.118825 3.609637 -2.865958 0
M  V30 23 C -7.417524 3.374584 -2.468699 0
M  V30 24 C -7.789087 2.447958 -1.519662 0
M  V30 25 N -6.745907 1.755232 -0.981848 0
M  V30 26 C -5.482981 1.976760 -1.360906 0
M  V30 27 C 0.628791 -1.663259 -0.187640 0
M  V30 28 N 1.308569 -2.551167 0.583197 0
M  V30 29 C 4.449107 -3.529362 3.650623 0
M  V30 30 C 4.780333 -4.907530 3.094035 0
M  V30 31 H 3.423949 -7.520252 2.573992 0
M  V30 32 H 2.921212 -5.917738 1.907143 0
M  V30 33 H 2.040330 -6.741123 3.327214 0
M  V30 34 H 2.865461 -6.284987 5.418581 0
M  V30 35 H 4.078006 -4.954797 5.612961 0
M  V30 36 H 1.788377 -3.963804 5.408013 0
M  V30 37 H 1.536166 -4.875132 3.852867 0
M  V30 38 H 2.824707 -2.321914 4.225194 0
M  V30 39 H 1.839515 -0.781471 3.311582 0
M  V30 40 H 0.576263 0.931082 1.939053 0
M  V30 41 H -1.412296 0.561785 -0.576818 0
M  V30 42 H 0.731465 4.473373 -4.609547 0
M  V30 43 H -1.826897 4.500301 -4.328331 0
M  V30 44 H -2.953652 1.842007 -1.551800 0
M  V30 45 H -3.594903 3.918110 -3.500653 0
M  V30 46 H -5.926004 4.372420 -3.632036 0
M  V30 47 H -8.182824 3.973822 -2.948419 0
M  V30 48 H -8.811173 2.266995 -1.211687 0
M  V30 49 H -4.753700 1.370182 -0.866992 0
M  V30 50 H 0.286453 -1.922894 -1.190340 0
M  V30 51 H 4.932265 -3.402252 4.626018 0
M  V30 52 H 4.871051 -2.794312 2.954848 0
M  V30 53 H 5.843818 -5.084224 3.403964 0
M  V30 54 H 4.699789 -4.941379 1.999968 0
M  V30 END ATOM
M  V30 BEGIN BOND
M  V30 1 1 1 2
M  V30 2 1 2 3
M  V30 3 1 3 4
M  V30 4 1 4 5
M  V30 5 1 5 6
M  V30 6 1 6 7
M  V30 7 2 7 8
M  V30 8 1 8 9
M  V30 9 2 9 10
M  V30 10 1 10 11
M  V30 11 1 11 12
M  V30 12 2 12 13
M  V30 13 1 12 14
M  V30 14 2 14 15
M  V30 15 1 15 16
M  V30 16 1 16 17
M  V30 17 2 17 18
M  V30 18 1 18 19
M  V30 19 2 19 20
M  V30 20 1 20 21
M  V30 21 2 21 22
M  V30 22 1 22 23
M  V30 23 2 23 24
M  V30 24 1 24 25
M  V30 25 2 25 26
M  V30 26 1 10 27
M  V30 27 2 27 28
M  V30 28 1 5 29
M  V30 29 1 29 30
M  V30 30 1 30 2
M  V30 31 1 28 7
M  V30 32 1 18 14
M  V30 33 1 26 21
M  V30 34 1 1 31
M  V30 35 1 1 32
M  V30 36 1 1 33
M  V30 37 1 3 34
M  V30 38 1 3 35
M  V30 39 1 4 36
M  V30 40 1 4 37
M  V30 41 1 5 38
M  V30 42 1 8 39
M  V30 43 1 9 40
M  V30 44 1 11 41
M  V30 45 1 16 42
M  V30 46 1 17 43
M  V30 47 1 19 44
M  V30 48 1 20 45
M  V30 49 1 22 46
M  V30 50 1 23 47
M  V30 51 1 24 48
M  V30 52 1 26 49
M  V30 53 1 27 50
M  V30 54 1 29 51
M  V30 55 1 29 52
M  V30 56 1 30 53
M  V30 57 1 30 54
M  V30 END BOND
M  V30 END CTAB
M  END
>  <Dataset>  (654) 
ChEMBL_Kinases

>  <Ligand_Instance>  (654) 
nan

>  <PDB_ID>  (654) 
nan

>  <Standardized_SMILES>  (654) 
CN1CCC(Oc2ccc(NC(=O)c3n[nH]cc3/C=C/c3cccnc3)cn2)CC1

>  <Name>  (654) 
nan

>  <Pocket>  (654) 
nan

>  <ATP_Site>  (654) 
nan

>  <Peripheral>  (654) 
nan

>  <Num_H_Atoms_ProtBoundConf>  (654) 
nan

>  <Num_Resolved_Atoms>  (654) 
nan

>  <Num_Not_Resolved_Atoms>  (654) 
nan

$$$$
CHEMBL4100747
     RDKit          3D

  0  0  0  0  0  0  0  0  0  0999 V3000
M  V30 BEGIN CTAB
M  V30 COUNTS 56 60 0 0 0
M  V30 BEGIN ATOM
M  V30 1 C 1.924713 -1.825801 3.213593 0
M  V30 2 C 3.038235 -1.206675 2.485536 0
M  V30 3 O 3.971076 -0.912439 3.306307 0
M  V30 4 N 3.477493 -0.806908 1.206827 0
M  V30 5 C 4.803383 -0.209005 1.234561 0
M  V30 6 C 2.691654 -0.972524 -0.026490 0
M  V30 7 C 1.863168 0.272468 -0.157464 0
M  V30 8 C 2.321351 1.395818 -0.846101 0
M  V30 9 C 1.526689 2.542210 -0.945406 0
M  V30 10 C 0.286243 2.539006 -0.351599 0
M  V30 11 C -0.497173 3.665358 -0.420964 0
M  V30 12 C -1.735941 3.697837 0.182261 0
M  V30 13 C -2.148805 2.570642 0.846232 0
M  V30 14 Cl -3.745672 2.683080 1.588043 0
M  V30 15 C -1.407001 1.388985 0.957661 0
M  V30 16 C -1.980977 0.282014 1.707686 0
M  V30 17 C -2.280697 -1.006524 1.478528 0
M  V30 18 C -2.085801 -1.739361 0.238440 0
M  V30 19 C -2.426903 -1.088166 -0.951249 0
M  V30 20 N -2.184890 -1.889083 -2.013453 0
M  V30 21 C -2.398736 -1.601844 -3.425468 0
M  V30 22 C -1.701093 -3.021068 -1.503559 0
M  V30 23 C -1.267437 -4.213604 -2.086279 0
M  V30 24 C -0.793335 -5.262436 -1.298027 0
M  V30 25 C -0.744174 -5.137053 0.090611 0
M  V30 26 C -1.171313 -3.955929 0.704967 0
M  V30 27 C -1.621498 -2.976645 -0.127445 0
M  V30 28 C -2.857591 -1.568433 2.708723 0
M  V30 29 O -3.279521 -2.729074 2.947989 0
M  V30 30 N -2.903846 -0.565159 3.726393 0
M  V30 31 C -2.348427 0.604801 3.090242 0
M  V30 32 O -2.270441 1.657501 3.781747 0
M  V30 33 C -0.189670 1.467854 0.322377 0
M  V30 34 C 0.609338 0.350245 0.408856 0
M  V30 35 H 2.278634 -2.651512 3.835835 0
M  V30 36 H 1.147159 -2.215232 2.495939 0
M  V30 37 H 1.444357 -1.066578 3.873151 0
M  V30 38 H 4.819266 0.853752 1.472706 0
M  V30 39 H 5.467768 -0.713755 1.971467 0
M  V30 40 H 5.256761 -0.327723 0.223237 0
M  V30 41 H 3.460025 -0.988459 -0.834662 0
M  V30 42 H 2.103828 -1.889345 -0.031764 0
M  V30 43 H 3.313257 1.340967 -1.297740 0
M  V30 44 H 1.895583 3.411378 -1.484852 0
M  V30 45 H -0.117339 4.528276 -0.962350 0
M  V30 46 H -2.338417 4.589629 0.118861 0
M  V30 47 H -2.836248 -0.086239 -1.131961 0
M  V30 48 H -2.862952 -0.587440 -3.523760 0
M  V30 49 H -3.172346 -2.304412 -3.834275 0
M  V30 50 H -1.448173 -1.691300 -3.989038 0
M  V30 51 H -1.329603 -4.251568 -3.169504 0
M  V30 52 H -0.468448 -6.168451 -1.800388 0
M  V30 53 H -0.374284 -5.957995 0.686603 0
M  V30 54 H -1.130693 -3.848448 1.775000 0
M  V30 55 H -3.266190 -0.677671 4.711876 0
M  V30 56 H 0.309158 -0.533828 0.944389 0
M  V30 END ATOM
M  V30 BEGIN BOND
M  V30 1 1 1 2
M  V30 2 2 2 3
M  V30 3 1 2 4
M  V30 4 1 4 5
M  V30 5 1 4 6
M  V30 6 1 6 7
M  V30 7 2 7 8
M  V30 8 1 8 9
M  V30 9 2 9 10
M  V30 10 1 10 11
M  V30 11 2 11 12
M  V30 12 1 12 13
M  V30 13 1 13 14
M  V30 14 2 13 15
M  V30 15 1 15 16
M  V30 16 2 16 17
M  V30 17 1 17 18
M  V30 18 2 18 19
M  V30 19 1 19 20
M  V30 20 1 20 21
M  V30 21 1 20 22
M  V30 22 2 22 23
M  V30 23 1 23 24
M  V30 24 2 24 25
M  V30 25 1 25 26
M  V30 26 2 26 27
M  V30 27 1 17 28
M  V30 28 2 28 29
M  V30 29 1 28 30
M  V30 30 1 30 31
M  V30 31 2 31 32
M  V30 32 1 15 33
M  V30 33 2 33 34
M  V30 34 1 34 7
M  V30 35 1 33 10
M  V30 36 1 31 16
M  V30 37 1 27 18
M  V30 38 1 27 22
M  V30 39 1 1 35
M  V30 40 1 1 36
M  V30 41 1 1 37
M  V30 42 1 5 38
M  V30 43 1 5 39
M  V30 44 1 5 40
M  V30 45 1 6 41
M  V30 46 1 6 42
M  V30 47 1 8 43
M  V30 48 1 9 44
M  V30 49 1 11 45
M  V30 50 1 12 46
M  V30 51 1 19 47
M  V30 52 1 21 48
M  V30 53 1 21 49
M  V30 54 1 21 50
M  V30 55 1 23 51
M  V30 56 1 24 52
M  V30 57 1 25 53
M  V30 58 1 26 54
M  V30 59 1 30 55
M  V30 60 1 34 56
M  V30 END BOND
M  V30 END CTAB
M  END
>  <Dataset>  (655) 
ChEMBL_Kinases

>  <Ligand_Instance>  (655) 
nan

>  <PDB_ID>  (655) 
nan

>  <Standardized_SMILES>  (655) 
CC(=O)N(C)Cc1ccc2ccc(Cl)c(C3=C(c4cn(C)c5ccccc45)C(=O)NC3=O)c2c1

>  <Name>  (655) 
nan

>  <Pocket>  (655) 
nan

>  <ATP_Site>  (655) 
nan

>  <Peripheral>  (655) 
nan

>  <Num_H_Atoms_ProtBoundConf>  (655) 
nan

>  <Num_Resolved_Atoms>  (655) 
nan

>  <Num_Not_Resolved_Atoms>  (655) 
nan

$$$$
CHEMBL4799353
     RDKit          3D

  0  0  0  0  0  0  0  0  0  0999 V3000
M  V30 BEGIN CTAB
M  V30 COUNTS 39 43 0 0 0
M  V30 BEGIN ATOM
M  V30 1 C -0.445249 -5.176967 2.613852 0
M  V30 2 C 0.769654 -4.632509 1.993797 0
M  V30 3 C 1.881055 -5.473924 1.886471 0
M  V30 4 C 3.093160 -5.121409 1.333421 0
M  V30 5 N 3.161488 -3.854731 0.874267 0
M  V30 6 C 2.106324 -3.028767 0.966843 0
M  V30 7 C 0.884903 -3.352051 1.513177 0
M  V30 8 C -0.245889 -2.438867 1.602715 0
M  V30 9 C -0.215327 -1.141247 1.146804 0
M  V30 10 C -1.238868 -0.255769 1.207656 0
M  V30 11 C -1.381518 1.051541 0.810112 0
M  V30 12 C -0.452575 1.955708 0.169229 0
M  V30 13 C -0.823232 3.268885 -0.149038 0
M  V30 14 C 0.194195 3.969363 -0.751566 0
M  V30 15 C 0.355071 5.234270 -1.242576 0
M  V30 16 N 1.521209 5.625605 -1.792057 0
M  V30 17 C 2.560726 4.752747 -1.862973 0
M  V30 18 C 2.427524 3.468368 -1.375146 0
M  V30 19 C 1.233274 3.069039 -0.812910 0
M  V30 20 N 0.792503 1.928588 -0.264888 0
M  V30 21 N -2.657173 1.342556 1.164629 0
M  V30 22 N -3.253958 0.320776 1.727594 0
M  V30 23 C -2.404556 -0.717927 1.781311 0
M  V30 24 C -2.476526 -2.010258 2.250158 0
M  V30 25 N -1.412776 -2.819695 2.148908 0
M  V30 26 H -1.261859 -5.148496 1.850869 0
M  V30 27 H -0.284071 -6.237962 2.936996 0
M  V30 28 H -0.791917 -4.630271 3.511982 0
M  V30 29 H 1.800709 -6.488732 2.263446 0
M  V30 30 H 3.898575 -5.840800 1.293273 0
M  V30 31 H 2.283778 -2.047924 0.566911 0
M  V30 32 H 0.709618 -0.827328 0.709736 0
M  V30 33 H -1.782852 3.778607 0.017936 0
M  V30 34 H -0.472324 5.913824 -1.180918 0
M  V30 35 H 3.514927 5.054905 -2.306399 0
M  V30 36 H 3.237431 2.749237 -1.417005 0
M  V30 37 H 1.406087 1.115587 -0.204646 0
M  V30 38 H -4.238516 0.347622 2.069027 0
M  V30 39 H -3.406059 -2.342398 2.695115 0
M  V30 END ATOM
M  V30 BEGIN BOND
M  V30 1 1 1 2
M  V30 2 2 2 3
M  V30 3 1 3 4
M  V30 4 2 4 5
M  V30 5 1 5 6
M  V30 6 2 6 7
M  V30 7 1 7 8
M  V30 8 2 8 9
M  V30 9 1 9 10
M  V30 10 1 10 11
M  V30 11 1 11 12
M  V30 12 2 12 13
M  V30 13 1 13 14
M  V30 14 2 14 15
M  V30 15 1 15 16
M  V30 16 2 16 17
M  V30 17 1 17 18
M  V30 18 2 18 19
M  V30 19 1 19 20
M  V30 20 2 11 21
M  V30 21 1 21 22
M  V30 22 1 22 23
M  V30 23 1 23 24
M  V30 24 2 24 25
M  V30 25 1 7 2
M  V30 26 1 25 8
M  V30 27 2 23 10
M  V30 28 1 20 12
M  V30 29 1 19 14
M  V30 30 1 1 26
M  V30 31 1 1 27
M  V30 32 1 1 28
M  V30 33 1 3 29
M  V30 34 1 4 30
M  V30 35 1 6 31
M  V30 36 1 9 32
M  V30 37 1 13 33
M  V30 38 1 15 34
M  V30 39 1 17 35
M  V30 40 1 18 36
M  V30 41 1 20 37
M  V30 42 1 22 38
M  V30 43 1 24 39
M  V30 END BOND
M  V30 END CTAB
M  END
>  <Dataset>  (656) 
ChEMBL_Kinases

>  <Ligand_Instance>  (656) 
nan

>  <PDB_ID>  (656) 
nan

>  <Standardized_SMILES>  (656) 
Cc1ccncc1-c1cc2c(-c3cc4cnccc4[nH]3)n[nH]c2cn1

>  <Name>  (656) 
nan

>  <Pocket>  (656) 
nan

>  <ATP_Site>  (656) 
nan

>  <Peripheral>  (656) 
nan

>  <Num_H_Atoms_ProtBoundConf>  (656) 
nan

>  <Num_Resolved_Atoms>  (656) 
nan

>  <Num_Not_Resolved_Atoms>  (656) 
nan

$$$$
CHEMBL4799281
     RDKit          3D

  0  0  0  0  0  0  0  0  0  0999 V3000
M  V30 BEGIN CTAB
M  V30 COUNTS 58 63 0 0 0
M  V30 BEGIN ATOM
M  V30 1 C 2.520645 -0.023335 4.521548 0
M  V30 2 N 3.803458 -0.534611 4.093097 0
M  V30 3 C 3.678671 -1.966545 3.942908 0
M  V30 4 C 4.319895 0.158072 2.955739 0
M  V30 5 C 3.461557 0.118362 1.750671 0
M  V30 6 C 3.646082 -0.987487 0.948487 0
M  V30 7 N 2.910757 -1.187520 -0.204637 0
M  V30 8 C 1.971834 -0.214702 -0.507421 0
M  V30 9 C 1.827247 0.862657 0.311815 0
M  V30 10 C 0.825869 1.826219 -0.063562 0
M  V30 11 C 0.858647 3.189243 0.116668 0
M  V30 12 C -0.149375 4.055502 -0.255094 0
M  V30 13 C -1.252258 3.416839 -0.847587 0
M  V30 14 N -2.325619 4.049963 -1.344455 0
M  V30 15 N -2.933629 3.094988 -1.756493 0
M  V30 16 C -2.841579 1.846031 -1.832388 0
M  V30 17 C -2.723060 0.411079 -1.900764 0
M  V30 18 C -2.394387 -0.737700 -1.242867 0
M  V30 19 C -2.766448 -1.855085 -1.963558 0
M  V30 20 C -2.536510 -3.124547 -1.489434 0
M  V30 21 C -1.931518 -3.519276 -0.238613 0
M  V30 22 C -0.793428 -3.110804 0.427736 0
M  V30 23 C -0.467636 -3.668148 1.632340 0
M  V30 24 C -1.203776 -4.635873 2.254563 0
M  V30 25 C -2.364366 -5.067833 1.598148 0
M  V30 26 F -3.068161 -6.027780 2.247376 0
M  V30 27 C -2.704106 -4.508753 0.375319 0
M  V30 28 C -3.013328 -4.078097 -2.402463 0
M  V30 29 N -3.597207 -3.697980 -3.549852 0
M  V30 30 C -3.778911 -2.424175 -3.928561 0
M  V30 31 C -3.346385 -1.363426 -3.106420 0
M  V30 32 N -3.316571 -0.021362 -3.059938 0
M  V30 33 C -1.556825 2.085263 -1.144600 0
M  V30 34 C -0.362585 1.471510 -0.663045 0
M  V30 35 C 2.524945 1.111189 1.457373 0
M  V30 36 H 1.720573 -0.227769 3.781251 0
M  V30 37 H 2.259497 -0.610379 5.433565 0
M  V30 38 H 2.634870 1.025795 4.783354 0
M  V30 39 H 3.167572 -2.311922 4.893909 0
M  V30 40 H 3.073982 -2.242538 3.054671 0
M  V30 41 H 4.656398 -2.493493 3.969990 0
M  V30 42 H 4.332484 1.253431 3.254017 0
M  V30 43 H 5.331527 -0.144978 2.695353 0
M  V30 44 H 4.371972 -1.767946 1.151105 0
M  V30 45 H 1.457233 -0.480321 -1.413830 0
M  V30 46 H 1.697897 3.645455 0.572708 0
M  V30 47 H -0.114315 5.112185 -0.117718 0
M  V30 48 H -2.696840 5.027147 -1.443395 0
M  V30 49 H -1.949802 -0.638998 -0.266860 0
M  V30 50 H -0.274461 -2.349702 -0.128458 0
M  V30 51 H 0.452978 -3.277654 2.094175 0
M  V30 52 H -0.868465 -5.020258 3.199024 0
M  V30 53 H -3.623808 -4.962462 0.017867 0
M  V30 54 H -2.928902 -5.140722 -2.217410 0
M  V30 55 H -4.254136 -2.108737 -4.865921 0
M  V30 56 H -3.756143 0.391301 -3.940262 0
M  V30 57 H -0.266660 0.387641 -0.826251 0
M  V30 58 H 2.399219 1.955194 2.074343 0
M  V30 END ATOM
M  V30 BEGIN BOND
M  V30 1 1 1 2
M  V30 2 1 2 3
M  V30 3 1 2 4
M  V30 4 1 4 5
M  V30 5 2 5 6
M  V30 6 1 6 7
M  V30 7 2 7 8
M  V30 8 1 8 9
M  V30 9 1 9 10
M  V30 10 2 10 11
M  V30 11 1 11 12
M  V30 12 2 12 13
M  V30 13 1 13 14
M  V30 14 1 14 15
M  V30 15 2 15 16
M  V30 16 1 16 17
M  V30 17 2 17 18
M  V30 18 1 18 19
M  V30 19 2 19 20
M  V30 20 1 20 21
M  V30 21 2 21 22
M  V30 22 1 22 23
M  V30 23 2 23 24
M  V30 24 1 24 25
M  V30 25 1 25 26
M  V30 26 2 25 27
M  V30 27 1 20 28
M  V30 28 2 28 29
M  V30 29 1 29 30
M  V30 30 2 30 31
M  V30 31 1 31 32
M  V30 32 1 16 33
M  V30 33 2 33 34
M  V30 34 2 9 35
M  V30 35 1 35 5
M  V30 36 1 34 10
M  V30 37 1 33 13
M  V30 38 1 32 17
M  V30 39 1 31 19
M  V30 40 1 27 21
M  V30 41 1 1 36
M  V30 42 1 1 37
M  V30 43 1 1 38
M  V30 44 1 3 39
M  V30 45 1 3 40
M  V30 46 1 3 41
M  V30 47 1 4 42
M  V30 48 1 4 43
M  V30 49 1 6 44
M  V30 50 1 8 45
M  V30 51 1 11 46
M  V30 52 1 12 47
M  V30 53 1 14 48
M  V30 54 1 18 49
M  V30 55 1 22 50
M  V30 56 1 23 51
M  V30 57 1 24 52
M  V30 58 1 27 53
M  V30 59 1 28 54
M  V30 60 1 30 55
M  V30 61 1 32 56
M  V30 62 1 34 57
M  V30 63 1 35 58
M  V30 END BOND
M  V30 END CTAB
M  END
>  <Dataset>  (657) 
ChEMBL_Kinases

>  <Ligand_Instance>  (657) 
nan

>  <PDB_ID>  (657) 
nan

>  <Standardized_SMILES>  (657) 
CN(C)Cc1cncc(-c2ccc3[nH]nc(-c4cc5c(-c6cccc(F)c6)cncc5[nH]4)c3c2)c1

>  <Name>  (657) 
nan

>  <Pocket>  (657) 
nan

>  <ATP_Site>  (657) 
nan

>  <Peripheral>  (657) 
nan

>  <Num_H_Atoms_ProtBoundConf>  (657) 
nan

>  <Num_Resolved_Atoms>  (657) 
nan

>  <Num_Not_Resolved_Atoms>  (657) 
nan

$$$$
CHEMBL4101902
     RDKit          3D

  0  0  0  0  0  0  0  0  0  0999 V3000
M  V30 BEGIN CTAB
M  V30 COUNTS 52 56 0 0 0
M  V30 BEGIN ATOM
M  V30 1 C -0.454488 -5.240215 1.223518 0
M  V30 2 N 0.059237 -3.992442 0.654435 0
M  V30 3 N 1.155111 -3.350707 1.021924 0
M  V30 4 C 1.327271 -2.234822 0.284111 0
M  V30 5 C 2.432359 -1.294495 0.424168 0
M  V30 6 C 3.762176 -1.631476 0.361719 0
M  V30 7 N 4.622212 -0.607449 0.517084 0
M  V30 8 C 4.153721 0.638099 0.716927 0
M  V30 9 N 5.178795 1.600026 0.859458 0
M  V30 10 C 2.826530 1.003710 0.784346 0
M  V30 11 C 2.422436 2.382961 1.005584 0
M  V30 12 C 2.937656 3.491423 0.375148 0
M  V30 13 C 2.429736 4.729274 0.713125 0
M  V30 14 C 1.436237 4.857137 1.653239 0
M  V30 15 C 0.903934 6.167267 2.002008 0
M  V30 16 N -0.112889 6.339070 2.976035 0
M  V30 17 O 1.154190 7.308918 1.604940 0
M  V30 18 C 0.900956 3.764223 2.301215 0
M  V30 19 F -0.079873 3.895025 3.227477 0
M  V30 20 C 1.412183 2.529820 1.959510 0
M  V30 21 N 1.995073 -0.033384 0.626649 0
M  V30 22 N 0.267813 -2.208171 -0.577823 0
M  V30 23 C -0.503342 -3.303153 -0.332421 0
M  V30 24 C -1.747142 -3.601869 -1.089671 0
M  V30 25 C -3.039592 -3.613360 -0.335605 0
M  V30 26 C -3.696977 -4.843105 -0.285839 0
M  V30 27 C -4.905395 -4.955084 0.391328 0
M  V30 28 C -5.447229 -3.843475 1.011745 0
M  V30 29 C -4.786883 -2.621563 0.958016 0
M  V30 30 C -3.570946 -2.493534 0.280652 0
M  V30 31 C -1.698857 -4.427750 -2.306580 0
M  V30 32 C -1.865955 -2.965214 -2.500061 0
M  V30 33 H -0.730993 -5.983098 0.464757 0
M  V30 34 H -1.289987 -4.945782 1.892391 0
M  V30 35 H 0.311469 -5.678868 1.900857 0
M  V30 36 H 3.891204 -2.682567 0.194966 0
M  V30 37 H 5.958596 2.263380 0.803278 0
M  V30 38 H 5.367684 2.138245 1.752893 0
M  V30 39 H 3.705168 3.325854 -0.342705 0
M  V30 40 H 2.808386 5.605191 0.241791 0
M  V30 41 H -0.270938 6.293420 4.005160 0
M  V30 42 H -0.215075 6.278454 4.023230 0
M  V30 43 H 0.971170 1.683825 2.486971 0
M  V30 44 H -3.352598 -5.760896 -0.739186 0
M  V30 45 H -5.476724 -5.885681 0.472230 0
M  V30 46 H -6.389438 -3.901592 1.547821 0
M  V30 47 H -5.162864 -1.707765 1.428340 0
M  V30 48 H -3.025869 -1.560504 0.215476 0
M  V30 49 H -0.781972 -4.907169 -2.696507 0
M  V30 50 H -2.606448 -5.041181 -2.549268 0
M  V30 51 H -0.986054 -2.375358 -2.848979 0
M  V30 52 H -2.828433 -2.500133 -2.776190 0
M  V30 END ATOM
M  V30 BEGIN BOND
M  V30 1 1 1 2
M  V30 2 1 2 3
M  V30 3 2 3 4
M  V30 4 1 4 5
M  V30 5 2 5 6
M  V30 6 1 6 7
M  V30 7 2 7 8
M  V30 8 1 8 9
M  V30 9 1 8 10
M  V30 10 1 10 11
M  V30 11 2 11 12
M  V30 12 1 12 13
M  V30 13 2 13 14
M  V30 14 1 14 15
M  V30 15 1 15 16
M  V30 16 2 15 17
M  V30 17 1 14 18
M  V30 18 1 18 19
M  V30 19 2 18 20
M  V30 20 2 10 21
M  V30 21 1 4 22
M  V30 22 2 22 23
M  V30 23 1 23 24
M  V30 24 1 24 25
M  V30 25 2 25 26
M  V30 26 1 26 27
M  V30 27 2 27 28
M  V30 28 1 28 29
M  V30 29 2 29 30
M  V30 30 1 24 31
M  V30 31 1 31 32
M  V30 32 1 23 2
M  V30 33 1 32 24
M  V30 34 1 21 5
M  V30 35 1 30 25
M  V30 36 1 20 11
M  V30 37 1 1 33
M  V30 38 1 1 34
M  V30 39 1 1 35
M  V30 40 1 6 36
M  V30 41 1 9 37
M  V30 42 1 9 38
M  V30 43 1 12 39
M  V30 44 1 13 40
M  V30 45 1 16 41
M  V30 46 1 16 42
M  V30 47 1 20 43
M  V30 48 1 26 44
M  V30 49 1 27 45
M  V30 50 1 28 46
M  V30 51 1 29 47
M  V30 52 1 30 48
M  V30 53 1 31 49
M  V30 54 1 31 50
M  V30 55 1 32 51
M  V30 56 1 32 52
M  V30 END BOND
M  V30 END CTAB
M  END
>  <Dataset>  (658) 
ChEMBL_Kinases

>  <Ligand_Instance>  (658) 
nan

>  <PDB_ID>  (658) 
nan

>  <Standardized_SMILES>  (658) 
Cn1nc(-c2cnc(N)c(-c3ccc(C(N)=O)c(F)c3)n2)nc1C1(c2ccccc2)CC1

>  <Name>  (658) 
nan

>  <Pocket>  (658) 
nan

>  <ATP_Site>  (658) 
nan

>  <Peripheral>  (658) 
nan

>  <Num_H_Atoms_ProtBoundConf>  (658) 
nan

>  <Num_Resolved_Atoms>  (658) 
nan

>  <Num_Not_Resolved_Atoms>  (658) 
nan

$$$$
CHEMBL4102030
     RDKit          3D

  0  0  0  0  0  0  0  0  0  0999 V3000
M  V30 BEGIN CTAB
M  V30 COUNTS 39 40 0 0 0
M  V30 BEGIN ATOM
M  V30 1 C 1.759750 -4.891675 -0.683416 0
M  V30 2 C 1.161285 -3.510576 -0.824092 0
M  V30 3 N 0.770513 -2.904318 0.371438 0
M  V30 4 C -0.309911 -3.424500 1.091111 0
M  V30 5 C -1.591462 -3.203092 0.313204 0
M  V30 6 C 1.225424 -1.605604 0.690403 0
M  V30 7 C 0.645148 -0.568034 -0.221238 0
M  V30 8 N 1.097957 0.791020 0.081531 0
M  V30 9 C 2.207580 1.395486 -0.430430 0
M  V30 10 I 3.586743 0.530877 -1.790535 0
M  V30 11 C 2.328670 2.683018 0.062087 0
M  V30 12 Cl 3.555153 3.897547 -0.256430 0
M  V30 13 C 1.257937 2.868470 0.900324 0
M  V30 14 C 0.814232 3.917091 1.676824 0
M  V30 15 Cl 1.703542 5.433715 1.730448 0
M  V30 16 C -0.333587 3.815902 2.434218 0
M  V30 17 C -1.058382 2.645641 2.421369 0
M  V30 18 C -2.276180 2.465557 3.188151 0
M  V30 19 N -3.073670 1.306544 3.245216 0
M  V30 20 O -2.657566 3.455496 3.877701 0
M  V30 21 N -0.612628 1.626610 1.657341 0
M  V30 22 C 0.514024 1.707661 0.904854 0
M  V30 23 H 2.222882 -5.142557 -1.662357 0
M  V30 24 H 2.571209 -4.949732 0.074763 0
M  V30 25 H 0.985044 -5.685889 -0.502226 0
M  V30 26 H 0.292027 -3.627790 -1.502332 0
M  V30 27 H 1.909045 -2.913664 -1.380000 0
M  V30 28 H -0.393774 -2.878921 2.076910 0
M  V30 29 H -0.244968 -4.496835 1.402790 0
M  V30 30 H -1.421078 -2.846256 -0.725019 0
M  V30 31 H -2.225248 -2.425633 0.792261 0
M  V30 32 H -2.138859 -4.172836 0.221931 0
M  V30 33 H 2.341917 -1.576251 0.554272 0
M  V30 34 H 1.062928 -1.370268 1.752314 0
M  V30 35 H -0.462585 -0.547441 -0.079461 0
M  V30 36 H 0.815781 -0.777401 -1.285213 0
M  V30 37 H -0.738361 4.615759 3.072548 0
M  V30 38 H -3.942923 1.235809 3.806848 0
M  V30 39 H -2.760645 0.486267 2.688006 0
M  V30 END ATOM
M  V30 BEGIN BOND
M  V30 1 1 1 2
M  V30 2 1 2 3
M  V30 3 1 3 4
M  V30 4 1 4 5
M  V30 5 1 3 6
M  V30 6 1 6 7
M  V30 7 1 7 8
M  V30 8 1 8 9
M  V30 9 1 9 10
M  V30 10 2 9 11
M  V30 11 1 11 12
M  V30 12 1 11 13
M  V30 13 2 13 14
M  V30 14 1 14 15
M  V30 15 1 14 16
M  V30 16 2 16 17
M  V30 17 1 17 18
M  V30 18 1 18 19
M  V30 19 2 18 20
M  V30 20 1 17 21
M  V30 21 2 21 22
M  V30 22 1 22 8
M  V30 23 1 22 13
M  V30 24 1 1 23
M  V30 25 1 1 24
M  V30 26 1 1 25
M  V30 27 1 2 26
M  V30 28 1 2 27
M  V30 29 1 4 28
M  V30 30 1 4 29
M  V30 31 1 5 30
M  V30 32 1 5 31
M  V30 33 1 5 32
M  V30 34 1 6 33
M  V30 35 1 6 34
M  V30 36 1 7 35
M  V30 37 1 7 36
M  V30 38 1 16 37
M  V30 39 1 19 38
M  V30 40 1 19 39
M  V30 END BOND
M  V30 END CTAB
M  END
>  <Dataset>  (659) 
ChEMBL_Kinases

>  <Ligand_Instance>  (659) 
nan

>  <PDB_ID>  (659) 
nan

>  <Standardized_SMILES>  (659) 
CCN(CC)CCn1c(I)c(Cl)c2c(Cl)cc(C(N)=O)nc21

>  <Name>  (659) 
nan

>  <Pocket>  (659) 
nan

>  <ATP_Site>  (659) 
nan

>  <Peripheral>  (659) 
nan

>  <Num_H_Atoms_ProtBoundConf>  (659) 
nan

>  <Num_Resolved_Atoms>  (659) 
nan

>  <Num_Not_Resolved_Atoms>  (659) 
nan

$$$$
CHEMBL4102101
     RDKit          3D

  0  0  0  0  0  0  0  0  0  0999 V3000
M  V30 BEGIN CTAB
M  V30 COUNTS 50 53 0 0 0
M  V30 BEGIN ATOM
M  V30 1 C 0.582231 -4.550233 2.725118 0
M  V30 2 C 0.612380 -3.133522 3.260230 0
M  V30 3 C -0.810436 -2.689932 3.532386 0
M  V30 4 N 1.317256 -2.231825 2.370473 0
M  V30 5 C 2.608642 -1.912881 2.554323 0
M  V30 6 N 2.998402 -1.066929 1.584431 0
M  V30 7 C 1.968555 -0.819126 0.751412 0
M  V30 8 C 1.752525 -0.056102 -0.406994 0
M  V30 9 N 2.923955 0.649798 -0.785932 0
M  V30 10 C 3.062541 2.038472 -0.503329 0
M  V30 11 C 1.954887 2.777927 -0.097500 0
M  V30 12 C 2.058466 4.122435 0.185354 0
M  V30 13 N 0.909971 4.854828 0.593795 0
M  V30 14 C 3.278456 4.744158 0.064513 0
M  V30 15 C 4.388316 4.037704 -0.333140 0
M  V30 16 Cl 5.957561 4.846113 -0.482767 0
M  V30 17 C 4.264865 2.696915 -0.611218 0
M  V30 18 N 0.521429 -0.101225 -0.946243 0
M  V30 19 C -0.477071 -0.826730 -0.433002 0
M  V30 20 N -1.729828 -0.780467 -1.097990 0
M  V30 21 C -2.792239 -1.549400 -0.528621 0 CFG=1
M  V30 22 C -4.086157 -1.438025 -1.306239 0
M  V30 23 C -4.849856 -2.619569 -0.789129 0
M  V30 24 N -3.889018 -3.560035 -0.281224 0
M  V30 25 C -2.561100 -3.043124 -0.544818 0
M  V30 26 N -0.251933 -1.546444 0.669146 0
M  V30 27 C 0.931403 -1.564160 1.272364 0
M  V30 28 H 1.580015 -4.816305 2.340719 0
M  V30 29 H 0.292846 -5.197519 3.591310 0
M  V30 30 H -0.222106 -4.659482 1.995116 0
M  V30 31 H 1.100785 -3.153636 4.276626 0
M  V30 32 H -1.492176 -2.995656 2.729026 0
M  V30 33 H -0.837759 -1.558125 3.548995 0
M  V30 34 H -1.165277 -2.990749 4.549829 0
M  V30 35 H 3.350784 -2.195121 3.296842 0
M  V30 36 H 3.704090 0.141002 -1.282203 0
M  V30 37 H 0.974430 2.328794 0.010989 0
M  V30 38 H 0.106007 4.792571 1.246458 0
M  V30 39 H 0.832996 5.738380 0.090545 0
M  V30 40 H 3.338773 5.816360 0.293864 0
M  V30 41 H 5.120995 2.099516 -0.928715 0
M  V30 42 H -1.896435 -0.236026 -1.945831 0
M  V30 43 H -3.006920 -1.273838 0.528850 0
M  V30 44 H -3.863826 -1.625119 -2.364462 0
M  V30 45 H -4.582465 -0.464866 -1.129814 0
M  V30 46 H -5.448274 -3.144102 -1.559105 0
M  V30 47 H -5.539939 -2.247638 0.001385 0
M  V30 48 H -3.974266 -3.567026 0.774352 0
M  V30 49 H -1.846212 -3.362440 0.243656 0
M  V30 50 H -2.268749 -3.349034 -1.554566 0
M  V30 END ATOM
M  V30 BEGIN BOND
M  V30 1 1 1 2
M  V30 2 1 2 3
M  V30 3 1 2 4
M  V30 4 1 4 5
M  V30 5 2 5 6
M  V30 6 1 6 7
M  V30 7 2 7 8
M  V30 8 1 8 9
M  V30 9 1 9 10
M  V30 10 2 10 11
M  V30 11 1 11 12
M  V30 12 1 12 13
M  V30 13 2 12 14
M  V30 14 1 14 15
M  V30 15 1 15 16
M  V30 16 2 15 17
M  V30 17 1 8 18
M  V30 18 2 18 19
M  V30 19 1 19 20
M  V30 20 1 20 21
M  V30 21 1 21 22
M  V30 22 1 22 23
M  V30 23 1 23 24
M  V30 24 1 24 25
M  V30 25 1 19 26
M  V30 26 2 26 27
M  V30 27 1 27 4
M  V30 28 1 27 7
M  V30 29 1 17 10
M  V30 30 1 25 21
M  V30 31 1 1 28
M  V30 32 1 1 29
M  V30 33 1 1 30
M  V30 34 1 2 31
M  V30 35 1 3 32
M  V30 36 1 3 33
M  V30 37 1 3 34
M  V30 38 1 5 35
M  V30 39 1 9 36
M  V30 40 1 11 37
M  V30 41 1 13 38
M  V30 42 1 13 39
M  V30 43 1 14 40
M  V30 44 1 17 41
M  V30 45 1 20 42
M  V30 46 1 21 43 CFG=1
M  V30 47 1 22 44
M  V30 48 1 22 45
M  V30 49 1 23 46
M  V30 50 1 23 47
M  V30 51 1 24 48
M  V30 52 1 25 49
M  V30 53 1 25 50
M  V30 END BOND
M  V30 END CTAB
M  END
>  <Dataset>  (660) 
ChEMBL_Kinases

>  <Ligand_Instance>  (660) 
nan

>  <PDB_ID>  (660) 
nan

>  <Standardized_SMILES>  (660) 
CC(C)n1cnc2c(Nc3cc(N)cc(Cl)c3)nc(N[C@H]3CCNC3)nc21

>  <Name>  (660) 
nan

>  <Pocket>  (660) 
nan

>  <ATP_Site>  (660) 
nan

>  <Peripheral>  (660) 
nan

>  <Num_H_Atoms_ProtBoundConf>  (660) 
nan

>  <Num_Resolved_Atoms>  (660) 
nan

>  <Num_Not_Resolved_Atoms>  (660) 
nan

$$$$
CHEMBL4799161
     RDKit          3D

  0  0  0  0  0  0  0  0  0  0999 V3000
M  V30 BEGIN CTAB
M  V30 COUNTS 70 75 0 0 0
M  V30 BEGIN ATOM
M  V30 1 C -2.879173 -3.762341 -2.489070 0
M  V30 2 C -1.542897 -3.797748 -3.244485 0
M  V30 3 C -1.834119 -4.387702 -4.600384 0
M  V30 4 C -1.042819 -2.402287 -3.313175 0
M  V30 5 O -1.868653 -1.615517 -2.737103 0
M  V30 6 N 0.113711 -1.839793 -3.870664 0
M  V30 7 C 0.328370 -0.438097 -3.781893 0
M  V30 8 C -0.207711 0.288643 -4.851739 0
M  V30 9 N -0.035543 1.620003 -4.829020 0
M  V30 10 C 0.628196 2.198270 -3.807480 0
M  V30 11 C 1.179361 1.537347 -2.725248 0
M  V30 12 C 1.864983 2.289108 -1.718769 0
M  V30 13 C 2.519001 3.430099 -2.201371 0
M  V30 14 N 3.219538 4.253242 -1.367707 0
M  V30 15 C 3.279142 3.959428 -0.064140 0
M  V30 16 N 3.872162 4.554257 0.965437 0
M  V30 17 N 3.639570 3.876417 2.047745 0
M  V30 18 C 2.881561 2.786585 1.835244 0
M  V30 19 C 2.464894 1.841319 2.846585 0
M  V30 20 C 1.731292 0.713449 2.913180 0
M  V30 21 C 1.656143 0.204538 4.191250 0
M  V30 22 C 1.055159 -0.888647 4.775916 0
M  V30 23 C 0.268765 -1.792718 3.948161 0
M  V30 24 C 0.575213 -3.132539 4.161090 0
M  V30 25 C -0.068481 -4.168829 3.483544 0
M  V30 26 F 0.238891 -5.471435 3.699326 0
M  V30 27 C -1.036532 -3.816257 2.579113 0
M  V30 28 C -1.341962 -2.482251 2.366966 0
M  V30 29 C -2.415481 -2.100297 1.378682 0
M  V30 30 N -3.703552 -2.029125 2.052925 0
M  V30 31 S -4.914771 -1.591907 0.907596 0
M  V30 32 C -4.519399 0.019869 0.246978 0
M  V30 33 O -5.027447 -2.583500 -0.187362 0
M  V30 34 O -6.275568 -1.505683 1.573042 0
M  V30 35 C -0.710565 -1.470430 3.030726 0
M  V30 36 C 1.147600 -1.173159 6.127604 0
M  V30 37 N 1.874327 -0.296317 6.840475 0
M  V30 38 C 2.468846 0.773402 6.300976 0
M  V30 39 C 2.392066 1.078104 4.958499 0
M  V30 40 N 2.842656 2.013288 4.135196 0
M  V30 41 C 2.666778 2.859780 0.495303 0
M  V30 42 C 1.969753 2.051278 -0.370683 0
M  V30 43 C 1.002869 0.171440 -2.747987 0
M  V30 44 H -3.620010 -3.358264 -3.237616 0
M  V30 45 H -2.796580 -2.963464 -1.733148 0
M  V30 46 H -3.180557 -4.743459 -2.122023 0
M  V30 47 H -0.819423 -4.457319 -2.726227 0
M  V30 48 H -2.258650 -3.556717 -5.230887 0
M  V30 49 H -2.660754 -5.116435 -4.479333 0
M  V30 50 H -0.941787 -4.796963 -5.112909 0
M  V30 51 H 0.718460 -2.593581 -4.318198 0
M  V30 52 H -0.738694 -0.178468 -5.668316 0
M  V30 53 H 0.694969 3.272359 -3.912712 0
M  V30 54 H 2.547494 3.775987 -3.227282 0
M  V30 55 H 4.453074 5.423429 1.014100 0
M  V30 56 H 1.251591 0.250480 2.070416 0
M  V30 57 H 1.330713 -3.477911 4.862847 0
M  V30 58 H -1.562344 -4.580819 2.030017 0
M  V30 59 H -2.395467 -2.914122 0.625625 0
M  V30 60 H -2.182209 -1.098599 0.977438 0
M  V30 61 H -3.909019 -3.026839 2.360615 0
M  V30 62 H -5.330346 0.728855 0.450778 0
M  V30 63 H -4.325306 -0.005162 -0.832672 0
M  V30 64 H -3.617686 0.436433 0.751781 0
M  V30 65 H -0.892509 -0.410111 2.920629 0
M  V30 66 H 0.708412 -1.998811 6.636002 0
M  V30 67 H 3.039454 1.442205 6.926690 0
M  V30 68 H 3.438664 2.774603 4.579083 0
M  V30 69 H 1.469387 1.178333 -0.001119 0
M  V30 70 H 1.404722 -0.413251 -1.938353 0
M  V30 END ATOM
M  V30 BEGIN BOND
M  V30 1 1 1 2
M  V30 2 1 2 3
M  V30 3 1 2 4
M  V30 4 2 4 5
M  V30 5 1 4 6
M  V30 6 1 6 7
M  V30 7 2 7 8
M  V30 8 1 8 9
M  V30 9 2 9 10
M  V30 10 1 10 11
M  V30 11 1 11 12
M  V30 12 2 12 13
M  V30 13 1 13 14
M  V30 14 2 14 15
M  V30 15 1 15 16
M  V30 16 1 16 17
M  V30 17 2 17 18
M  V30 18 1 18 19
M  V30 19 2 19 20
M  V30 20 1 20 21
M  V30 21 2 21 22
M  V30 22 1 22 23
M  V30 23 2 23 24
M  V30 24 1 24 25
M  V30 25 1 25 26
M  V30 26 2 25 27
M  V30 27 1 27 28
M  V30 28 1 28 29
M  V30 29 1 29 30
M  V30 30 1 30 31
M  V30 31 1 31 32
M  V30 32 2 31 33
M  V30 33 2 31 34
M  V30 34 2 28 35
M  V30 35 1 22 36
M  V30 36 2 36 37
M  V30 37 1 37 38
M  V30 38 2 38 39
M  V30 39 1 39 40
M  V30 40 1 18 41
M  V30 41 2 41 42
M  V30 42 2 11 43
M  V30 43 1 43 7
M  V30 44 1 42 12
M  V30 45 1 41 15
M  V30 46 1 40 19
M  V30 47 1 39 21
M  V30 48 1 35 23
M  V30 49 1 1 44
M  V30 50 1 1 45
M  V30 51 1 1 46
M  V30 52 1 2 47
M  V30 53 1 3 48
M  V30 54 1 3 49
M  V30 55 1 3 50
M  V30 56 1 6 51
M  V30 57 1 8 52
M  V30 58 1 10 53
M  V30 59 1 13 54
M  V30 60 1 16 55
M  V30 61 1 20 56
M  V30 62 1 24 57
M  V30 63 1 27 58
M  V30 64 1 29 59
M  V30 65 1 29 60
M  V30 66 1 30 61
M  V30 67 1 32 62
M  V30 68 1 32 63
M  V30 69 1 32 64
M  V30 70 1 35 65
M  V30 71 1 36 66
M  V30 72 1 38 67
M  V30 73 1 40 68
M  V30 74 1 42 69
M  V30 75 1 43 70
M  V30 END BOND
M  V30 END CTAB
M  END
>  <Dataset>  (661) 
ChEMBL_Kinases

>  <Ligand_Instance>  (661) 
nan

>  <PDB_ID>  (661) 
nan

>  <Standardized_SMILES>  (661) 
CC(C)C(=O)Nc1cncc(-c2cnc3[nH]nc(-c4cc5c(-c6cc(F)cc(CNS(C)(=O)=O)c6)cncc5[nH]4)c3c2)c1

>  <Name>  (661) 
nan

>  <Pocket>  (661) 
nan

>  <ATP_Site>  (661) 
nan

>  <Peripheral>  (661) 
nan

>  <Num_H_Atoms_ProtBoundConf>  (661) 
nan

>  <Num_Resolved_Atoms>  (661) 
nan

>  <Num_Not_Resolved_Atoms>  (661) 
nan

$$$$
CHEMBL4102376
     RDKit          3D

  0  0  0  0  0  0  0  0  0  0999 V3000
M  V30 BEGIN CTAB
M  V30 COUNTS 42 45 0 0 0
M  V30 BEGIN ATOM
M  V30 1 C 0.295842 -3.479761 3.064542 0
M  V30 2 N -0.847746 -3.360458 2.185741 0
M  V30 3 C -1.021687 -2.378135 1.257339 0
M  V30 4 C -0.138030 -1.259382 0.938086 0
M  V30 5 C 0.121971 -0.950074 -0.382295 0
M  V30 6 C 0.970158 0.123234 -0.695190 0
M  V30 7 C 1.567069 0.897763 0.279842 0
M  V30 8 N 2.418786 1.972015 -0.100788 0
M  V30 9 C 2.617280 2.128767 -1.546907 0
M  V30 10 C 3.686146 3.152039 -1.736545 0
M  V30 11 N 3.316169 4.379693 -1.078008 0
M  V30 12 C 3.161991 4.274360 0.324804 0
M  V30 13 C 3.053393 2.858147 0.835447 0
M  V30 14 C 1.275848 0.548467 1.583007 0
M  V30 15 C 0.447495 -0.499015 1.930829 0
M  V30 16 C -2.241521 -2.587986 0.597823 0
M  V30 17 C -2.817788 -3.728551 1.144636 0
M  V30 18 C -4.000192 -4.389803 0.882694 0
M  V30 19 Cl -5.110407 -3.817877 -0.346459 0
M  V30 20 C -4.240648 -5.522020 1.651792 0
M  V30 21 C -3.358768 -5.967492 2.620829 0
M  V30 22 N -2.204893 -5.277107 2.839301 0
M  V30 23 C -1.923971 -4.172869 2.120881 0
M  V30 24 H 1.264733 -3.284835 2.585949 0
M  V30 25 H 0.146614 -2.923808 4.022070 0
M  V30 26 H 0.337109 -4.553202 3.392311 0
M  V30 27 H -0.341774 -1.552198 -1.161296 0
M  V30 28 H 1.102220 0.274886 -1.757771 0
M  V30 29 H 1.684020 2.400586 -2.064127 0
M  V30 30 H 2.942362 1.125860 -1.927225 0
M  V30 31 H 3.832714 3.310527 -2.823478 0
M  V30 32 H 4.647524 2.743086 -1.351724 0
M  V30 33 H 3.870734 5.199874 -1.401754 0
M  V30 34 H 2.276236 4.885967 0.624952 0
M  V30 35 H 4.036958 4.739608 0.823769 0
M  V30 36 H 2.414534 2.910779 1.741347 0
M  V30 37 H 4.065904 2.508195 1.139043 0
M  V30 38 H 1.713566 1.116666 2.380759 0
M  V30 39 H 0.244925 -0.740001 2.954319 0
M  V30 40 H -2.666516 -1.985473 -0.188808 0
M  V30 41 H -5.167427 -6.059313 1.462184 0
M  V30 42 H -3.566044 -6.853703 3.209792 0
M  V30 END ATOM
M  V30 BEGIN BOND
M  V30 1 1 1 2
M  V30 2 1 2 3
M  V30 3 1 3 4
M  V30 4 2 4 5
M  V30 5 1 5 6
M  V30 6 2 6 7
M  V30 7 1 7 8
M  V30 8 1 8 9
M  V30 9 1 9 10
M  V30 10 1 10 11
M  V30 11 1 11 12
M  V30 12 1 12 13
M  V30 13 1 7 14
M  V30 14 2 14 15
M  V30 15 2 3 16
M  V30 16 1 16 17
M  V30 17 2 17 18
M  V30 18 1 18 19
M  V30 19 1 18 20
M  V30 20 2 20 21
M  V30 21 1 21 22
M  V30 22 2 22 23
M  V30 23 1 23 2
M  V30 24 1 15 4
M  V30 25 1 23 17
M  V30 26 1 13 8
M  V30 27 1 1 24
M  V30 28 1 1 25
M  V30 29 1 1 26
M  V30 30 1 5 27
M  V30 31 1 6 28
M  V30 32 1 9 29
M  V30 33 1 9 30
M  V30 34 1 10 31
M  V30 35 1 10 32
M  V30 36 1 11 33
M  V30 37 1 12 34
M  V30 38 1 12 35
M  V30 39 1 13 36
M  V30 40 1 13 37
M  V30 41 1 14 38
M  V30 42 1 15 39
M  V30 43 1 16 40
M  V30 44 1 20 41
M  V30 45 1 21 42
M  V30 END BOND
M  V30 END CTAB
M  END
>  <Dataset>  (662) 
ChEMBL_Kinases

>  <Ligand_Instance>  (662) 
nan

>  <PDB_ID>  (662) 
nan

>  <Standardized_SMILES>  (662) 
Cn1c(-c2ccc(N3CCNCC3)cc2)cc2c(Cl)ccnc21

>  <Name>  (662) 
nan

>  <Pocket>  (662) 
nan

>  <ATP_Site>  (662) 
nan

>  <Peripheral>  (662) 
nan

>  <Num_H_Atoms_ProtBoundConf>  (662) 
nan

>  <Num_Resolved_Atoms>  (662) 
nan

>  <Num_Not_Resolved_Atoms>  (662) 
nan

$$$$
CHEMBL4799760
     RDKit          3D

  0  0  0  0  0  0  0  0  0  0999 V3000
M  V30 BEGIN CTAB
M  V30 COUNTS 54 58 0 0 0
M  V30 BEGIN ATOM
M  V30 1 C 7.638105 -0.813950 7.662349 0
M  V30 2 C 6.804826 -0.764766 6.445981 0
M  V30 3 N 6.098782 -1.463494 5.858517 0
M  V30 4 N 5.425053 -1.265632 4.780466 0
M  V30 5 C 5.483579 -0.137837 4.188847 0
M  V30 6 C 4.957845 0.593266 3.002322 0
M  V30 7 C 5.325460 1.891796 2.748335 0
M  V30 8 C 4.750807 2.443119 1.599516 0
M  V30 9 C 3.880750 1.697460 0.806601 0
M  V30 10 C 3.346685 2.309496 -0.320818 0
M  V30 11 N 2.497503 1.602057 -1.106914 0
M  V30 12 C 2.178482 0.323520 -0.795633 0
M  V30 13 N 1.278607 -0.417879 -1.633840 0
M  V30 14 C -0.100295 -0.342517 -1.328686 0
M  V30 15 O -0.385653 0.387388 -0.328401 0
M  V30 16 C -1.140487 -1.032982 -2.078925 0
M  V30 17 C -0.845017 -1.827891 -3.166420 0
M  V30 18 C -1.900053 -2.439411 -3.810275 0
M  V30 19 N -3.156598 -2.272343 -3.402147 0
M  V30 20 C -3.483541 -1.505753 -2.347073 0
M  V30 21 C -4.882412 -1.370444 -1.958749 0
M  V30 22 C -5.339978 -0.651111 -0.946451 0
M  V30 23 C -6.825237 -0.629958 -0.694732 0
M  V30 24 N -7.266506 -2.011405 -0.649326 0
M  V30 25 C -6.747695 -2.692533 0.500819 0
M  V30 26 C -6.964135 -2.741588 -1.848119 0
M  V30 27 C -5.935074 -2.079536 -2.729931 0
M  V30 28 C -2.453509 -0.884438 -1.686634 0
M  V30 29 C 2.692613 -0.331864 0.329371 0
M  V30 30 C 3.555536 0.382620 1.130769 0
M  V30 31 C 4.110051 -0.208732 2.274900 0
M  V30 32 S 6.676825 0.791117 5.332460 0
M  V30 33 H 8.330602 -1.663887 7.535052 0
M  V30 34 H 7.052725 -0.881234 8.602348 0
M  V30 35 H 8.176505 0.163570 7.707036 0
M  V30 36 H 6.003636 2.427852 3.393441 0
M  V30 37 H 4.992500 3.463129 1.333027 0
M  V30 38 H 3.601683 3.334718 -0.571530 0
M  V30 39 H 1.596978 -0.994624 -2.438131 0
M  V30 40 H 0.166558 -1.971736 -3.507166 0
M  V30 41 H -1.675514 -3.064885 -4.664663 0
M  V30 42 H -4.616404 -0.112875 -0.349809 0
M  V30 43 H -7.007290 -0.182619 0.284333 0
M  V30 44 H -7.344695 -0.124758 -1.528902 0
M  V30 45 H -5.903877 -3.372884 0.201845 0
M  V30 46 H -7.527394 -3.380767 0.891882 0
M  V30 47 H -6.413608 -2.018967 1.309533 0
M  V30 48 H -7.887915 -2.874865 -2.468600 0
M  V30 49 H -6.669794 -3.770794 -1.558168 0
M  V30 50 H -6.388407 -1.331437 -3.413396 0
M  V30 51 H -5.490831 -2.869414 -3.394603 0
M  V30 52 H -2.653489 -0.267202 -0.846515 0
M  V30 53 H 2.424152 -1.353531 0.558874 0
M  V30 54 H 3.849517 -1.212019 2.504633 0
M  V30 END ATOM
M  V30 BEGIN BOND
M  V30 1 1 1 2
M  V30 2 2 2 3
M  V30 3 1 3 4
M  V30 4 2 4 5
M  V30 5 1 5 6
M  V30 6 2 6 7
M  V30 7 1 7 8
M  V30 8 2 8 9
M  V30 9 1 9 10
M  V30 10 2 10 11
M  V30 11 1 11 12
M  V30 12 1 12 13
M  V30 13 1 13 14
M  V30 14 2 14 15
M  V30 15 1 14 16
M  V30 16 2 16 17
M  V30 17 1 17 18
M  V30 18 2 18 19
M  V30 19 1 19 20
M  V30 20 1 20 21
M  V30 21 2 21 22
M  V30 22 1 22 23
M  V30 23 1 23 24
M  V30 24 1 24 25
M  V30 25 1 24 26
M  V30 26 1 26 27
M  V30 27 2 20 28
M  V30 28 2 12 29
M  V30 29 1 29 30
M  V30 30 2 30 31
M  V30 31 1 5 32
M  V30 32 1 32 2
M  V30 33 1 31 6
M  V30 34 1 30 9
M  V30 35 1 28 16
M  V30 36 1 27 21
M  V30 37 1 1 33
M  V30 38 1 1 34
M  V30 39 1 1 35
M  V30 40 1 7 36
M  V30 41 1 8 37
M  V30 42 1 10 38
M  V30 43 1 13 39
M  V30 44 1 17 40
M  V30 45 1 18 41
M  V30 46 1 22 42
M  V30 47 1 23 43
M  V30 48 1 23 44
M  V30 49 1 25 45
M  V30 50 1 25 46
M  V30 51 1 25 47
M  V30 52 1 26 48
M  V30 53 1 26 49
M  V30 54 1 27 50
M  V30 55 1 27 51
M  V30 56 1 28 52
M  V30 57 1 29 53
M  V30 58 1 31 54
M  V30 END BOND
M  V30 END CTAB
M  END
>  <Dataset>  (663) 
ChEMBL_Kinases

>  <Ligand_Instance>  (663) 
nan

>  <PDB_ID>  (663) 
nan

>  <Standardized_SMILES>  (663) 
Cc1nnc(-c2ccc3cnc(NC(=O)c4ccnc(C5=CCN(C)CC5)c4)cc3c2)s1

>  <Name>  (663) 
nan

>  <Pocket>  (663) 
nan

>  <ATP_Site>  (663) 
nan

>  <Peripheral>  (663) 
nan

>  <Num_H_Atoms_ProtBoundConf>  (663) 
nan

>  <Num_Resolved_Atoms>  (663) 
nan

>  <Num_Not_Resolved_Atoms>  (663) 
nan

$$$$
CHEMBL4459754
     RDKit          3D

  0  0  0  0  0  0  0  0  0  0999 V3000
M  V30 BEGIN CTAB
M  V30 COUNTS 59 62 0 0 0
M  V30 BEGIN ATOM
M  V30 1 C 3.108955 -1.997808 -2.009739 0
M  V30 2 C 3.588231 -2.275629 -0.584063 0
M  V30 3 C 5.088279 -2.092433 -0.603087 0
M  V30 4 C 2.932585 -1.396748 0.391589 0
M  V30 5 C 3.355886 -0.210214 0.940032 0
M  V30 6 N 2.388976 0.174474 1.787956 0
M  V30 7 N 1.384490 -0.645881 1.840825 0
M  V30 8 C 0.251139 -0.594422 2.565821 0
M  V30 9 N -0.124685 0.407909 3.469277 0
M  V30 10 C 0.294993 1.636100 4.014772 0
M  V30 11 C 0.422792 2.770849 3.045644 0
M  V30 12 C 1.562618 3.245843 2.434552 0
M  V30 13 C 1.572574 4.285206 1.536944 0
M  V30 14 C 0.401493 4.913715 1.202392 0
M  V30 15 C -0.775876 4.468657 1.794829 0
M  V30 16 C -0.775409 3.416467 2.701533 0
M  V30 17 C -0.598625 -1.681515 2.349289 0
M  V30 18 C -0.317407 -2.703933 1.485883 0
M  V30 19 N -1.245706 -3.795433 1.336844 0
M  V30 20 C -1.411394 -4.119887 -0.089360 0
M  V30 21 C -2.048821 -2.840861 -0.668068 0 CFG=2
M  V30 22 C -3.344653 -2.685171 0.090334 0
M  V30 23 C -4.288812 -1.683267 -0.492844 0
M  V30 24 N -3.797502 -1.032389 -1.689528 0
M  V30 25 C -3.349920 -2.022436 -2.638096 0
M  V30 26 C -2.260162 -2.918343 -2.141858 0 CFG=1
M  V30 27 O -1.098195 -2.586760 -2.848246 0
M  V30 28 N 0.842229 -2.635665 0.823896 0
M  V30 29 C 1.707301 -1.623781 0.980780 0
M  V30 30 H 1.999414 -2.014048 -1.979065 0
M  V30 31 H 3.383151 -2.844557 -2.685278 0
M  V30 32 H 3.440902 -1.026099 -2.394307 0
M  V30 33 H 3.325977 -3.344216 -0.379944 0
M  V30 34 H 5.399830 -1.431396 -1.457214 0
M  V30 35 H 5.512594 -1.652069 0.298296 0
M  V30 36 H 5.587779 -3.072371 -0.758598 0
M  V30 37 H 4.286127 0.300587 0.722412 0
M  V30 38 H -1.063641 0.218509 3.936563 0
M  V30 39 H 1.307815 1.549876 4.528175 0
M  V30 40 H -0.349139 2.020095 4.822331 0
M  V30 41 H 2.469454 2.752436 2.711909 0
M  V30 42 H 2.565430 4.541932 1.136431 0
M  V30 43 H 0.477358 5.724125 0.493102 0
M  V30 44 H -1.629421 5.037965 1.455011 0
M  V30 45 H -1.760925 3.186322 3.075552 0
M  V30 46 H -1.564754 -1.779460 2.871520 0
M  V30 47 H -1.754735 -4.315522 2.081798 0
M  V30 48 H -0.454372 -4.356031 -0.568534 0
M  V30 49 H -2.143373 -4.913333 -0.252943 0
M  V30 50 H -1.314643 -2.041767 -0.386945 0
M  V30 51 H -3.811442 -3.707784 0.123441 0
M  V30 52 H -3.115483 -2.471323 1.167326 0
M  V30 53 H -4.533967 -0.935931 0.301036 0
M  V30 54 H -5.239963 -2.222808 -0.779432 0
M  V30 55 H -3.160441 -0.247081 -1.527001 0
M  V30 56 H -4.233075 -2.644610 -2.916743 0
M  V30 57 H -3.057016 -1.479193 -3.572335 0
M  V30 58 H -2.472850 -3.997251 -2.384799 0
M  V30 59 H -0.893096 -1.626579 -2.700518 0
M  V30 END ATOM
M  V30 BEGIN BOND
M  V30 1 1 1 2
M  V30 2 1 2 3
M  V30 3 1 2 4
M  V30 4 1 4 5
M  V30 5 2 5 6
M  V30 6 1 6 7
M  V30 7 1 7 8
M  V30 8 1 8 9
M  V30 9 1 9 10
M  V30 10 1 10 11
M  V30 11 2 11 12
M  V30 12 1 12 13
M  V30 13 2 13 14
M  V30 14 1 14 15
M  V30 15 2 15 16
M  V30 16 2 8 17
M  V30 17 1 17 18
M  V30 18 1 18 19
M  V30 19 1 19 20
M  V30 20 1 20 21
M  V30 21 1 21 22
M  V30 22 1 22 23
M  V30 23 1 23 24
M  V30 24 1 24 25
M  V30 25 1 25 26
M  V30 26 1 26 27
M  V30 27 2 18 28
M  V30 28 1 28 29
M  V30 29 2 29 4
M  V30 30 1 29 7
M  V30 31 1 16 11
M  V30 32 1 26 21
M  V30 33 1 1 30
M  V30 34 1 1 31
M  V30 35 1 1 32
M  V30 36 1 2 33
M  V30 37 1 3 34
M  V30 38 1 3 35
M  V30 39 1 3 36
M  V30 40 1 5 37
M  V30 41 1 9 38
M  V30 42 1 10 39
M  V30 43 1 10 40
M  V30 44 1 12 41
M  V30 45 1 13 42
M  V30 46 1 14 43
M  V30 47 1 15 44
M  V30 48 1 16 45
M  V30 49 1 17 46
M  V30 50 1 19 47
M  V30 51 1 20 48
M  V30 52 1 20 49
M  V30 53 1 21 50 CFG=3
M  V30 54 1 22 51
M  V30 55 1 22 52
M  V30 56 1 23 53
M  V30 57 1 23 54
M  V30 58 1 24 55
M  V30 59 1 25 56
M  V30 60 1 25 57
M  V30 61 1 26 58 CFG=1
M  V30 62 1 27 59
M  V30 END BOND
M  V30 END CTAB
M  END
>  <Dataset>  (664) 
ChEMBL_Kinases

>  <Ligand_Instance>  (664) 
nan

>  <PDB_ID>  (664) 
nan

>  <Standardized_SMILES>  (664) 
CC(C)c1cnn2c(NCc3ccccc3)cc(NC[C@@H]3CCNC[C@H]3O)nc12

>  <Name>  (664) 
nan

>  <Pocket>  (664) 
nan

>  <ATP_Site>  (664) 
nan

>  <Peripheral>  (664) 
nan

>  <Num_H_Atoms_ProtBoundConf>  (664) 
nan

>  <Num_Resolved_Atoms>  (664) 
nan

>  <Num_Not_Resolved_Atoms>  (664) 
nan

$$$$
CHEMBL4459892
     RDKit          3D

  0  0  0  0  0  0  0  0  0  0999 V3000
M  V30 BEGIN CTAB
M  V30 COUNTS 81 85 0 0 0
M  V30 BEGIN ATOM
M  V30 1 C 5.865186 0.600272 3.270561 0
M  V30 2 C 6.464461 0.479050 1.894137 0
M  V30 3 C 5.504017 0.252755 0.803831 0 CFG=2
M  V30 4 C 6.274591 0.140587 -0.494425 0
M  V30 5 O 7.519450 0.348899 -0.692820 0
M  V30 6 N 5.496877 -0.250459 -1.642692 0
M  V30 7 C 6.078228 -0.975041 -2.779227 0
M  V30 8 C 4.111956 0.130973 -1.592193 0
M  V30 9 C 3.351811 -0.229086 -2.680174 0
M  V30 10 N 2.073424 0.109723 -2.674087 0
M  V30 11 C 1.485862 0.780748 -1.667560 0
M  V30 12 N 0.182086 1.277999 -1.398159 0
M  V30 13 C -0.966729 0.564681 -0.900824 0
M  V30 14 C -0.679535 -0.803643 -0.791127 0
M  V30 15 C -1.645252 -1.681657 -0.349213 0
M  V30 16 F -1.459594 -3.010059 -0.207339 0
M  V30 17 C -2.898012 -1.209791 -0.014379 0
M  V30 18 C -4.075269 -1.960776 0.446820 0
M  V30 19 O -5.095271 -1.411588 0.951028 0
M  V30 20 N -4.243167 -3.361171 0.398612 0
M  V30 21 C -5.414336 -4.023782 0.873268 0
M  V30 22 C -4.983446 -5.061894 1.884532 0
M  V30 23 C -5.618968 -6.411919 1.646099 0
M  V30 24 N -5.426544 -6.921629 0.314297 0
M  V30 25 C -6.473495 -7.901144 0.059416 0
M  V30 26 C -5.466118 -5.891549 -0.705446 0
M  V30 27 C -6.231524 -4.721243 -0.186376 0
M  V30 28 C -3.137613 0.138763 -0.136267 0
M  V30 29 C -2.233042 1.076612 -0.566848 0
M  V30 30 O -2.193965 2.402958 -0.777120 0
M  V30 31 C -3.228885 3.298115 -0.556865 0
M  V30 32 C -3.695182 3.436258 0.855415 0
M  V30 33 O -4.743211 4.379558 0.882907 0
M  V30 34 N 2.299556 1.081357 -0.667581 0
M  V30 35 C 3.580908 0.831929 -0.499901 0
M  V30 36 N 4.420186 1.203218 0.629480 0
M  V30 37 C 4.058814 2.392506 1.291576 0
M  V30 38 C 2.797604 3.099586 1.009335 0
M  V30 39 C 3.088928 4.022097 -0.132347 0
M  V30 40 C 4.590870 4.050706 -0.298119 0
M  V30 41 C 5.167189 3.412871 0.968091 0
M  V30 42 H 4.838518 0.190531 3.303949 0
M  V30 43 H 5.964223 1.625456 3.702072 0
M  V30 44 H 6.425602 -0.036142 4.020785 0
M  V30 45 H 7.262998 1.236994 1.717181 0
M  V30 46 H 7.083761 -0.482733 1.943960 0
M  V30 47 H 5.044546 -0.751536 0.968448 0
M  V30 48 H 7.096875 -1.272068 -2.456264 0
M  V30 49 H 5.459634 -1.886288 -2.921756 0
M  V30 50 H 6.198579 -0.356041 -3.671837 0
M  V30 51 H 3.708021 -0.762368 -3.534963 0
M  V30 52 H 0.076788 2.312574 -1.601693 0
M  V30 53 H 0.260472 -1.278483 -1.024227 0
M  V30 54 H -3.476819 -3.937629 -0.006863 0
M  V30 55 H -6.119644 -3.305902 1.389859 0
M  V30 56 H -3.871459 -5.242402 1.828212 0
M  V30 57 H -5.162419 -4.781040 2.927806 0
M  V30 58 H -6.671140 -6.466213 2.002387 0
M  V30 59 H -5.070542 -7.121070 2.321609 0
M  V30 60 H -6.900921 -7.705407 -0.943546 0
M  V30 61 H -7.324922 -7.793696 0.783321 0
M  V30 62 H -6.110686 -8.943535 0.064779 0
M  V30 63 H -5.934686 -6.288603 -1.646623 0
M  V30 64 H -4.418939 -5.620592 -0.943284 0
M  V30 65 H -6.673459 -4.056620 -0.928582 0
M  V30 66 H -7.120392 -5.143177 0.376001 0
M  V30 67 H -4.077517 0.592835 0.084532 0
M  V30 68 H -2.876475 4.296992 -0.906274 0
M  V30 69 H -4.097200 3.065694 -1.248510 0
M  V30 70 H -4.027973 2.517885 1.342125 0
M  V30 71 H -2.879820 3.909045 1.478493 0
M  V30 72 H -5.230849 4.252137 0.033783 0
M  V30 73 H 4.123339 2.236455 2.387218 0
M  V30 74 H 1.866954 2.553596 0.989962 0
M  V30 75 H 2.628079 3.818284 1.893997 0
M  V30 76 H 2.558852 3.807916 -1.071301 0
M  V30 77 H 2.815505 5.102508 0.080387 0
M  V30 78 H 5.023548 5.069054 -0.324218 0
M  V30 79 H 4.926347 3.492092 -1.195551 0
M  V30 80 H 6.097790 2.936112 0.641205 0
M  V30 81 H 5.243064 4.102659 1.806275 0
M  V30 END ATOM
M  V30 BEGIN BOND
M  V30 1 1 1 2
M  V30 2 1 2 3
M  V30 3 1 3 4
M  V30 4 2 4 5
M  V30 5 1 4 6
M  V30 6 1 6 7
M  V30 7 1 6 8
M  V30 8 2 8 9
M  V30 9 1 9 10
M  V30 10 2 10 11
M  V30 11 1 11 12
M  V30 12 1 12 13
M  V30 13 2 13 14
M  V30 14 1 14 15
M  V30 15 1 15 16
M  V30 16 2 15 17
M  V30 17 1 17 18
M  V30 18 2 18 19
M  V30 19 1 18 20
M  V30 20 1 20 21
M  V30 21 1 21 22
M  V30 22 1 22 23
M  V30 23 1 23 24
M  V30 24 1 24 25
M  V30 25 1 24 26
M  V30 26 1 26 27
M  V30 27 1 17 28
M  V30 28 2 28 29
M  V30 29 1 29 30
M  V30 30 1 30 31
M  V30 31 1 31 32
M  V30 32 1 32 33
M  V30 33 1 11 34
M  V30 34 2 34 35
M  V30 35 1 35 36
M  V30 36 1 36 37
M  V30 37 1 37 38
M  V30 38 1 38 39
M  V30 39 1 39 40
M  V30 40 1 40 41
M  V30 41 1 36 3
M  V30 42 1 41 37
M  V30 43 1 35 8
M  V30 44 1 29 13
M  V30 45 1 27 21
M  V30 46 1 1 42
M  V30 47 1 1 43
M  V30 48 1 1 44
M  V30 49 1 2 45
M  V30 50 1 2 46
M  V30 51 1 3 47 CFG=1
M  V30 52 1 7 48
M  V30 53 1 7 49
M  V30 54 1 7 50
M  V30 55 1 9 51
M  V30 56 1 12 52
M  V30 57 1 14 53
M  V30 58 1 20 54
M  V30 59 1 21 55
M  V30 60 1 22 56
M  V30 61 1 22 57
M  V30 62 1 23 58
M  V30 63 1 23 59
M  V30 64 1 25 60
M  V30 65 1 25 61
M  V30 66 1 25 62
M  V30 67 1 26 63
M  V30 68 1 26 64
M  V30 69 1 27 65
M  V30 70 1 27 66
M  V30 71 1 28 67
M  V30 72 1 31 68
M  V30 73 1 31 69
M  V30 74 1 32 70
M  V30 75 1 32 71
M  V30 76 1 33 72
M  V30 77 1 37 73
M  V30 78 1 38 74
M  V30 79 1 38 75
M  V30 80 1 39 76
M  V30 81 1 39 77
M  V30 82 1 40 78
M  V30 83 1 40 79
M  V30 84 1 41 80
M  V30 85 1 41 81
M  V30 END BOND
M  V30 END CTAB
M  END
>  <Dataset>  (665) 
ChEMBL_Kinases

>  <Ligand_Instance>  (665) 
nan

>  <PDB_ID>  (665) 
nan

>  <Standardized_SMILES>  (665) 
CC[C@@H]1C(=O)N(C)c2cnc(Nc3cc(F)c(C(=O)NC4CCN(C)CC4)cc3OCCO)nc2N1C1CCCC1

>  <Name>  (665) 
nan

>  <Pocket>  (665) 
nan

>  <ATP_Site>  (665) 
nan

>  <Peripheral>  (665) 
nan

>  <Num_H_Atoms_ProtBoundConf>  (665) 
nan

>  <Num_Resolved_Atoms>  (665) 
nan

>  <Num_Not_Resolved_Atoms>  (665) 
nan

$$$$
CHEMBL4460019
     RDKit          3D

  0  0  0  0  0  0  0  0  0  0999 V3000
M  V30 BEGIN CTAB
M  V30 COUNTS 58 63 0 0 0
M  V30 BEGIN ATOM
M  V30 1 C 5.466749 -2.209459 2.735230 0
M  V30 2 N 5.362964 -1.882350 1.332491 0
M  V30 3 C 6.250684 -2.548551 0.401679 0
M  V30 4 C 6.269698 -1.937004 -0.961556 0
M  V30 5 O 5.728166 -0.610663 -0.975102 0
M  V30 6 C 4.588780 -0.258915 -0.292347 0
M  V30 7 C 4.413080 -0.936975 0.917813 0
M  V30 8 C 3.307218 -0.666600 1.687701 0
M  V30 9 N 2.408363 0.246694 1.267085 0
M  V30 10 N 2.555155 0.900473 0.124346 0
M  V30 11 C 1.837785 1.849616 -0.543467 0
M  V30 12 C 0.590747 2.346157 0.035938 0
M  V30 13 C 0.568717 3.637073 0.542623 0
M  V30 14 C -0.610920 4.101974 1.089013 0
M  V30 15 C -1.742763 3.308380 1.133276 0
M  V30 16 C -2.904808 3.804079 1.686240 0
M  V30 17 C -3.985815 2.962347 1.696139 0
M  V30 18 N -3.928706 1.718085 1.196578 0
M  V30 19 C -2.835165 1.170146 0.644677 0
M  V30 20 N -2.834033 -0.142363 0.136095 0
M  V30 21 C -4.066427 -0.898153 0.226229 0
M  V30 22 C -3.911032 -2.264517 -0.347600 0
M  V30 23 F -3.553252 -2.104747 -1.676818 0
M  V30 24 C -5.208636 -3.041969 -0.264990 0
M  V30 25 C -5.053512 -4.429555 -0.789997 0
M  V30 26 N -3.689450 -4.816260 -1.011155 0
M  V30 27 C -2.860576 -4.502164 0.118560 0
M  V30 28 C -2.878548 -3.019477 0.455841 0
M  V30 29 C -1.753107 2.024689 0.639431 0
M  V30 30 C -0.563776 1.593660 0.103142 0
M  V30 31 N 2.488271 2.157977 -1.701422 0
M  V30 32 N 3.603706 1.412437 -1.764686 0
M  V30 33 C 3.626374 0.660469 -0.654461 0
M  V30 34 H 4.518687 -2.614830 3.143013 0
M  V30 35 H 5.773715 -1.295385 3.301297 0
M  V30 36 H 6.253328 -2.974862 2.925202 0
M  V30 37 H 5.879436 -3.611373 0.368391 0
M  V30 38 H 7.281359 -2.531973 0.790760 0
M  V30 39 H 7.275867 -1.891915 -1.431885 0
M  V30 40 H 5.644788 -2.587888 -1.635066 0
M  V30 41 H 3.156163 -1.185002 2.630715 0
M  V30 42 H 1.435462 4.282567 0.523312 0
M  V30 43 H -0.643890 5.122472 1.494308 0
M  V30 44 H -2.989817 4.799506 2.098147 0
M  V30 45 H -4.923748 3.330688 2.130219 0
M  V30 46 H -2.024227 -0.623842 -0.302256 0
M  V30 47 H -4.929268 -0.353901 -0.218997 0
M  V30 48 H -4.305827 -0.941097 1.326196 0
M  V30 49 H -6.018807 -2.539963 -0.811098 0
M  V30 50 H -5.467344 -3.111857 0.822963 0
M  V30 51 H -5.596214 -4.600409 -1.756124 0
M  V30 52 H -5.497582 -5.189133 -0.082185 0
M  V30 53 H -3.292353 -4.428514 -1.893516 0
M  V30 54 H -3.228852 -5.054113 0.998943 0
M  V30 55 H -1.821469 -4.831177 -0.139022 0
M  V30 56 H -3.079885 -2.845222 1.522789 0
M  V30 57 H -1.885990 -2.590665 0.207953 0
M  V30 58 H -0.454854 0.605507 -0.313320 0
M  V30 END ATOM
M  V30 BEGIN BOND
M  V30 1 1 1 2
M  V30 2 1 2 3
M  V30 3 1 3 4
M  V30 4 1 4 5
M  V30 5 1 5 6
M  V30 6 2 6 7
M  V30 7 1 7 8
M  V30 8 2 8 9
M  V30 9 1 9 10
M  V30 10 1 10 11
M  V30 11 1 11 12
M  V30 12 2 12 13
M  V30 13 1 13 14
M  V30 14 2 14 15
M  V30 15 1 15 16
M  V30 16 2 16 17
M  V30 17 1 17 18
M  V30 18 2 18 19
M  V30 19 1 19 20
M  V30 20 1 20 21
M  V30 21 1 21 22
M  V30 22 1 22 23
M  V30 23 1 22 24
M  V30 24 1 24 25
M  V30 25 1 25 26
M  V30 26 1 26 27
M  V30 27 1 27 28
M  V30 28 1 19 29
M  V30 29 2 29 30
M  V30 30 2 11 31
M  V30 31 1 31 32
M  V30 32 2 32 33
M  V30 33 1 7 2
M  V30 34 1 33 10
M  V30 35 1 33 6
M  V30 36 1 30 12
M  V30 37 1 29 15
M  V30 38 1 28 22
M  V30 39 1 1 34
M  V30 40 1 1 35
M  V30 41 1 1 36
M  V30 42 1 3 37
M  V30 43 1 3 38
M  V30 44 1 4 39
M  V30 45 1 4 40
M  V30 46 1 8 41
M  V30 47 1 13 42
M  V30 48 1 14 43
M  V30 49 1 16 44
M  V30 50 1 17 45
M  V30 51 1 20 46
M  V30 52 1 21 47
M  V30 53 1 21 48
M  V30 54 1 24 49
M  V30 55 1 24 50
M  V30 56 1 25 51
M  V30 57 1 25 52
M  V30 58 1 26 53
M  V30 59 1 27 54
M  V30 60 1 27 55
M  V30 61 1 28 56
M  V30 62 1 28 57
M  V30 63 1 30 58
M  V30 END BOND
M  V30 END CTAB
M  END
>  <Dataset>  (666) 
ChEMBL_Kinases

>  <Ligand_Instance>  (666) 
nan

>  <PDB_ID>  (666) 
nan

>  <Standardized_SMILES>  (666) 
CN1CCOc2c1cnn1c(-c3ccc4ccnc(NCC5(F)CCNCC5)c4c3)nnc21

>  <Name>  (666) 
nan

>  <Pocket>  (666) 
nan

>  <ATP_Site>  (666) 
nan

>  <Peripheral>  (666) 
nan

>  <Num_H_Atoms_ProtBoundConf>  (666) 
nan

>  <Num_Resolved_Atoms>  (666) 
nan

>  <Num_Not_Resolved_Atoms>  (666) 
nan

$$$$
CHEMBL2391133
     RDKit          3D

  0  0  0  0  0  0  0  0  0  0999 V3000
M  V30 BEGIN CTAB
M  V30 COUNTS 42 45 0 0 0
M  V30 BEGIN ATOM
M  V30 1 O 3.467122 -4.176104 2.498463 0
M  V30 2 N 3.469121 -3.576700 1.424781 0 CHG=1 VAL=4
M  V30 3 O 4.086376 -2.436038 1.874580 0 CHG=-1 VAL=1
M  V30 4 C 2.937218 -4.107564 0.225166 0
M  V30 5 C 2.960967 -5.484268 0.147662 0
M  V30 6 C 2.463965 -6.061547 -1.004217 0
M  V30 7 C 1.961688 -5.281262 -2.039691 0
M  V30 8 C 1.933737 -3.920445 -1.972208 0
M  V30 9 C 2.433227 -3.357898 -0.815538 0
M  V30 10 C 2.406984 -1.905452 -0.692640 0
M  V30 11 C 2.888609 -1.100505 -1.703247 0
M  V30 12 C 2.839703 0.289871 -1.556272 0
M  V30 13 C 2.315072 0.858980 -0.412021 0
M  V30 14 C 2.208682 2.308680 -0.138707 0
M  V30 15 S 0.646183 2.998355 -0.726967 0
M  V30 16 C -0.743004 2.336062 0.186995 0
M  V30 17 N -1.368944 1.207019 -0.226504 0
M  V30 18 N -2.354599 0.968135 0.651604 0
M  V30 19 C -2.327188 1.946111 1.592519 0
M  V30 20 C -3.220855 2.079602 2.736529 0
M  V30 21 C -3.025733 3.153686 3.578379 0
M  V30 22 C -3.867756 3.281576 4.658472 0
M  V30 23 N -4.866441 2.388033 4.905209 0
M  V30 24 C -4.999130 1.358065 4.036412 0
M  V30 25 C -4.210452 1.139507 2.926910 0
M  V30 26 O -1.334800 2.758836 1.276997 0
M  V30 27 C 1.829423 0.030504 0.606175 0
M  V30 28 C 1.875420 -1.360592 0.465170 0
M  V30 29 H 3.334568 -6.158780 0.908581 0
M  V30 30 H 2.452073 -7.142732 -1.132892 0
M  V30 31 H 1.581166 -5.785367 -2.927160 0
M  V30 32 H 1.547142 -3.294413 -2.765903 0
M  V30 33 H 3.303123 -1.512934 -2.605779 0
M  V30 34 H 3.201113 0.980354 -2.312718 0
M  V30 35 H 2.338025 2.513966 0.921896 0
M  V30 36 H 3.020002 2.818891 -0.702805 0
M  V30 37 H -2.260969 3.903246 3.454288 0
M  V30 38 H -3.757165 4.105136 5.347366 0
M  V30 39 H -5.799794 0.639089 4.231629 0
M  V30 40 H -4.373846 0.294174 2.275121 0
M  V30 41 H 1.405714 0.448780 1.527780 0
M  V30 42 H 1.469146 -1.936603 1.308300 0
M  V30 END ATOM
M  V30 BEGIN BOND
M  V30 1 2 1 2
M  V30 2 1 2 3
M  V30 3 1 2 4
M  V30 4 2 4 5
M  V30 5 1 5 6
M  V30 6 2 6 7
M  V30 7 1 7 8
M  V30 8 2 8 9
M  V30 9 1 9 10
M  V30 10 2 10 11
M  V30 11 1 11 12
M  V30 12 2 12 13
M  V30 13 1 13 14
M  V30 14 1 14 15
M  V30 15 1 15 16
M  V30 16 2 16 17
M  V30 17 1 17 18
M  V30 18 2 18 19
M  V30 19 1 19 20
M  V30 20 2 20 21
M  V30 21 1 21 22
M  V30 22 2 22 23
M  V30 23 1 23 24
M  V30 24 2 24 25
M  V30 25 1 19 26
M  V30 26 1 13 27
M  V30 27 2 27 28
M  V30 28 1 9 4
M  V30 29 1 28 10
M  V30 30 1 26 16
M  V30 31 1 25 20
M  V30 32 1 5 29
M  V30 33 1 6 30
M  V30 34 1 7 31
M  V30 35 1 8 32
M  V30 36 1 11 33
M  V30 37 1 12 34
M  V30 38 1 14 35
M  V30 39 1 14 36
M  V30 40 1 21 37
M  V30 41 1 22 38
M  V30 42 1 24 39
M  V30 43 1 25 40
M  V30 44 1 27 41
M  V30 45 1 28 42
M  V30 END BOND
M  V30 END CTAB
M  END
>  <Dataset>  (667) 
ChEMBL_Kinases

>  <Ligand_Instance>  (667) 
nan

>  <PDB_ID>  (667) 
nan

>  <Standardized_SMILES>  (667) 
O=[N+]([O-])c1ccccc1-c1ccc(CSc2nnc(-c3ccncc3)o2)cc1

>  <Name>  (667) 
nan

>  <Pocket>  (667) 
nan

>  <ATP_Site>  (667) 
nan

>  <Peripheral>  (667) 
nan

>  <Num_H_Atoms_ProtBoundConf>  (667) 
nan

>  <Num_Resolved_Atoms>  (667) 
nan

>  <Num_Not_Resolved_Atoms>  (667) 
nan

$$$$
CHEMBL4743500
     RDKit          3D

  0  0  0  0  0  0  0  0  0  0999 V3000
M  V30 BEGIN CTAB
M  V30 COUNTS 52 56 0 0 0
M  V30 BEGIN ATOM
M  V30 1 O -1.335689 -0.572639 0.838102 0
M  V30 2 C -2.409226 -0.259078 1.410647 0
M  V30 3 N -2.294449 0.969777 2.129977 0
M  V30 4 C -0.953880 1.480066 1.972643 0
M  V30 5 C -0.751184 2.320609 0.893004 0
M  V30 6 C 0.539326 2.800157 0.757560 0
M  V30 7 C 1.543233 2.453212 1.648009 0
M  V30 8 C 2.860657 3.051263 1.359683 0
M  V30 9 N 3.683517 2.261210 0.503937 0
M  V30 10 C 4.006588 0.959314 0.984519 0
M  V30 11 C 4.989045 1.170299 2.087278 0
M  V30 12 C 5.778611 2.356538 1.573551 0
M  V30 13 C 4.983533 2.901362 0.409011 0
M  V30 14 C 1.268840 1.607003 2.706166 0
M  V30 15 C 0.000527 1.096426 2.893604 0
M  V30 16 C -3.643191 -1.041140 1.362350 0
M  V30 17 N -4.860819 -0.829381 1.922514 0
M  V30 18 N -5.671075 -1.840038 1.583670 0
M  V30 19 C -4.994009 -2.707596 0.808850 0
M  V30 20 C -5.388154 -3.893118 0.215259 0
M  V30 21 C -4.470380 -4.592306 -0.540366 0
M  V30 22 C -3.177106 -4.161542 -0.730163 0
M  V30 23 C -2.156022 -4.841149 -1.510087 0
M  V30 24 C -2.387368 -6.032063 -2.164355 0
M  V30 25 N -1.460899 -6.690317 -2.897721 0
M  V30 26 C -0.226630 -6.169993 -3.011397 0
M  V30 27 C 0.027035 -4.978018 -2.364343 0
M  V30 28 N -0.921808 -4.355267 -1.645021 0
M  V30 29 C -2.843884 -2.973523 -0.113547 0
M  V30 30 C -3.710575 -2.225226 0.654411 0
M  V30 31 H -3.141138 1.338507 2.656611 0
M  V30 32 H -1.560943 2.566437 0.221824 0
M  V30 33 H 0.705157 3.468873 -0.099505 0
M  V30 34 H 3.370067 3.257239 2.341812 0
M  V30 35 H 2.760706 4.054295 0.893552 0
M  V30 36 H 3.130537 0.351396 1.276192 0
M  V30 37 H 4.507091 0.406413 0.176537 0
M  V30 38 H 4.453095 1.391918 3.019705 0
M  V30 39 H 5.649015 0.261854 2.192283 0
M  V30 40 H 6.754625 1.995839 1.184108 0
M  V30 41 H 5.875808 3.050122 2.414004 0
M  V30 42 H 4.880549 4.001697 0.519087 0
M  V30 43 H 5.477537 2.718956 -0.561574 0
M  V30 44 H 2.080153 1.361029 3.378197 0
M  V30 45 H -0.214188 0.442062 3.710827 0
M  V30 46 H -6.676424 -1.963900 1.861599 0
M  V30 47 H -6.388880 -4.295822 0.319249 0
M  V30 48 H -4.753407 -5.521764 -1.014894 0
M  V30 49 H -3.350190 -6.506526 -2.118034 0
M  V30 50 H 0.646276 -6.529407 -3.541230 0
M  V30 51 H 0.970307 -4.420944 -2.352710 0
M  V30 52 H -1.835978 -2.589657 -0.231695 0
M  V30 END ATOM
M  V30 BEGIN BOND
M  V30 1 2 1 2
M  V30 2 1 2 3
M  V30 3 1 3 4
M  V30 4 2 4 5
M  V30 5 1 5 6
M  V30 6 2 6 7
M  V30 7 1 7 8
M  V30 8 1 8 9
M  V30 9 1 9 10
M  V30 10 1 10 11
M  V30 11 1 11 12
M  V30 12 1 12 13
M  V30 13 1 7 14
M  V30 14 2 14 15
M  V30 15 1 2 16
M  V30 16 2 16 17
M  V30 17 1 17 18
M  V30 18 1 18 19
M  V30 19 2 19 20
M  V30 20 1 20 21
M  V30 21 2 21 22
M  V30 22 1 22 23
M  V30 23 2 23 24
M  V30 24 1 24 25
M  V30 25 2 25 26
M  V30 26 1 26 27
M  V30 27 2 27 28
M  V30 28 1 22 29
M  V30 29 2 29 30
M  V30 30 1 15 4
M  V30 31 1 30 16
M  V30 32 1 13 9
M  V30 33 1 30 19
M  V30 34 1 28 23
M  V30 35 1 3 31
M  V30 36 1 5 32
M  V30 37 1 6 33
M  V30 38 1 8 34
M  V30 39 1 8 35
M  V30 40 1 10 36
M  V30 41 1 10 37
M  V30 42 1 11 38
M  V30 43 1 11 39
M  V30 44 1 12 40
M  V30 45 1 12 41
M  V30 46 1 13 42
M  V30 47 1 13 43
M  V30 48 1 14 44
M  V30 49 1 15 45
M  V30 50 1 18 46
M  V30 51 1 20 47
M  V30 52 1 21 48
M  V30 53 1 24 49
M  V30 54 1 26 50
M  V30 55 1 27 51
M  V30 56 1 29 52
M  V30 END BOND
M  V30 END CTAB
M  END
>  <Dataset>  (668) 
ChEMBL_Kinases

>  <Ligand_Instance>  (668) 
nan

>  <PDB_ID>  (668) 
nan

>  <Standardized_SMILES>  (668) 
O=C(Nc1ccc(CN2CCCC2)cc1)c1n[nH]c2ccc(-c3cnccn3)cc12

>  <Name>  (668) 
nan

>  <Pocket>  (668) 
nan

>  <ATP_Site>  (668) 
nan

>  <Peripheral>  (668) 
nan

>  <Num_H_Atoms_ProtBoundConf>  (668) 
nan

>  <Num_Resolved_Atoms>  (668) 
nan

>  <Num_Not_Resolved_Atoms>  (668) 
nan

$$$$
CHEMBL4743240
     RDKit          3D

  0  0  0  0  0  0  0  0  0  0999 V3000
M  V30 BEGIN CTAB
M  V30 COUNTS 54 59 0 0 0
M  V30 BEGIN ATOM
M  V30 1 O 4.621538 2.529342 3.038561 0
M  V30 2 C 3.773847 1.895436 2.318589 0
M  V30 3 N 4.302752 0.662304 1.928138 0
M  V30 4 C 5.539423 0.041063 2.181556 0
M  V30 5 C 6.602529 0.509503 2.915352 0
M  V30 6 C 7.785542 -0.162558 3.118085 0
M  V30 7 C 7.912703 -1.406519 2.537151 0
M  V30 8 N 6.893942 -1.900002 1.811013 0
M  V30 9 C 5.749740 -1.221027 1.629820 0
M  V30 10 C 2.549368 2.606543 2.117317 0
M  V30 11 N 2.426034 3.825773 2.683925 0
M  V30 12 N 1.217084 4.329389 2.384085 0
M  V30 13 C 0.494881 3.493523 1.623738 0
M  V30 14 C -0.759420 3.519812 1.059193 0
M  V30 15 C -1.167039 2.432431 0.315563 0
M  V30 16 C -0.305587 1.365277 0.167081 0
M  V30 17 C -0.719609 0.191788 -0.622790 0
M  V30 18 C 0.220381 -0.518449 -1.296143 0
M  V30 19 N -0.165366 -1.599889 -2.023262 0
M  V30 20 C -1.447466 -1.983353 -2.093162 0
M  V30 21 C -2.444811 -1.299567 -1.429771 0
M  V30 22 C -3.889180 -1.634487 -1.437219 0
M  V30 23 N -4.274380 -2.530140 -0.385986 0
M  V30 24 C -5.667807 -2.862991 -0.381325 0
M  V30 25 C -5.932308 -4.185078 -1.096366 0
M  V30 26 C -5.315593 -5.304933 -0.259966 0
M  V30 27 C -4.103219 -4.847183 -1.041267 0
M  V30 28 C -3.470866 -3.709960 -0.263757 0
M  V30 29 O -4.945322 -4.412465 -2.055207 0
M  V30 30 C -2.046357 -0.188463 -0.683041 0
M  V30 31 C 0.948529 1.345067 0.734626 0
M  V30 32 C 1.347430 2.431638 1.473800 0
M  V30 33 H 3.627653 0.134352 1.342280 0
M  V30 34 H 6.539934 1.459446 3.374835 0
M  V30 35 H 8.583964 0.259508 3.705390 0
M  V30 36 H 8.825640 -1.967364 2.671907 0
M  V30 37 H 5.045169 -1.771850 1.019888 0
M  V30 38 H 0.917962 5.280222 2.732332 0
M  V30 39 H -1.348427 4.395942 1.235609 0
M  V30 40 H -2.151944 2.442820 -0.133015 0
M  V30 41 H 1.278748 -0.295492 -1.306849 0
M  V30 42 H -1.757940 -2.844846 -2.671898 0
M  V30 43 H -4.530836 -0.744574 -1.396642 0
M  V30 44 H -4.092539 -2.158224 -2.398128 0
M  V30 45 H -6.308816 -2.063423 -0.824215 0
M  V30 46 H -6.014761 -2.992021 0.662372 0
M  V30 47 H -6.971205 -4.339381 -1.399308 0
M  V30 48 H -5.707648 -6.288181 -0.529462 0
M  V30 49 H -5.230096 -5.059700 0.820804 0
M  V30 50 H -3.433254 -5.688589 -1.268203 0
M  V30 51 H -2.407831 -3.567697 -0.470570 0
M  V30 52 H -3.514943 -4.023377 0.819761 0
M  V30 53 H -2.765578 0.390196 -0.142126 0
M  V30 54 H 1.576312 0.506958 0.595608 0
M  V30 END ATOM
M  V30 BEGIN BOND
M  V30 1 2 1 2
M  V30 2 1 2 3
M  V30 3 1 3 4
M  V30 4 2 4 5
M  V30 5 1 5 6
M  V30 6 2 6 7
M  V30 7 1 7 8
M  V30 8 2 8 9
M  V30 9 1 2 10
M  V30 10 2 10 11
M  V30 11 1 11 12
M  V30 12 1 12 13
M  V30 13 2 13 14
M  V30 14 1 14 15
M  V30 15 2 15 16
M  V30 16 1 16 17
M  V30 17 2 17 18
M  V30 18 1 18 19
M  V30 19 2 19 20
M  V30 20 1 20 21
M  V30 21 1 21 22
M  V30 22 1 22 23
M  V30 23 1 23 24
M  V30 24 1 24 25
M  V30 25 1 25 26
M  V30 26 1 26 27
M  V30 27 1 27 28
M  V30 28 1 27 29
M  V30 29 2 21 30
M  V30 30 1 16 31
M  V30 31 2 31 32
M  V30 32 1 9 4
M  V30 33 1 32 10
M  V30 34 1 32 13
M  V30 35 1 30 17
M  V30 36 1 28 23
M  V30 37 1 29 25
M  V30 38 1 3 33
M  V30 39 1 5 34
M  V30 40 1 6 35
M  V30 41 1 7 36
M  V30 42 1 9 37
M  V30 43 1 12 38
M  V30 44 1 14 39
M  V30 45 1 15 40
M  V30 46 1 18 41
M  V30 47 1 20 42
M  V30 48 1 22 43
M  V30 49 1 22 44
M  V30 50 1 24 45
M  V30 51 1 24 46
M  V30 52 1 25 47
M  V30 53 1 26 48
M  V30 54 1 26 49
M  V30 55 1 27 50
M  V30 56 1 28 51
M  V30 57 1 28 52
M  V30 58 1 30 53
M  V30 59 1 31 54
M  V30 END BOND
M  V30 END CTAB
M  END
>  <Dataset>  (669) 
ChEMBL_Kinases

>  <Ligand_Instance>  (669) 
nan

>  <PDB_ID>  (669) 
nan

>  <Standardized_SMILES>  (669) 
O=C(Nc1cccnc1)c1n[nH]c2ccc(-c3cncc(CN4CC5CC(C4)O5)c3)cc12

>  <Name>  (669) 
nan

>  <Pocket>  (669) 
nan

>  <ATP_Site>  (669) 
nan

>  <Peripheral>  (669) 
nan

>  <Num_H_Atoms_ProtBoundConf>  (669) 
nan

>  <Num_Resolved_Atoms>  (669) 
nan

>  <Num_Not_Resolved_Atoms>  (669) 
nan

$$$$
CHEMBL4743234
     RDKit          3D

  0  0  0  0  0  0  0  0  0  0999 V3000
M  V30 BEGIN CTAB
M  V30 COUNTS 59 64 0 0 0
M  V30 BEGIN ATOM
M  V30 1 C 4.288935 -1.152150 6.129042 0
M  V30 2 C 4.832526 -1.699880 4.803904 0
M  V30 3 C 4.061822 -2.930353 4.469590 0
M  V30 4 C 4.703366 -0.635898 3.772072 0
M  V30 5 O 4.192214 0.433419 4.216778 0
M  V30 6 N 5.126309 -0.853514 2.442321 0
M  V30 7 C 4.904189 0.312094 1.624867 0
M  V30 8 C 5.957807 1.202222 1.593932 0
M  V30 9 N 5.759355 2.301479 0.828443 0
M  V30 10 C 4.596469 2.503546 0.141443 0
M  V30 11 C 3.552608 1.614546 0.176468 0
M  V30 12 C 2.356750 1.929390 -0.594778 0
M  V30 13 C 1.238436 1.129495 -0.649573 0
M  V30 14 C 0.122815 1.453779 -1.387150 0
M  V30 15 C -1.070551 0.795774 -1.564375 0
M  V30 16 C -1.572953 -0.456646 -1.045338 0
M  V30 17 C -2.843469 -0.917943 -1.378625 0
M  V30 18 C -3.122091 -2.123159 -0.780070 0
M  V30 19 C -4.201422 -2.978836 -0.779077 0
M  V30 20 C -5.393643 -2.662599 -1.555655 0
M  V30 21 C -5.561167 -2.235984 -2.841882 0
M  V30 22 C -6.813120 -2.001861 -3.337114 0
M  V30 23 C -7.958499 -2.176591 -2.590377 0
M  V30 24 C -7.809226 -2.613430 -1.269782 0
M  V30 25 F -8.941917 -2.777199 -0.559397 0
M  V30 26 C -6.528769 -2.854155 -0.759107 0
M  V30 27 C -4.104809 -4.132171 -0.028161 0
M  V30 28 N -3.005953 -4.433217 0.686325 0
M  V30 29 C -1.955358 -3.594206 0.681383 0
M  V30 30 C -1.998789 -2.428548 -0.051242 0
M  V30 31 N -1.134517 -1.422941 -0.245470 0
M  V30 32 N -1.723398 1.641751 -2.395085 0
M  V30 33 N -1.000806 2.698026 -2.688094 0
M  V30 34 C 0.191886 2.641586 -2.076489 0
M  V30 35 C 1.291104 3.465867 -2.045811 0
M  V30 36 N 2.360950 3.079167 -1.292420 0
M  V30 37 C 3.721369 0.484664 0.946168 0
M  V30 38 H 3.202153 -1.036006 6.086874 0
M  V30 39 H 4.584979 -1.801452 6.976305 0
M  V30 40 H 4.731916 -0.133643 6.309357 0
M  V30 41 H 5.897921 -1.951307 4.915803 0
M  V30 42 H 3.623497 -3.359504 5.393837 0
M  V30 43 H 4.659206 -3.738427 4.003373 0
M  V30 44 H 3.182756 -2.639358 3.842838 0
M  V30 45 H 5.531469 -1.807974 2.243595 0
M  V30 46 H 6.873245 1.031132 2.142018 0
M  V30 47 H 4.608255 3.443071 -0.424794 0
M  V30 48 H 1.279244 0.231906 -0.083628 0
M  V30 49 H -3.586577 -0.447873 -2.021220 0
M  V30 50 H -4.621739 -2.129021 -3.352507 0
M  V30 51 H -6.887680 -1.667635 -4.354673 0
M  V30 52 H -8.943644 -1.976984 -3.027697 0
M  V30 53 H -6.574027 -3.189777 0.284299 0
M  V30 54 H -4.971390 -4.807276 -0.034386 0
M  V30 55 H -1.069780 -3.816105 1.244474 0
M  V30 56 H -0.215544 -1.432390 0.204292 0
M  V30 57 H -1.367447 3.445481 -3.320379 0
M  V30 58 H 1.278732 4.387820 -2.612803 0
M  V30 59 H 2.934868 -0.225136 0.996903 0
M  V30 END ATOM
M  V30 BEGIN BOND
M  V30 1 1 1 2
M  V30 2 1 2 3
M  V30 3 1 2 4
M  V30 4 2 4 5
M  V30 5 1 4 6
M  V30 6 1 6 7
M  V30 7 2 7 8
M  V30 8 1 8 9
M  V30 9 2 9 10
M  V30 10 1 10 11
M  V30 11 1 11 12
M  V30 12 2 12 13
M  V30 13 1 13 14
M  V30 14 1 14 15
M  V30 15 1 15 16
M  V30 16 2 16 17
M  V30 17 1 17 18
M  V30 18 2 18 19
M  V30 19 1 19 20
M  V30 20 2 20 21
M  V30 21 1 21 22
M  V30 22 2 22 23
M  V30 23 1 23 24
M  V30 24 1 24 25
M  V30 25 2 24 26
M  V30 26 1 19 27
M  V30 27 2 27 28
M  V30 28 1 28 29
M  V30 29 2 29 30
M  V30 30 1 30 31
M  V30 31 2 15 32
M  V30 32 1 32 33
M  V30 33 1 33 34
M  V30 34 1 34 35
M  V30 35 2 35 36
M  V30 36 2 11 37
M  V30 37 1 37 7
M  V30 38 1 36 12
M  V30 39 2 34 14
M  V30 40 1 31 16
M  V30 41 1 30 18
M  V30 42 1 26 20
M  V30 43 1 1 38
M  V30 44 1 1 39
M  V30 45 1 1 40
M  V30 46 1 2 41
M  V30 47 1 3 42
M  V30 48 1 3 43
M  V30 49 1 3 44
M  V30 50 1 6 45
M  V30 51 1 8 46
M  V30 52 1 10 47
M  V30 53 1 13 48
M  V30 54 1 17 49
M  V30 55 1 21 50
M  V30 56 1 22 51
M  V30 57 1 23 52
M  V30 58 1 26 53
M  V30 59 1 27 54
M  V30 60 1 29 55
M  V30 61 1 31 56
M  V30 62 1 33 57
M  V30 63 1 35 58
M  V30 64 1 37 59
M  V30 END BOND
M  V30 END CTAB
M  END
>  <Dataset>  (670) 
ChEMBL_Kinases

>  <Ligand_Instance>  (670) 
nan

>  <PDB_ID>  (670) 
nan

>  <Standardized_SMILES>  (670) 
CC(C)C(=O)Nc1cncc(-c2cc3c(-c4cc5c(-c6cccc(F)c6)cncc5[nH]4)n[nH]c3cn2)c1

>  <Name>  (670) 
nan

>  <Pocket>  (670) 
nan

>  <ATP_Site>  (670) 
nan

>  <Peripheral>  (670) 
nan

>  <Num_H_Atoms_ProtBoundConf>  (670) 
nan

>  <Num_Resolved_Atoms>  (670) 
nan

>  <Num_Not_Resolved_Atoms>  (670) 
nan

$$$$
CHEMBL4743209
     RDKit          3D

  0  0  0  0  0  0  0  0  0  0999 V3000
M  V30 BEGIN CTAB
M  V30 COUNTS 62 68 0 0 0
M  V30 BEGIN ATOM
M  V30 1 C 7.242744 -0.355072 5.099065 0
M  V30 2 C 7.991215 0.538225 4.368496 0
M  V30 3 C 7.452405 1.146933 3.254228 0
M  V30 4 C 6.144085 0.901567 2.806595 0
M  V30 5 C 5.810437 1.681800 1.601645 0
M  V30 6 N 6.179987 1.012984 0.409764 0
M  V30 7 C 5.490145 -0.158271 0.030153 0
M  V30 8 C 4.071943 0.025823 -0.370727 0
M  V30 9 C 3.913667 0.313321 -1.738144 0
M  V30 10 N 2.714488 0.517897 -2.333790 0
M  V30 11 C 1.571169 0.454573 -1.623448 0
M  V30 12 C 1.677929 0.174743 -0.275837 0
M  V30 13 C 0.520906 0.071786 0.642197 0
M  V30 14 C 0.667835 0.432202 1.984703 0
M  V30 15 C -0.408407 0.337314 2.842811 0
M  V30 16 C -1.611059 -0.114961 2.346767 0
M  V30 17 N -2.814494 -0.317420 2.901076 0
M  V30 18 N -3.660316 -0.765076 2.007630 0
M  V30 19 C -3.097067 -0.898885 0.787974 0
M  V30 20 C -3.737116 -1.364222 -0.422769 0
M  V30 21 C -5.084507 -1.735230 -0.434104 0
M  V30 22 C -5.492443 -2.140931 -1.674594 0
M  V30 23 C -6.623115 -2.596569 -2.295007 0
M  V30 24 C -7.845150 -2.735408 -1.477301 0
M  V30 25 C -9.086489 -3.188955 -1.942394 0
M  V30 26 C -10.108050 -3.260182 -1.068290 0
M  V30 27 C -9.966596 -2.898041 0.276438 0
M  V30 28 S -8.138250 -2.397298 0.265674 0
M  V30 29 C -6.707673 -2.931737 -3.612465 0
M  V30 30 N -5.595512 -2.798709 -4.331835 0
M  V30 31 C -4.424291 -2.355842 -3.811946 0
M  V30 32 C -4.376429 -2.025882 -2.475130 0
M  V30 33 N -3.393592 -1.571992 -1.694042 0
M  V30 34 C -1.812189 -0.483080 1.035037 0
M  V30 35 C -0.712395 -0.372166 0.216942 0
M  V30 36 C 2.905924 -0.030829 0.314506 0
M  V30 37 C 5.446976 0.002879 3.574675 0
M  V30 38 C 5.975754 -0.603286 4.679669 0
M  V30 39 H 7.538802 -0.897303 5.983675 0
M  V30 40 H 8.997462 0.723595 4.716998 0
M  V30 41 H 8.149589 1.829346 2.770682 0
M  V30 42 H 4.712200 1.968755 1.616862 0
M  V30 43 H 6.319089 2.678121 1.593559 0
M  V30 44 H 6.650988 1.562057 -0.307217 0
M  V30 45 H 6.055063 -0.625965 -0.807653 0
M  V30 46 H 5.468611 -0.932855 0.829816 0
M  V30 47 H 4.737934 0.398830 -2.447362 0
M  V30 48 H 0.581548 0.607036 -2.033542 0
M  V30 49 H 1.605524 0.787683 2.383352 0
M  V30 50 H -0.366183 0.600287 3.898460 0
M  V30 51 H -3.115917 -0.165934 3.890823 0
M  V30 52 H -5.756596 -1.719103 0.409631 0
M  V30 53 H -9.274068 -3.485986 -2.963820 0
M  V30 54 H -11.128798 -3.575454 -1.210679 0
M  V30 55 H -10.468945 -2.823350 1.162398 0
M  V30 56 H -7.595130 -3.283325 -4.076022 0
M  V30 57 H -3.535872 -2.257966 -4.422853 0
M  V30 58 H -2.443041 -1.400494 -2.065427 0
M  V30 59 H -0.753141 -0.627781 -0.809038 0
M  V30 60 H 3.021826 -0.250367 1.345303 0
M  V30 61 H 4.448598 -0.154360 3.199519 0
M  V30 62 H 5.266808 -1.289709 5.162019 0
M  V30 END ATOM
M  V30 BEGIN BOND
M  V30 1 2 1 2
M  V30 2 1 2 3
M  V30 3 2 3 4
M  V30 4 1 4 5
M  V30 5 1 5 6
M  V30 6 1 6 7
M  V30 7 1 7 8
M  V30 8 2 8 9
M  V30 9 1 9 10
M  V30 10 2 10 11
M  V30 11 1 11 12
M  V30 12 1 12 13
M  V30 13 2 13 14
M  V30 14 1 14 15
M  V30 15 2 15 16
M  V30 16 1 16 17
M  V30 17 1 17 18
M  V30 18 2 18 19
M  V30 19 1 19 20
M  V30 20 2 20 21
M  V30 21 1 21 22
M  V30 22 2 22 23
M  V30 23 1 23 24
M  V30 24 2 24 25
M  V30 25 1 25 26
M  V30 26 2 26 27
M  V30 27 1 27 28
M  V30 28 1 23 29
M  V30 29 2 29 30
M  V30 30 1 30 31
M  V30 31 2 31 32
M  V30 32 1 32 33
M  V30 33 1 19 34
M  V30 34 2 34 35
M  V30 35 2 12 36
M  V30 36 1 4 37
M  V30 37 2 37 38
M  V30 38 1 38 1
M  V30 39 1 36 8
M  V30 40 1 35 13
M  V30 41 1 34 16
M  V30 42 1 33 20
M  V30 43 1 32 22
M  V30 44 1 28 24
M  V30 45 1 1 39
M  V30 46 1 2 40
M  V30 47 1 3 41
M  V30 48 1 5 42
M  V30 49 1 5 43
M  V30 50 1 6 44
M  V30 51 1 7 45
M  V30 52 1 7 46
M  V30 53 1 9 47
M  V30 54 1 11 48
M  V30 55 1 14 49
M  V30 56 1 15 50
M  V30 57 1 17 51
M  V30 58 1 21 52
M  V30 59 1 25 53
M  V30 60 1 26 54
M  V30 61 1 27 55
M  V30 62 1 29 56
M  V30 63 1 31 57
M  V30 64 1 33 58
M  V30 65 1 35 59
M  V30 66 1 36 60
M  V30 67 1 37 61
M  V30 68 1 38 62
M  V30 END BOND
M  V30 END CTAB
M  END
>  <Dataset>  (671) 
ChEMBL_Kinases

>  <Ligand_Instance>  (671) 
nan

>  <PDB_ID>  (671) 
nan

>  <Standardized_SMILES>  (671) 
c1ccc(CNCc2cncc(-c3ccc4[nH]nc(-c5cc6c(-c7cccs7)cncc6[nH]5)c4c3)c2)cc1

>  <Name>  (671) 
nan

>  <Pocket>  (671) 
nan

>  <ATP_Site>  (671) 
nan

>  <Peripheral>  (671) 
nan

>  <Num_H_Atoms_ProtBoundConf>  (671) 
nan

>  <Num_Resolved_Atoms>  (671) 
nan

>  <Num_Not_Resolved_Atoms>  (671) 
nan

$$$$
CHEMBL4743194
     RDKit          3D

  0  0  0  0  0  0  0  0  0  0999 V3000
M  V30 BEGIN CTAB
M  V30 COUNTS 64 69 0 0 0
M  V30 BEGIN ATOM
M  V30 1 C 4.898618 -2.730669 5.092939 0
M  V30 2 C 3.707144 -2.603487 4.156096 0
M  V30 3 C 2.776800 -3.780877 4.292009 0
M  V30 4 O 3.060293 -1.375340 4.224805 0
M  V30 5 C 3.039874 -0.375573 3.278982 0
M  V30 6 C 3.636840 -0.282742 2.035627 0
M  V30 7 C 3.389858 0.907996 1.340784 0
M  V30 8 C 2.591436 1.900977 1.904050 0
M  V30 9 N 2.527207 2.994362 0.956125 0
M  V30 10 C 1.408497 2.658436 0.149180 0
M  V30 11 O 0.884906 1.557093 0.542952 0
M  V30 12 C 0.866926 3.411040 -0.991008 0
M  V30 13 N 1.302051 4.591404 -1.523101 0
M  V30 14 N 0.522900 4.919038 -2.572332 0
M  V30 15 C -0.374118 3.927349 -2.658159 0
M  V30 16 C -1.395817 3.831794 -3.608836 0
M  V30 17 C -2.255182 2.726489 -3.568108 0
M  V30 18 C -2.116529 1.731887 -2.612923 0
M  V30 19 C -3.032831 0.599290 -2.616645 0
M  V30 20 C -4.361029 0.745311 -3.049288 0
M  V30 21 N -5.116503 -0.374066 -3.005432 0
M  V30 22 C -4.588140 -1.556050 -2.562766 0
M  V30 23 C -3.289506 -1.717208 -2.135872 0
M  V30 24 C -2.900617 -3.064804 -1.701217 0
M  V30 25 N -3.119236 -3.374369 -0.333653 0
M  V30 26 C -2.730629 -4.681543 0.080924 0
M  V30 27 C -1.898164 -4.622751 1.321101 0
M  V30 28 C -0.905458 -3.510867 1.201527 0
M  V30 29 C -2.083006 -2.730399 1.721621 0
M  V30 30 C -3.028875 -2.329896 0.612290 0
M  V30 31 O -2.544288 -3.907320 2.314339 0
M  V30 32 C -2.502361 -0.588096 -2.172123 0
M  V30 33 C -1.097317 1.912163 -1.734362 0
M  V30 34 C -0.221040 2.952024 -1.704756 0
M  V30 35 C 2.012101 1.772572 3.147497 0
M  V30 36 N 2.283121 0.605364 3.772825 0
M  V30 37 H 5.612153 -3.492733 4.666870 0
M  V30 38 H 4.623471 -3.114275 6.091426 0
M  V30 39 H 5.442318 -1.771882 5.103671 0
M  V30 40 H 4.168592 -2.661422 3.124588 0
M  V30 41 H 2.421126 -4.068089 3.291281 0
M  V30 42 H 3.296305 -4.674136 4.721781 0
M  V30 43 H 1.943571 -3.527612 4.985588 0
M  V30 44 H 4.215023 -1.147882 1.776378 0
M  V30 45 H 3.891804 0.900010 0.378790 0
M  V30 46 H 3.017834 3.882804 0.710615 0
M  V30 47 H 0.631890 5.770144 -3.158723 0
M  V30 48 H -1.534264 4.586550 -4.367864 0
M  V30 49 H -3.015590 2.693108 -4.305744 0
M  V30 50 H -4.734799 1.700430 -3.389561 0
M  V30 51 H -5.378043 -2.310170 -2.617916 0
M  V30 52 H -3.388942 -3.867272 -2.316011 0
M  V30 53 H -1.800194 -3.248496 -1.894334 0
M  V30 54 H -3.669826 -5.257248 0.292740 0
M  V30 55 H -2.223710 -5.258257 -0.735770 0
M  V30 56 H -1.496416 -5.594671 1.676669 0
M  V30 57 H -0.094755 -3.565467 1.956601 0
M  V30 58 H -0.597653 -3.302678 0.178880 0
M  V30 59 H -1.811146 -1.934006 2.436249 0
M  V30 60 H -2.634976 -1.372560 0.214675 0
M  V30 61 H -4.027413 -2.178798 1.110289 0
M  V30 62 H -1.481133 -0.703595 -1.839698 0
M  V30 63 H -0.946847 1.161141 -0.968247 0
M  V30 64 H 1.434162 2.633148 3.415402 0
M  V30 END ATOM
M  V30 BEGIN BOND
M  V30 1 1 1 2
M  V30 2 1 2 3
M  V30 3 1 2 4
M  V30 4 1 4 5
M  V30 5 2 5 6
M  V30 6 1 6 7
M  V30 7 2 7 8
M  V30 8 1 8 9
M  V30 9 1 9 10
M  V30 10 2 10 11
M  V30 11 1 10 12
M  V30 12 2 12 13
M  V30 13 1 13 14
M  V30 14 1 14 15
M  V30 15 2 15 16
M  V30 16 1 16 17
M  V30 17 2 17 18
M  V30 18 1 18 19
M  V30 19 2 19 20
M  V30 20 1 20 21
M  V30 21 2 21 22
M  V30 22 1 22 23
M  V30 23 1 23 24
M  V30 24 1 24 25
M  V30 25 1 25 26
M  V30 26 1 26 27
M  V30 27 1 27 28
M  V30 28 1 28 29
M  V30 29 1 29 30
M  V30 30 1 29 31
M  V30 31 2 23 32
M  V30 32 1 18 33
M  V30 33 2 33 34
M  V30 34 1 8 35
M  V30 35 2 35 36
M  V30 36 1 36 5
M  V30 37 1 34 12
M  V30 38 1 34 15
M  V30 39 1 32 19
M  V30 40 1 30 25
M  V30 41 1 31 27
M  V30 42 1 1 37
M  V30 43 1 1 38
M  V30 44 1 1 39
M  V30 45 1 2 40
M  V30 46 1 3 41
M  V30 47 1 3 42
M  V30 48 1 3 43
M  V30 49 1 6 44
M  V30 50 1 7 45
M  V30 51 1 9 46
M  V30 52 1 14 47
M  V30 53 1 16 48
M  V30 54 1 17 49
M  V30 55 1 20 50
M  V30 56 1 22 51
M  V30 57 1 24 52
M  V30 58 1 24 53
M  V30 59 1 26 54
M  V30 60 1 26 55
M  V30 61 1 27 56
M  V30 62 1 28 57
M  V30 63 1 28 58
M  V30 64 1 29 59
M  V30 65 1 30 60
M  V30 66 1 30 61
M  V30 67 1 32 62
M  V30 68 1 33 63
M  V30 69 1 35 64
M  V30 END BOND
M  V30 END CTAB
M  END
>  <Dataset>  (672) 
ChEMBL_Kinases

>  <Ligand_Instance>  (672) 
nan

>  <PDB_ID>  (672) 
nan

>  <Standardized_SMILES>  (672) 
CC(C)Oc1ccc(NC(=O)c2n[nH]c3ccc(-c4cncc(CN5CC6CC(C5)O6)c4)cc23)cn1

>  <Name>  (672) 
nan

>  <Pocket>  (672) 
nan

>  <ATP_Site>  (672) 
nan

>  <Peripheral>  (672) 
nan

>  <Num_H_Atoms_ProtBoundConf>  (672) 
nan

>  <Num_Resolved_Atoms>  (672) 
nan

>  <Num_Not_Resolved_Atoms>  (672) 
nan

$$$$
CHEMBL4743122
     RDKit          3D

  0  0  0  0  0  0  0  0  0  0999 V3000
M  V30 BEGIN CTAB
M  V30 COUNTS 46 51 0 0 0
M  V30 BEGIN ATOM
M  V30 1 O 3.019915 -3.684394 2.140663 0
M  V30 2 C 3.668184 -2.452125 2.073016 0
M  V30 3 C 4.998826 -2.475665 2.438280 0
M  V30 4 N 5.680904 -1.316475 2.394227 0
M  V30 5 C 5.088795 -0.171651 2.007696 0
M  V30 6 C 3.762198 -0.107326 1.635477 0
M  V30 7 C 3.078354 1.109983 1.209778 0
M  V30 8 C 3.698873 2.338764 1.135305 0
M  V30 9 C 3.078469 3.505610 0.736754 0
M  V30 10 C 1.744028 3.461538 0.383804 0
M  V30 11 N 0.863051 4.384623 -0.037247 0
M  V30 12 N -0.296135 3.768089 -0.229669 0
M  V30 13 C -0.169934 2.469290 0.061014 0
M  V30 14 C -1.258243 1.503946 -0.043343 0
M  V30 15 N -1.290124 0.190575 0.207407 0
M  V30 16 C -2.524089 -0.303357 -0.029508 0
M  V30 17 C -3.170335 -1.520890 0.035781 0
M  V30 18 C -2.394948 -2.672072 0.473337 0
M  V30 19 C -2.595122 -3.809098 -0.310837 0
M  V30 20 C -1.926743 -4.985528 -0.019752 0
M  V30 21 C -1.048423 -5.028316 1.066224 0
M  V30 22 C -0.874232 -3.887445 1.819481 0
M  V30 23 F -0.044066 -3.845863 2.884329 0
M  V30 24 C -1.529593 -2.701751 1.549118 0
M  V30 25 N -4.468231 -1.679572 -0.284690 0
M  V30 26 C -5.249731 -0.664119 -0.697076 0
M  V30 27 C -4.639523 0.570999 -0.775607 0
M  V30 28 C -3.305884 0.763861 -0.452196 0
M  V30 29 N -2.497668 1.838212 -0.445314 0
M  V30 30 C 1.140977 2.233856 0.462798 0
M  V30 31 N 1.771183 1.112192 0.855082 0
M  V30 32 C 3.029799 -1.275099 1.667585 0
M  V30 33 H 2.647191 -3.975731 3.057824 0
M  V30 34 H 5.517754 -3.368962 2.755315 0
M  V30 35 H 5.672571 0.738311 1.986218 0
M  V30 36 H 4.724822 2.439405 1.393482 0
M  V30 37 H 3.584110 4.454395 0.686436 0
M  V30 38 H 1.063102 5.390895 -0.181740 0
M  V30 39 H -3.254219 -3.873494 -1.170919 0
M  V30 40 H -2.040417 -5.895872 -0.588919 0
M  V30 41 H -0.498924 -5.933090 1.334741 0
M  V30 42 H -1.424265 -1.784762 2.110886 0
M  V30 43 H -6.292999 -0.773085 -0.958341 0
M  V30 44 H -5.253276 1.419251 -1.109503 0
M  V30 45 H -2.881647 2.784515 -0.736278 0
M  V30 46 H 1.983959 -1.339035 1.396779 0
M  V30 END ATOM
M  V30 BEGIN BOND
M  V30 1 1 1 2
M  V30 2 2 2 3
M  V30 3 1 3 4
M  V30 4 2 4 5
M  V30 5 1 5 6
M  V30 6 1 6 7
M  V30 7 2 7 8
M  V30 8 1 8 9
M  V30 9 2 9 10
M  V30 10 1 10 11
M  V30 11 1 11 12
M  V30 12 2 12 13
M  V30 13 1 13 14
M  V30 14 2 14 15
M  V30 15 1 15 16
M  V30 16 2 16 17
M  V30 17 1 17 18
M  V30 18 2 18 19
M  V30 19 1 19 20
M  V30 20 2 20 21
M  V30 21 1 21 22
M  V30 22 1 22 23
M  V30 23 2 22 24
M  V30 24 1 17 25
M  V30 25 2 25 26
M  V30 26 1 26 27
M  V30 27 2 27 28
M  V30 28 1 28 29
M  V30 29 1 13 30
M  V30 30 2 30 31
M  V30 31 2 6 32
M  V30 32 1 32 2
M  V30 33 1 31 7
M  V30 34 1 30 10
M  V30 35 1 29 14
M  V30 36 1 28 16
M  V30 37 1 24 18
M  V30 38 1 1 33
M  V30 39 1 3 34
M  V30 40 1 5 35
M  V30 41 1 8 36
M  V30 42 1 9 37
M  V30 43 1 11 38
M  V30 44 1 19 39
M  V30 45 1 20 40
M  V30 46 1 21 41
M  V30 47 1 24 42
M  V30 48 1 26 43
M  V30 49 1 27 44
M  V30 50 1 29 45
M  V30 51 1 32 46
M  V30 END BOND
M  V30 END CTAB
M  END
>  <Dataset>  (673) 
ChEMBL_Kinases

>  <Ligand_Instance>  (673) 
nan

>  <PDB_ID>  (673) 
nan

>  <Standardized_SMILES>  (673) 
Oc1cncc(-c2ccc3[nH]nc(-c4nc5c(-c6cccc(F)c6)nccc5[nH]4)c3n2)c1

>  <Name>  (673) 
nan

>  <Pocket>  (673) 
nan

>  <ATP_Site>  (673) 
nan

>  <Peripheral>  (673) 
nan

>  <Num_H_Atoms_ProtBoundConf>  (673) 
nan

>  <Num_Resolved_Atoms>  (673) 
nan

>  <Num_Not_Resolved_Atoms>  (673) 
nan

$$$$
CHEMBL4743111
     RDKit          3D

  0  0  0  0  0  0  0  0  0  0999 V3000
M  V30 BEGIN CTAB
M  V30 COUNTS 61 66 0 0 0
M  V30 BEGIN ATOM
M  V30 1 C 2.870477 -2.997334 4.387583 0
M  V30 2 C 4.083791 -2.104829 4.517857 0
M  V30 3 C 5.272651 -2.947224 4.864220 0
M  V30 4 C 3.844613 -1.038919 5.591655 0
M  V30 5 C 4.243052 -1.365376 3.225912 0
M  V30 6 O 4.218429 -0.097030 3.103235 0
M  V30 7 N 4.441947 -2.030897 1.982907 0
M  V30 8 C 4.564032 -1.083763 0.903766 0
M  V30 9 C 5.836473 -0.635628 0.612909 0
M  V30 10 N 5.903898 0.244115 -0.397889 0
M  V30 11 C 4.803316 0.666280 -1.087928 0
M  V30 12 C 3.535907 0.213538 -0.790792 0
M  V30 13 C 2.433265 0.734351 -1.595795 0
M  V30 14 C 1.115295 0.372915 -1.413674 0
M  V30 15 C 0.100008 0.877352 -2.183447 0
M  V30 16 C -1.252950 0.644232 -2.156713 0
M  V30 17 C -2.085922 -0.196671 -1.329445 0
M  V30 18 C -3.463011 -0.259476 -1.505602 0
M  V30 19 C -4.051793 -1.120675 -0.611135 0
M  V30 20 C -5.336049 -1.544685 -0.348094 0
M  V30 21 C -6.441707 -1.037294 -1.149741 0
M  V30 22 C -7.510239 -0.629824 -0.341330 0
M  V30 23 C -8.663732 -0.119476 -0.892555 0
M  V30 24 N -8.776129 -0.005528 -2.241910 0
M  V30 25 C -7.748041 -0.396793 -3.036548 0
M  V30 26 C -6.583476 -0.910509 -2.513699 0
M  V30 27 C -5.587436 -2.454243 0.667206 0
M  V30 28 N -4.550283 -2.912921 1.388494 0
M  V30 29 C -3.288164 -2.516871 1.153677 0
M  V30 30 C -3.021835 -1.617740 0.153405 0
M  V30 31 N -1.906750 -1.041391 -0.314898 0
M  V30 32 N -1.685768 1.444803 -3.165603 0
M  V30 33 N -0.694017 2.087585 -3.733737 0
M  V30 34 C 0.461516 1.777683 -3.164819 0
M  V30 35 C 1.771967 2.158561 -3.370890 0
M  V30 36 N 2.731624 1.616126 -2.566960 0
M  V30 37 C 3.421620 -0.682416 0.230347 0
M  V30 38 H 3.070784 -3.641941 3.491819 0
M  V30 39 H 2.747028 -3.645458 5.269541 0
M  V30 40 H 1.945247 -2.425138 4.212558 0
M  V30 41 H 5.774234 -2.609702 5.797661 0
M  V30 42 H 6.045928 -2.949450 4.050719 0
M  V30 43 H 5.003194 -4.014979 5.027668 0
M  V30 44 H 2.842966 -0.594978 5.497930 0
M  V30 45 H 4.607899 -0.237689 5.517494 0
M  V30 46 H 3.916732 -1.487609 6.593588 0
M  V30 47 H 4.479427 -3.088178 1.966315 0
M  V30 48 H 6.712503 -0.964010 1.153303 0
M  V30 49 H 5.028000 1.375170 -1.871588 0
M  V30 50 H 0.921738 -0.330195 -0.631329 0
M  V30 51 H -4.076365 0.267510 -2.226209 0
M  V30 52 H -7.554890 -0.664994 0.746059 0
M  V30 53 H -9.532242 0.217566 -0.354527 0
M  V30 54 H -7.742767 -0.345360 -4.119575 0
M  V30 55 H -5.716088 -1.250934 -3.046777 0
M  V30 56 H -6.614105 -2.761721 0.841233 0
M  V30 57 H -2.461772 -2.893053 1.740753 0
M  V30 58 H -0.990613 -1.261674 0.107167 0
M  V30 59 H -0.875818 2.742390 -4.527882 0
M  V30 60 H 1.979594 2.864861 -4.154528 0
M  V30 61 H 2.454989 -1.051077 0.484067 0
M  V30 END ATOM
M  V30 BEGIN BOND
M  V30 1 1 1 2
M  V30 2 1 2 3
M  V30 3 1 2 4
M  V30 4 1 2 5
M  V30 5 2 5 6
M  V30 6 1 5 7
M  V30 7 1 7 8
M  V30 8 2 8 9
M  V30 9 1 9 10
M  V30 10 2 10 11
M  V30 11 1 11 12
M  V30 12 1 12 13
M  V30 13 2 13 14
M  V30 14 1 14 15
M  V30 15 1 15 16
M  V30 16 1 16 17
M  V30 17 2 17 18
M  V30 18 1 18 19
M  V30 19 2 19 20
M  V30 20 1 20 21
M  V30 21 2 21 22
M  V30 22 1 22 23
M  V30 23 2 23 24
M  V30 24 1 24 25
M  V30 25 2 25 26
M  V30 26 1 20 27
M  V30 27 2 27 28
M  V30 28 1 28 29
M  V30 29 2 29 30
M  V30 30 1 30 31
M  V30 31 2 16 32
M  V30 32 1 32 33
M  V30 33 1 33 34
M  V30 34 1 34 35
M  V30 35 2 35 36
M  V30 36 2 12 37
M  V30 37 1 37 8
M  V30 38 1 36 13
M  V30 39 2 34 15
M  V30 40 1 31 17
M  V30 41 1 30 19
M  V30 42 1 26 21
M  V30 43 1 1 38
M  V30 44 1 1 39
M  V30 45 1 1 40
M  V30 46 1 3 41
M  V30 47 1 3 42
M  V30 48 1 3 43
M  V30 49 1 4 44
M  V30 50 1 4 45
M  V30 51 1 4 46
M  V30 52 1 7 47
M  V30 53 1 9 48
M  V30 54 1 11 49
M  V30 55 1 14 50
M  V30 56 1 18 51
M  V30 57 1 22 52
M  V30 58 1 23 53
M  V30 59 1 25 54
M  V30 60 1 26 55
M  V30 61 1 27 56
M  V30 62 1 29 57
M  V30 63 1 31 58
M  V30 64 1 33 59
M  V30 65 1 35 60
M  V30 66 1 37 61
M  V30 END BOND
M  V30 END CTAB
M  END
>  <Dataset>  (674) 
ChEMBL_Kinases

>  <Ligand_Instance>  (674) 
nan

>  <PDB_ID>  (674) 
nan

>  <Standardized_SMILES>  (674) 
CC(C)(C)C(=O)Nc1cncc(-c2cc3c(-c4cc5c(-c6ccncc6)cncc5[nH]4)n[nH]c3cn2)c1

>  <Name>  (674) 
nan

>  <Pocket>  (674) 
nan

>  <ATP_Site>  (674) 
nan

>  <Peripheral>  (674) 
nan

>  <Num_H_Atoms_ProtBoundConf>  (674) 
nan

>  <Num_Resolved_Atoms>  (674) 
nan

>  <Num_Not_Resolved_Atoms>  (674) 
nan

$$$$
CHEMBL4743076
     RDKit          3D

  0  0  0  0  0  0  0  0  0  0999 V3000
M  V30 BEGIN CTAB
M  V30 COUNTS 69 74 0 0 0
M  V30 BEGIN ATOM
M  V30 1 C -0.292589 -7.895842 3.256867 0
M  V30 2 C -1.628922 -7.147509 3.349114 0
M  V30 3 N -2.126678 -7.215520 4.694108 0
M  V30 4 C -3.399214 -6.528119 4.847496 0
M  V30 5 C -3.178200 -5.104163 4.480228 0
M  V30 6 C -2.798458 -4.181958 5.459061 0
M  V30 7 N -2.582193 -2.868030 5.191385 0
M  V30 8 C -2.733656 -2.405800 3.932631 0
M  V30 9 C -3.111238 -3.268571 2.902506 0
M  V30 10 C -3.281352 -2.781057 1.528685 0
M  V30 11 C -4.231751 -3.423568 0.738864 0
M  V30 12 C -4.441849 -3.010913 -0.568860 0
M  V30 13 C -3.682992 -1.960952 -1.034901 0
M  V30 14 N -3.632145 -1.327851 -2.216770 0
M  V30 15 N -2.741386 -0.361995 -2.220161 0
M  V30 16 C -2.141399 -0.297012 -1.024541 0
M  V30 17 C -1.104180 0.649928 -0.662154 0
M  V30 18 C -0.621989 1.602117 -1.561857 0
M  V30 19 C 0.356610 2.387312 -1.005703 0
M  V30 20 C 1.134723 3.434500 -1.447691 0
M  V30 21 C 0.988760 3.938186 -2.803813 0
M  V30 22 C -0.142021 4.259658 -3.520226 0
M  V30 23 C -0.033535 4.719971 -4.812747 0
M  V30 24 F -1.197561 5.013393 -5.445395 0
M  V30 25 C 1.177860 4.881917 -5.448230 0
M  V30 26 C 2.324955 4.569214 -4.757755 0
M  V30 27 C 3.679014 4.726321 -5.398625 0
M  V30 28 N 4.086963 3.532310 -6.070130 0
M  V30 29 S 5.646633 3.706695 -6.809998 0
M  V30 30 C 6.859349 4.039526 -5.562230 0
M  V30 31 O 5.595926 4.790180 -7.831825 0
M  V30 32 O 6.044236 2.449097 -7.517458 0
M  V30 33 C 2.220125 4.101154 -3.444638 0
M  V30 34 C 2.056792 4.020549 -0.611153 0
M  V30 35 N 2.175143 3.542084 0.646868 0
M  V30 36 C 1.429524 2.523140 1.102678 0
M  V30 37 C 0.501219 1.922833 0.281382 0
M  V30 38 N -0.369903 0.920049 0.417239 0
M  V30 39 C -2.744384 -1.300359 -0.308073 0
M  V30 40 C -2.563632 -1.737240 0.984082 0
M  V30 41 C -3.323085 -4.597070 3.208151 0
M  V30 42 H -0.470552 -8.870524 3.712605 0
M  V30 43 H -0.072587 -7.971042 2.169765 0
M  V30 44 H 0.502882 -7.326104 3.778811 0
M  V30 45 H -2.277621 -7.556881 2.577281 0
M  V30 46 H -1.367177 -6.089327 3.056215 0
M  V30 47 H -1.406274 -6.744436 5.295410 0
M  V30 48 H -3.828937 -6.654378 5.839893 0
M  V30 49 H -4.051646 -6.937225 4.036281 0
M  V30 50 H -2.680965 -4.572839 6.469812 0
M  V30 51 H -2.568210 -1.365572 3.691535 0
M  V30 52 H -4.848906 -4.252749 1.067501 0
M  V30 53 H -5.180484 -3.486180 -1.232630 0
M  V30 54 H -4.194204 -1.507658 -3.092284 0
M  V30 55 H -0.927806 1.763408 -2.586607 0
M  V30 56 H -1.049710 4.110347 -2.956667 0
M  V30 57 H 1.251064 5.241680 -6.457213 0
M  V30 58 H 4.444378 4.963603 -4.610623 0
M  V30 59 H 3.673158 5.547891 -6.138303 0
M  V30 60 H 4.070375 2.685114 -5.455748 0
M  V30 61 H 7.555109 3.191698 -5.444599 0
M  V30 62 H 7.438969 4.938215 -5.829123 0
M  V30 63 H 6.378296 4.211629 -4.564458 0
M  V30 64 H 3.179909 3.879804 -2.978889 0
M  V30 65 H 2.695386 4.850210 -0.912398 0
M  V30 66 H 1.536987 2.152653 2.113446 0
M  V30 67 H -0.429811 0.423812 1.315469 0
M  V30 68 H -1.853002 -1.285821 1.633803 0
M  V30 69 H -3.614529 -5.271937 2.419418 0
M  V30 END ATOM
M  V30 BEGIN BOND
M  V30 1 1 1 2
M  V30 2 1 2 3
M  V30 3 1 3 4
M  V30 4 1 4 5
M  V30 5 2 5 6
M  V30 6 1 6 7
M  V30 7 2 7 8
M  V30 8 1 8 9
M  V30 9 1 9 10
M  V30 10 2 10 11
M  V30 11 1 11 12
M  V30 12 2 12 13
M  V30 13 1 13 14
M  V30 14 1 14 15
M  V30 15 2 15 16
M  V30 16 1 16 17
M  V30 17 2 17 18
M  V30 18 1 18 19
M  V30 19 2 19 20
M  V30 20 1 20 21
M  V30 21 2 21 22
M  V30 22 1 22 23
M  V30 23 1 23 24
M  V30 24 2 23 25
M  V30 25 1 25 26
M  V30 26 1 26 27
M  V30 27 1 27 28
M  V30 28 1 28 29
M  V30 29 1 29 30
M  V30 30 2 29 31
M  V30 31 2 29 32
M  V30 32 2 26 33
M  V30 33 1 20 34
M  V30 34 2 34 35
M  V30 35 1 35 36
M  V30 36 2 36 37
M  V30 37 1 37 38
M  V30 38 1 16 39
M  V30 39 2 39 40
M  V30 40 2 9 41
M  V30 41 1 41 5
M  V30 42 1 40 10
M  V30 43 1 39 13
M  V30 44 1 38 17
M  V30 45 1 37 19
M  V30 46 1 33 21
M  V30 47 1 1 42
M  V30 48 1 1 43
M  V30 49 1 1 44
M  V30 50 1 2 45
M  V30 51 1 2 46
M  V30 52 1 3 47
M  V30 53 1 4 48
M  V30 54 1 4 49
M  V30 55 1 6 50
M  V30 56 1 8 51
M  V30 57 1 11 52
M  V30 58 1 12 53
M  V30 59 1 14 54
M  V30 60 1 18 55
M  V30 61 1 22 56
M  V30 62 1 25 57
M  V30 63 1 27 58
M  V30 64 1 27 59
M  V30 65 1 28 60
M  V30 66 1 30 61
M  V30 67 1 30 62
M  V30 68 1 30 63
M  V30 69 1 33 64
M  V30 70 1 34 65
M  V30 71 1 36 66
M  V30 72 1 38 67
M  V30 73 1 40 68
M  V30 74 1 41 69
M  V30 END BOND
M  V30 END CTAB
M  END
>  <Dataset>  (675) 
ChEMBL_Kinases

>  <Ligand_Instance>  (675) 
nan

>  <PDB_ID>  (675) 
nan

>  <Standardized_SMILES>  (675) 
CCNCc1cncc(-c2ccc3[nH]nc(-c4cc5c(-c6cc(F)cc(CNS(C)(=O)=O)c6)cncc5[nH]4)c3c2)c1

>  <Name>  (675) 
nan

>  <Pocket>  (675) 
nan

>  <ATP_Site>  (675) 
nan

>  <Peripheral>  (675) 
nan

>  <Num_H_Atoms_ProtBoundConf>  (675) 
nan

>  <Num_Resolved_Atoms>  (675) 
nan

>  <Num_Not_Resolved_Atoms>  (675) 
nan

$$$$
CHEMBL4743067
     RDKit          3D

  0  0  0  0  0  0  0  0  0  0999 V3000
M  V30 BEGIN CTAB
M  V30 COUNTS 57 62 0 0 0
M  V30 BEGIN ATOM
M  V30 1 C 2.168734 -1.705038 2.651278 0
M  V30 2 C 2.829707 -2.844245 1.961505 0
M  V30 3 N 4.153428 -2.589046 1.600567 0
M  V30 4 C 4.518212 -1.709697 0.579591 0
M  V30 5 C 4.100472 -0.318540 0.818704 0
M  V30 6 C 4.982366 0.451380 1.589458 0
M  V30 7 N 4.680598 1.752337 1.826628 0
M  V30 8 C 3.536599 2.222393 1.296653 0
M  V30 9 C 2.607764 1.522392 0.520052 0
M  V30 10 C 1.425535 2.222097 0.040110 0
M  V30 11 C 1.631691 3.574661 -0.210255 0
M  V30 12 N 0.604685 4.328400 -0.659599 0
M  V30 13 C -0.607424 3.768380 -0.861709 0
M  V30 14 N -1.789477 4.244289 -1.289775 0
M  V30 15 N -2.688339 3.274049 -1.313666 0
M  V30 16 C -2.143989 2.119914 -0.905212 0
M  V30 17 C -2.864975 0.859392 -0.814838 0
M  V30 18 N -2.468303 -0.366452 -0.435171 0
M  V30 19 C -3.499592 -1.231605 -0.519593 0
M  V30 20 C -3.744361 -2.565698 -0.289198 0
M  V30 21 C -2.634911 -3.380144 0.184535 0
M  V30 22 C -1.456247 -3.157905 -0.509044 0
M  V30 23 C -0.301924 -3.838801 -0.204859 0
M  V30 24 C -0.323500 -4.764164 0.816640 0
M  V30 25 C -1.475292 -5.001099 1.516458 0
M  V30 26 F -1.546215 -5.895510 2.522648 0
M  V30 27 C -2.631283 -4.313201 1.205086 0
M  V30 28 C -4.958706 -3.189993 -0.476454 0
M  V30 29 C -6.026426 -2.457714 -0.926149 0
M  V30 30 C -5.829496 -1.127719 -1.169162 0
M  V30 31 C -4.593309 -0.510901 -0.974027 0
M  V30 32 N -4.173971 0.755284 -1.143485 0
M  V30 33 C -0.832843 2.426460 -0.619274 0
M  V30 34 C 0.197321 1.632111 -0.159856 0
M  V30 35 C 2.933366 0.204161 0.291910 0
M  V30 36 H 1.303134 -1.265568 2.086731 0
M  V30 37 H 1.686521 -2.030624 3.632486 0
M  V30 38 H 2.847938 -0.881489 2.932558 0
M  V30 39 H 2.194016 -3.255888 1.130042 0
M  V30 40 H 2.847694 -3.694853 2.717986 0
M  V30 41 H 4.867002 -2.868754 2.290903 0
M  V30 42 H 5.647429 -1.711308 0.433345 0
M  V30 43 H 4.142561 -2.062105 -0.423128 0
M  V30 44 H 5.900745 0.052092 2.007246 0
M  V30 45 H 3.383767 3.284045 1.545248 0
M  V30 46 H 2.526558 4.149270 -0.098078 0
M  V30 47 H -2.020904 5.229058 -1.575699 0
M  V30 48 H -1.352570 -2.446172 -1.328422 0
M  V30 49 H 0.624547 -3.692509 -0.718619 0
M  V30 50 H 0.584502 -5.307002 1.063163 0
M  V30 51 H -3.599592 -4.425243 1.696695 0
M  V30 52 H -5.101868 -4.231153 -0.284120 0
M  V30 53 H -6.984570 -2.919525 -1.080190 0
M  V30 54 H -6.678914 -0.545730 -1.528003 0
M  V30 55 H -4.848458 1.498796 -1.490397 0
M  V30 56 H 0.054597 0.595794 0.036222 0
M  V30 57 H 2.257979 -0.375111 -0.295376 0
M  V30 END ATOM
M  V30 BEGIN BOND
M  V30 1 1 1 2
M  V30 2 1 2 3
M  V30 3 1 3 4
M  V30 4 1 4 5
M  V30 5 2 5 6
M  V30 6 1 6 7
M  V30 7 2 7 8
M  V30 8 1 8 9
M  V30 9 1 9 10
M  V30 10 2 10 11
M  V30 11 1 11 12
M  V30 12 2 12 13
M  V30 13 1 13 14
M  V30 14 1 14 15
M  V30 15 2 15 16
M  V30 16 1 16 17
M  V30 17 2 17 18
M  V30 18 1 18 19
M  V30 19 2 19 20
M  V30 20 1 20 21
M  V30 21 2 21 22
M  V30 22 1 22 23
M  V30 23 2 23 24
M  V30 24 1 24 25
M  V30 25 1 25 26
M  V30 26 2 25 27
M  V30 27 1 20 28
M  V30 28 2 28 29
M  V30 29 1 29 30
M  V30 30 2 30 31
M  V30 31 1 31 32
M  V30 32 1 16 33
M  V30 33 2 33 34
M  V30 34 2 9 35
M  V30 35 1 35 5
M  V30 36 1 34 10
M  V30 37 1 33 13
M  V30 38 1 32 17
M  V30 39 1 31 19
M  V30 40 1 27 21
M  V30 41 1 1 36
M  V30 42 1 1 37
M  V30 43 1 1 38
M  V30 44 1 2 39
M  V30 45 1 2 40
M  V30 46 1 3 41
M  V30 47 1 4 42
M  V30 48 1 4 43
M  V30 49 1 6 44
M  V30 50 1 8 45
M  V30 51 1 11 46
M  V30 52 1 14 47
M  V30 53 1 22 48
M  V30 54 1 23 49
M  V30 55 1 24 50
M  V30 56 1 27 51
M  V30 57 1 28 52
M  V30 58 1 29 53
M  V30 59 1 30 54
M  V30 60 1 32 55
M  V30 61 1 34 56
M  V30 62 1 35 57
M  V30 END BOND
M  V30 END CTAB
M  END
>  <Dataset>  (676) 
ChEMBL_Kinases

>  <Ligand_Instance>  (676) 
nan

>  <PDB_ID>  (676) 
nan

>  <Standardized_SMILES>  (676) 
CCNCc1cncc(-c2cnc3[nH]nc(-c4nc5c(-c6cccc(F)c6)cccc5[nH]4)c3c2)c1

>  <Name>  (676) 
nan

>  <Pocket>  (676) 
nan

>  <ATP_Site>  (676) 
nan

>  <Peripheral>  (676) 
nan

>  <Num_H_Atoms_ProtBoundConf>  (676) 
nan

>  <Num_Resolved_Atoms>  (676) 
nan

>  <Num_Not_Resolved_Atoms>  (676) 
nan

$$$$
CHEMBL4742982
     RDKit          3D

  0  0  0  0  0  0  0  0  0  0999 V3000
M  V30 BEGIN CTAB
M  V30 COUNTS 59 65 0 0 0
M  V30 BEGIN ATOM
M  V30 1 C 4.555333 -2.504826 0.133286 0
M  V30 2 C 3.221890 -2.686083 0.750687 0
M  V30 3 S 2.324993 -1.111790 0.255996 0
M  V30 4 C 3.668328 -0.415188 -0.639901 0
M  V30 5 C 3.774285 0.846227 -1.328531 0
M  V30 6 C 4.928741 1.210710 -1.971525 0
M  V30 7 C 5.089806 2.416009 -2.603052 0
M  V30 8 N 4.047378 3.250993 -2.568735 0
M  V30 9 C 2.898280 2.902275 -1.936165 0
M  V30 10 N 1.743241 3.599354 -1.786862 0
M  V30 11 C 0.821136 2.912295 -1.087942 0
M  V30 12 C -0.472253 3.485916 -0.767903 0
M  V30 13 N -0.847604 4.729256 -1.113082 0
M  V30 14 N -2.046854 5.025607 -0.713050 0
M  V30 15 C -2.467198 3.918189 -0.079188 0
M  V30 16 C -3.672744 3.636361 0.551047 0
M  V30 17 C -3.849844 2.395523 1.121214 0
M  V30 18 C -2.881905 1.398044 1.102034 0
M  V30 19 C -3.239733 0.119252 1.681869 0
M  V30 20 C -4.438860 -0.069090 2.316866 0
M  V30 21 N -4.862925 -1.233801 2.834908 0
M  V30 22 C -4.077948 -2.354342 2.751025 0
M  V30 23 C -2.838543 -2.215472 2.108901 0
M  V30 24 O -2.229553 -3.433738 2.131720 0
M  V30 25 C -1.015180 -3.831332 1.602628 0
M  V30 26 C -1.305095 -4.885506 0.535430 0
M  V30 27 C -1.241537 -6.291636 1.081227 0
M  V30 28 N 0.117572 -6.666296 1.436548 0
M  V30 29 C 0.800865 -5.442947 1.831615 0
M  V30 30 C -0.107479 -4.505786 2.605747 0
M  V30 31 C -2.448536 -1.002525 1.596014 0
M  V30 32 N -1.729211 1.710775 0.485500 0
M  V30 33 C -1.519851 2.917134 -0.083456 0
M  V30 34 C 1.435040 1.721845 -0.785076 0
M  V30 35 C 2.702281 1.679537 -1.283463 0
M  V30 36 C 4.680646 -1.329447 -0.545369 0
M  V30 37 H 5.261309 -3.303870 0.285164 0
M  V30 38 H 2.991123 -3.627698 1.350953 0
M  V30 39 H 5.788590 0.549456 -2.012677 0
M  V30 40 H 6.013087 2.670886 -3.100093 0
M  V30 41 H 1.661921 4.574712 -2.209362 0
M  V30 42 H -2.553423 5.925075 -0.860454 0
M  V30 43 H -4.423560 4.435579 0.555307 0
M  V30 44 H -4.852500 2.355063 1.567090 0
M  V30 45 H -5.166699 0.687711 2.472781 0
M  V30 46 H -4.510224 -3.260721 3.203991 0
M  V30 47 H -0.470854 -2.979772 1.166241 0
M  V30 48 H -2.346661 -4.728742 0.143897 0
M  V30 49 H -0.569174 -4.756398 -0.274219 0
M  V30 50 H -1.898417 -6.331770 1.974321 0
M  V30 51 H -1.647721 -6.944472 0.289469 0
M  V30 52 H 0.100157 -7.329093 2.243349 0
M  V30 53 H 1.071641 -4.919720 0.866488 0
M  V30 54 H 1.730943 -5.697907 2.342537 0
M  V30 55 H -0.673978 -5.161349 3.300006 0
M  V30 56 H 0.512016 -3.823633 3.185582 0
M  V30 57 H -1.498567 -0.986100 1.128489 0
M  V30 58 H 0.960860 0.933515 -0.224370 0
M  V30 59 H 5.672039 -1.191188 -1.005901 0
M  V30 END ATOM
M  V30 BEGIN BOND
M  V30 1 2 1 2
M  V30 2 1 2 3
M  V30 3 1 3 4
M  V30 4 1 4 5
M  V30 5 2 5 6
M  V30 6 1 6 7
M  V30 7 2 7 8
M  V30 8 1 8 9
M  V30 9 1 9 10
M  V30 10 1 10 11
M  V30 11 1 11 12
M  V30 12 2 12 13
M  V30 13 1 13 14
M  V30 14 1 14 15
M  V30 15 2 15 16
M  V30 16 1 16 17
M  V30 17 2 17 18
M  V30 18 1 18 19
M  V30 19 2 19 20
M  V30 20 1 20 21
M  V30 21 2 21 22
M  V30 22 1 22 23
M  V30 23 1 23 24
M  V30 24 1 24 25
M  V30 25 1 25 26
M  V30 26 1 26 27
M  V30 27 1 27 28
M  V30 28 1 28 29
M  V30 29 1 29 30
M  V30 30 2 23 31
M  V30 31 1 18 32
M  V30 32 2 32 33
M  V30 33 2 11 34
M  V30 34 1 34 35
M  V30 35 2 4 36
M  V30 36 1 36 1
M  V30 37 1 35 5
M  V30 38 2 35 9
M  V30 39 1 33 12
M  V30 40 1 33 15
M  V30 41 1 31 19
M  V30 42 1 30 25
M  V30 43 1 1 37
M  V30 44 1 2 38
M  V30 45 1 6 39
M  V30 46 1 7 40
M  V30 47 1 10 41
M  V30 48 1 14 42
M  V30 49 1 16 43
M  V30 50 1 17 44
M  V30 51 1 20 45
M  V30 52 1 22 46
M  V30 53 1 25 47
M  V30 54 1 26 48
M  V30 55 1 26 49
M  V30 56 1 27 50
M  V30 57 1 27 51
M  V30 58 1 28 52
M  V30 59 1 29 53
M  V30 60 1 29 54
M  V30 61 1 30 55
M  V30 62 1 30 56
M  V30 63 1 31 57
M  V30 64 1 34 58
M  V30 65 1 36 59
M  V30 END BOND
M  V30 END CTAB
M  END
>  <Dataset>  (677) 
ChEMBL_Kinases

>  <Ligand_Instance>  (677) 
nan

>  <PDB_ID>  (677) 
nan

>  <Standardized_SMILES>  (677) 
c1csc(-c2ccnc3[nH]c(-c4n[nH]c5ccc(-c6cncc(OC7CCNCC7)c6)nc45)cc23)c1

>  <Name>  (677) 
nan

>  <Pocket>  (677) 
nan

>  <ATP_Site>  (677) 
nan

>  <Peripheral>  (677) 
nan

>  <Num_H_Atoms_ProtBoundConf>  (677) 
nan

>  <Num_Resolved_Atoms>  (677) 
nan

>  <Num_Not_Resolved_Atoms>  (677) 
nan

$$$$
CHEMBL4764269
     RDKit          3D

  0  0  0  0  0  0  0  0  0  0999 V3000
M  V30 BEGIN CTAB
M  V30 COUNTS 82 88 0 0 0
M  V30 BEGIN ATOM
M  V30 1 C -1.725496 -5.348474 -0.771652 0
M  V30 2 N -0.795560 -4.298978 -0.423893 0
M  V30 3 C 0.467834 -4.480221 -1.112965 0
M  V30 4 C 1.263278 -3.206472 -0.899127 0
M  V30 5 N 1.214331 -2.776464 0.483423 0
M  V30 6 C 2.113615 -1.759382 0.929113 0
M  V30 7 C 2.104204 -1.311057 2.258634 0
M  V30 8 C 3.004135 -0.307945 2.647429 0
M  V30 9 C 3.899812 0.236467 1.714276 0
M  V30 10 C 4.692961 1.250488 2.394642 0
M  V30 11 O 5.488832 0.803279 3.292258 0
M  V30 12 N 4.462395 2.593179 1.961800 0
M  V30 13 C 3.535717 2.945367 0.915051 0
M  V30 14 C 2.757903 4.161973 1.342894 0
M  V30 15 N 2.739373 4.154467 2.785368 0
M  V30 16 C 1.658098 3.735329 3.597820 0
M  V30 17 C 0.719527 2.940252 2.985434 0
M  V30 18 C -0.401463 2.430220 3.593927 0
M  V30 19 C -1.391017 1.575279 2.942572 0
M  V30 20 O -2.385861 1.130304 3.568092 0
M  V30 21 N -1.297197 1.193632 1.578238 0
M  V30 22 C -2.242067 0.352999 0.905806 0
M  V30 23 C -2.117974 0.007797 -0.429208 0
M  V30 24 C -2.995066 -0.795065 -1.105392 0
M  V30 25 C -2.727160 -1.044376 -2.444450 0
M  V30 26 C -3.592187 -1.850641 -3.158837 0
M  V30 27 C -3.303474 -2.103401 -4.563259 0
M  V30 28 C -2.669332 -1.130794 -5.332736 0
M  V30 29 N -2.526595 -1.623017 -6.582987 0
M  V30 30 N -3.034010 -2.847675 -6.643930 0
M  V30 31 C -3.067767 -3.699230 -7.817772 0
M  V30 32 C -3.515210 -3.163276 -5.419334 0
M  V30 33 C -4.698521 -2.377861 -2.496331 0
M  V30 34 C -4.932044 -2.101383 -1.144081 0
M  V30 35 C -4.074300 -1.300172 -0.430809 0
M  V30 36 C -4.184350 -0.950405 0.889034 0
M  V30 37 N -3.319801 -0.165843 1.533535 0
M  V30 38 C -0.603304 2.745789 4.943343 0
M  V30 39 C 0.345300 3.543753 5.544564 0
M  V30 40 N 1.436458 4.019694 4.890404 0
M  V30 41 C 4.066598 4.631402 3.233763 0
M  V30 42 C 5.129164 3.773694 2.558993 0
M  V30 43 C 3.860258 -0.244257 0.428115 0
M  V30 44 N 2.998653 -1.203954 0.058114 0
M  V30 45 C 0.287988 -3.320006 1.490274 0
M  V30 46 C -0.495663 -4.472318 0.987455 0
M  V30 47 H -2.448712 -4.928124 -1.497723 0
M  V30 48 H -2.275982 -5.708327 0.147022 0
M  V30 49 H -1.225214 -6.221829 -1.237838 0
M  V30 50 H 0.239926 -4.655411 -2.171861 0
M  V30 51 H 0.993344 -5.356431 -0.687545 0
M  V30 52 H 2.336514 -3.335234 -1.153253 0
M  V30 53 H 0.793179 -2.464587 -1.600393 0
M  V30 54 H 1.388560 -1.767744 2.936812 0
M  V30 55 H 2.879416 -0.060737 3.713458 0
M  V30 56 H 4.028952 3.084238 -0.068015 0
M  V30 57 H 2.830079 2.063878 0.847782 0
M  V30 58 H 1.732921 4.088795 0.909232 0
M  V30 59 H 3.294561 5.035507 0.907367 0
M  V30 60 H 0.805577 2.658064 1.966462 0
M  V30 61 H -0.507287 1.520056 0.979277 0
M  V30 62 H -1.244149 0.423451 -0.955802 0
M  V30 63 H -1.865211 -0.628993 -2.949798 0
M  V30 64 H -2.312484 -0.143726 -5.101002 0
M  V30 65 H -3.992940 -3.567389 -8.391017 0
M  V30 66 H -2.196689 -3.386914 -8.454505 0
M  V30 67 H -2.907994 -4.761609 -7.537465 0
M  V30 68 H -3.998316 -4.065679 -5.078103 0
M  V30 69 H -5.383382 -3.011803 -3.045959 0
M  V30 70 H -5.781048 -2.499440 -0.617152 0
M  V30 71 H -5.036013 -1.345725 1.429748 0
M  V30 72 H -1.475297 2.368329 5.473102 0
M  V30 73 H 0.211747 3.802298 6.588058 0
M  V30 74 H 4.167139 5.659823 2.854561 0
M  V30 75 H 4.164660 4.644114 4.322563 0
M  V30 76 H 5.537049 4.339719 1.707253 0
M  V30 77 H 5.863961 3.476730 3.304400 0
M  V30 78 H 4.593557 0.258527 -0.170558 0
M  V30 79 H -0.323131 -2.474192 1.862874 0
M  V30 80 H 0.966469 -3.658816 2.328657 0
M  V30 81 H -1.402588 -4.576199 1.612116 0
M  V30 82 H 0.091427 -5.406480 1.123355 0
M  V30 END ATOM
M  V30 BEGIN BOND
M  V30 1 1 1 2
M  V30 2 1 2 3
M  V30 3 1 3 4
M  V30 4 1 4 5
M  V30 5 1 5 6
M  V30 6 2 6 7
M  V30 7 1 7 8
M  V30 8 2 8 9
M  V30 9 1 9 10
M  V30 10 2 10 11
M  V30 11 1 10 12
M  V30 12 1 12 13
M  V30 13 1 13 14
M  V30 14 1 14 15
M  V30 15 1 15 16
M  V30 16 2 16 17
M  V30 17 1 17 18
M  V30 18 1 18 19
M  V30 19 2 19 20
M  V30 20 1 19 21
M  V30 21 1 21 22
M  V30 22 2 22 23
M  V30 23 1 23 24
M  V30 24 2 24 25
M  V30 25 1 25 26
M  V30 26 1 26 27
M  V30 27 1 27 28
M  V30 28 2 28 29
M  V30 29 1 29 30
M  V30 30 1 30 31
M  V30 31 1 30 32
M  V30 32 2 26 33
M  V30 33 1 33 34
M  V30 34 2 34 35
M  V30 35 1 35 36
M  V30 36 2 36 37
M  V30 37 2 18 38
M  V30 38 1 38 39
M  V30 39 2 39 40
M  V30 40 1 15 41
M  V30 41 1 41 42
M  V30 42 1 9 43
M  V30 43 2 43 44
M  V30 44 1 5 45
M  V30 45 1 45 46
M  V30 46 1 46 2
M  V30 47 1 44 6
M  V30 48 1 42 12
M  V30 49 1 40 16
M  V30 50 1 37 22
M  V30 51 1 35 24
M  V30 52 2 32 27
M  V30 53 1 1 47
M  V30 54 1 1 48
M  V30 55 1 1 49
M  V30 56 1 3 50
M  V30 57 1 3 51
M  V30 58 1 4 52
M  V30 59 1 4 53
M  V30 60 1 7 54
M  V30 61 1 8 55
M  V30 62 1 13 56
M  V30 63 1 13 57
M  V30 64 1 14 58
M  V30 65 1 14 59
M  V30 66 1 17 60
M  V30 67 1 21 61
M  V30 68 1 23 62
M  V30 69 1 25 63
M  V30 70 1 28 64
M  V30 71 1 31 65
M  V30 72 1 31 66
M  V30 73 1 31 67
M  V30 74 1 32 68
M  V30 75 1 33 69
M  V30 76 1 34 70
M  V30 77 1 36 71
M  V30 78 1 38 72
M  V30 79 1 39 73
M  V30 80 1 41 74
M  V30 81 1 41 75
M  V30 82 1 42 76
M  V30 83 1 42 77
M  V30 84 1 43 78
M  V30 85 1 45 79
M  V30 86 1 45 80
M  V30 87 1 46 81
M  V30 88 1 46 82
M  V30 END BOND
M  V30 END CTAB
M  END
>  <Dataset>  (678) 
ChEMBL_Kinases

>  <Ligand_Instance>  (678) 
nan

>  <PDB_ID>  (678) 
nan

>  <Standardized_SMILES>  (678) 
CN1CCN(c2ccc(C(=O)N3CCN(c4cc(C(=O)Nc5cc6cc(-c7cnn(C)c7)ccc6cn5)ccn4)CC3)cn2)CC1

>  <Name>  (678) 
nan

>  <Pocket>  (678) 
nan

>  <ATP_Site>  (678) 
nan

>  <Peripheral>  (678) 
nan

>  <Num_H_Atoms_ProtBoundConf>  (678) 
nan

>  <Num_Resolved_Atoms>  (678) 
nan

>  <Num_Not_Resolved_Atoms>  (678) 
nan

$$$$
CHEMBL4742941
     RDKit          3D

  0  0  0  0  0  0  0  0  0  0999 V3000
M  V30 BEGIN CTAB
M  V30 COUNTS 44 49 0 0 0
M  V30 BEGIN ATOM
M  V30 1 C -0.317771 -1.037005 -4.444825 0
M  V30 2 C -0.705299 -2.212683 -3.839092 0
M  V30 3 N -0.099608 -2.613214 -2.722970 0
M  V30 4 C 0.885738 -1.889938 -2.174630 0
M  V30 5 C 1.316695 -0.706497 -2.733730 0
M  V30 6 C 2.356923 0.193312 -2.269081 0
M  V30 7 C 3.317543 0.675230 -3.148943 0
M  V30 8 N 4.277948 1.503779 -2.693037 0
M  V30 9 C 4.337568 1.884224 -1.398123 0
M  V30 10 C 3.412247 1.440409 -0.473404 0
M  V30 11 N 3.179318 1.611694 0.838474 0
M  V30 12 C 2.105862 0.934411 1.278138 0
M  V30 13 C 1.699900 0.997610 2.665773 0
M  V30 14 N 2.336111 1.713501 3.608925 0
M  V30 15 N 1.752097 1.589393 4.782657 0
M  V30 16 C 0.682993 0.777900 4.696033 0
M  V30 17 N -0.229559 0.335251 5.579067 0
M  V30 18 C -1.209763 -0.492949 5.177666 0
M  V30 19 C -1.272775 -0.881026 3.870075 0
M  V30 20 C -2.346209 -1.779594 3.459333 0
M  V30 21 C -3.554109 -1.655941 4.141052 0
M  V30 22 N -4.566195 -2.476898 3.780754 0
M  V30 23 C -4.407593 -3.391058 2.786506 0
M  V30 24 N -3.225106 -3.481198 2.150210 0
M  V30 25 C -2.164864 -2.712178 2.436025 0
M  V30 26 C -0.334068 -0.423342 2.970707 0
M  V30 27 C 0.671229 0.420952 3.363400 0
M  V30 28 C 1.664775 0.311585 0.142635 0
M  V30 29 C 2.437796 0.594230 -0.956926 0
M  V30 30 C 0.692492 -0.282261 -3.894572 0
M  V30 31 H -0.887712 -0.817960 -5.349370 0
M  V30 32 H -1.477862 -2.885828 -4.171140 0
M  V30 33 H 1.400553 -2.177649 -1.281346 0
M  V30 34 H 3.314440 0.397960 -4.207400 0
M  V30 35 H 5.115349 2.549451 -1.052648 0
M  V30 36 H 3.849009 2.238342 1.344190 0
M  V30 37 H 2.112994 2.077954 5.633759 0
M  V30 38 H -1.892947 -0.792194 5.961572 0
M  V30 39 H -3.682128 -0.928411 4.933077 0
M  V30 40 H -5.264969 -4.032881 2.535184 0
M  V30 41 H -1.213655 -2.788640 1.920530 0
M  V30 42 H -0.403273 -0.738104 1.962581 0
M  V30 43 H 0.806307 -0.330991 0.097959 0
M  V30 44 H 0.927463 0.610432 -4.427455 0
M  V30 END ATOM
M  V30 BEGIN BOND
M  V30 1 2 1 2
M  V30 2 1 2 3
M  V30 3 2 3 4
M  V30 4 1 4 5
M  V30 5 1 5 6
M  V30 6 2 6 7
M  V30 7 1 7 8
M  V30 8 2 8 9
M  V30 9 1 9 10
M  V30 10 1 10 11
M  V30 11 1 11 12
M  V30 12 1 12 13
M  V30 13 2 13 14
M  V30 14 1 14 15
M  V30 15 1 15 16
M  V30 16 2 16 17
M  V30 17 1 17 18
M  V30 18 2 18 19
M  V30 19 1 19 20
M  V30 20 2 20 21
M  V30 21 1 21 22
M  V30 22 2 22 23
M  V30 23 1 23 24
M  V30 24 2 24 25
M  V30 25 1 19 26
M  V30 26 2 26 27
M  V30 27 2 12 28
M  V30 28 1 28 29
M  V30 29 2 5 30
M  V30 30 1 30 1
M  V30 31 1 29 6
M  V30 32 2 29 10
M  V30 33 1 27 13
M  V30 34 1 27 16
M  V30 35 1 25 20
M  V30 36 1 1 31
M  V30 37 1 2 32
M  V30 38 1 4 33
M  V30 39 1 7 34
M  V30 40 1 9 35
M  V30 41 1 11 36
M  V30 42 1 15 37
M  V30 43 1 18 38
M  V30 44 1 21 39
M  V30 45 1 23 40
M  V30 46 1 25 41
M  V30 47 1 26 42
M  V30 48 1 28 43
M  V30 49 1 30 44
M  V30 END BOND
M  V30 END CTAB
M  END
>  <Dataset>  (679) 
ChEMBL_Kinases

>  <Ligand_Instance>  (679) 
nan

>  <PDB_ID>  (679) 
nan

>  <Standardized_SMILES>  (679) 
c1cncc(-c2cncc3[nH]c(-c4n[nH]c5ncc(-c6cncnc6)cc45)cc23)c1

>  <Name>  (679) 
nan

>  <Pocket>  (679) 
nan

>  <ATP_Site>  (679) 
nan

>  <Peripheral>  (679) 
nan

>  <Num_H_Atoms_ProtBoundConf>  (679) 
nan

>  <Num_Resolved_Atoms>  (679) 
nan

>  <Num_Not_Resolved_Atoms>  (679) 
nan

$$$$
CHEMBL4742870
     RDKit          3D

  0  0  0  0  0  0  0  0  0  0999 V3000
M  V30 BEGIN CTAB
M  V30 COUNTS 65 70 0 0 0
M  V30 BEGIN ATOM
M  V30 1 C 2.744751 2.108340 9.446138 0
M  V30 2 N 3.186559 1.428267 8.272383 0
M  V30 3 C 2.585419 0.177888 7.986504 0
M  V30 4 C 1.392967 0.188195 7.087579 0
M  V30 5 N 1.515766 1.316614 6.176031 0
M  V30 6 C 0.690736 1.244836 4.985891 0
M  V30 7 C -0.271176 0.232081 4.881792 0
M  V30 8 C -1.075152 0.138977 3.732581 0
M  V30 9 C -0.877277 1.072626 2.733430 0
M  V30 10 N -1.658522 1.000330 1.595460 0
M  V30 11 C -2.839689 1.460676 1.036175 0
M  V30 12 O -3.360036 2.220939 1.897957 0
M  V30 13 C -3.473714 1.225754 -0.226978 0
M  V30 14 N -4.554024 1.985665 -0.480376 0
M  V30 15 N -5.048251 1.657947 -1.677825 0
M  V30 16 C -4.341427 0.686669 -2.270290 0
M  V30 17 C -4.279372 -0.087746 -3.406673 0
M  V30 18 C -3.330789 -1.056654 -3.646110 0
M  V30 19 C -2.366495 -1.278239 -2.688814 0
M  V30 20 C -1.343155 -2.299960 -2.875275 0
M  V30 21 C -0.874422 -2.902241 -1.729282 0
M  V30 22 N 0.058020 -3.844331 -1.904273 0
M  V30 23 C 0.550072 -4.228705 -3.084476 0
M  V30 24 C 0.102134 -3.645829 -4.258835 0
M  V30 25 N 0.668245 -4.108958 -5.466926 0
M  V30 26 C 0.407314 -3.711857 -6.796759 0
M  V30 27 O -0.444202 -2.816472 -7.022676 0
M  V30 28 C 1.061413 -4.265909 -8.006110 0
M  V30 29 C 0.126616 -4.619193 -9.184150 0
M  V30 30 C 1.107081 -3.515333 -9.263519 0
M  V30 31 C -0.848451 -2.682398 -4.101617 0
M  V30 32 C -2.389932 -0.525881 -1.536621 0
M  V30 33 C -3.346087 0.427383 -1.330691 0
M  V30 34 C 0.072709 2.065835 2.847562 0
M  V30 35 N 0.813950 2.109533 3.965286 0
M  V30 36 C 2.323234 2.518951 6.254460 0
M  V30 37 C 3.490289 2.241921 7.143224 0
M  V30 38 H 1.815706 1.673875 9.873878 0
M  V30 39 H 3.522185 1.915498 10.243863 0
M  V30 40 H 2.685365 3.200991 9.371199 0
M  V30 41 H 3.312049 -0.556365 7.526431 0
M  V30 42 H 2.223835 -0.249266 8.969344 0
M  V30 43 H 0.426032 0.197561 7.641968 0
M  V30 44 H 1.345494 -0.752382 6.456769 0
M  V30 45 H -0.456574 -0.504057 5.631392 0
M  V30 46 H -1.820655 -0.655331 3.668037 0
M  V30 47 H -1.060427 0.365433 1.026873 0
M  V30 48 H -5.875886 2.060448 -2.162467 0
M  V30 49 H -5.076097 0.140349 -4.125475 0
M  V30 50 H -3.356524 -1.621834 -4.569458 0
M  V30 51 H -1.162793 -2.714977 -0.700398 0
M  V30 52 H 1.308528 -5.008513 -3.085043 0
M  V30 53 H 1.395359 -4.855289 -5.451548 0
M  V30 54 H 1.823218 -5.061394 -7.837557 0
M  V30 55 H -0.934407 -4.336594 -9.076088 0
M  V30 56 H 0.272735 -5.570299 -9.708346 0
M  V30 57 H 1.976504 -3.690497 -9.952683 0
M  V30 58 H 0.746997 -2.469015 -9.334379 0
M  V30 59 H -1.237838 -2.190476 -4.975870 0
M  V30 60 H -1.625012 -0.732714 -0.820415 0
M  V30 61 H 0.179903 2.760489 2.048002 0
M  V30 62 H 2.729531 2.702954 5.234265 0
M  V30 63 H 1.746848 3.419445 6.536722 0
M  V30 64 H 4.354996 1.787507 6.581945 0
M  V30 65 H 3.884763 3.216926 7.509650 0
M  V30 END ATOM
M  V30 BEGIN BOND
M  V30 1 1 1 2
M  V30 2 1 2 3
M  V30 3 1 3 4
M  V30 4 1 4 5
M  V30 5 1 5 6
M  V30 6 2 6 7
M  V30 7 1 7 8
M  V30 8 2 8 9
M  V30 9 1 9 10
M  V30 10 1 10 11
M  V30 11 2 11 12
M  V30 12 1 11 13
M  V30 13 2 13 14
M  V30 14 1 14 15
M  V30 15 1 15 16
M  V30 16 2 16 17
M  V30 17 1 17 18
M  V30 18 2 18 19
M  V30 19 1 19 20
M  V30 20 2 20 21
M  V30 21 1 21 22
M  V30 22 2 22 23
M  V30 23 1 23 24
M  V30 24 1 24 25
M  V30 25 1 25 26
M  V30 26 2 26 27
M  V30 27 1 26 28
M  V30 28 1 28 29
M  V30 29 1 29 30
M  V30 30 2 24 31
M  V30 31 1 19 32
M  V30 32 2 32 33
M  V30 33 1 9 34
M  V30 34 2 34 35
M  V30 35 1 5 36
M  V30 36 1 36 37
M  V30 37 1 37 2
M  V30 38 1 35 6
M  V30 39 1 33 13
M  V30 40 1 33 16
M  V30 41 1 31 20
M  V30 42 1 30 28
M  V30 43 1 1 38
M  V30 44 1 1 39
M  V30 45 1 1 40
M  V30 46 1 3 41
M  V30 47 1 3 42
M  V30 48 1 4 43
M  V30 49 1 4 44
M  V30 50 1 7 45
M  V30 51 1 8 46
M  V30 52 1 10 47
M  V30 53 1 15 48
M  V30 54 1 17 49
M  V30 55 1 18 50
M  V30 56 1 21 51
M  V30 57 1 23 52
M  V30 58 1 25 53
M  V30 59 1 28 54
M  V30 60 1 29 55
M  V30 61 1 29 56
M  V30 62 1 30 57
M  V30 63 1 30 58
M  V30 64 1 31 59
M  V30 65 1 32 60
M  V30 66 1 34 61
M  V30 67 1 36 62
M  V30 68 1 36 63
M  V30 69 1 37 64
M  V30 70 1 37 65
M  V30 END BOND
M  V30 END CTAB
M  END
>  <Dataset>  (680) 
ChEMBL_Kinases

>  <Ligand_Instance>  (680) 
nan

>  <PDB_ID>  (680) 
nan

>  <Standardized_SMILES>  (680) 
CN1CCN(c2ccc(NC(=O)c3n[nH]c4ccc(-c5cncc(NC(=O)C6CC6)c5)cc34)cn2)CC1

>  <Name>  (680) 
nan

>  <Pocket>  (680) 
nan

>  <ATP_Site>  (680) 
nan

>  <Peripheral>  (680) 
nan

>  <Num_H_Atoms_ProtBoundConf>  (680) 
nan

>  <Num_Resolved_Atoms>  (680) 
nan

>  <Num_Not_Resolved_Atoms>  (680) 
nan

$$$$
CHEMBL4742725
     RDKit          3D

  0  0  0  0  0  0  0  0  0  0999 V3000
M  V30 BEGIN CTAB
M  V30 COUNTS 74 78 0 0 0
M  V30 BEGIN ATOM
M  V30 1 C 2.438814 1.375010 8.507494 0
M  V30 2 N 1.907291 0.685915 7.374633 0
M  V30 3 C 1.450930 -0.661832 7.650804 0
M  V30 4 C 0.934275 1.448917 6.661197 0
M  V30 5 C 1.533736 2.641103 5.967563 0
M  V30 6 N 2.544101 2.315123 4.986651 0
M  V30 7 C 3.747984 1.773570 5.587201 0
M  V30 8 C 2.460411 2.478506 3.576461 0
M  V30 9 C 1.370432 2.992617 2.909567 0
M  V30 10 C 1.314927 3.147287 1.538193 0
M  V30 11 C 2.430420 2.757252 0.799971 0
M  V30 12 N 2.410414 2.908958 -0.638201 0
M  V30 13 C 1.886844 1.772999 -1.319080 0
M  V30 14 O 1.541315 0.849506 -0.504956 0
M  V30 15 C 1.764076 1.682087 -2.754572 0
M  V30 16 N 2.095908 2.580560 -3.694595 0
M  V30 17 N 1.819136 2.102908 -4.902375 0
M  V30 18 C 1.297843 0.876410 -4.780974 0
M  V30 19 C 0.838633 -0.067059 -5.666883 0
M  V30 20 C 0.326964 -1.304991 -5.287188 0
M  V30 21 C 0.284017 -1.587198 -3.949395 0
M  V30 22 C -0.216883 -2.825739 -3.312256 0
M  V30 23 C 0.321304 -3.288556 -2.128940 0
M  V30 24 N -0.228702 -4.423617 -1.650115 0
M  V30 25 C -1.230939 -5.044268 -2.297019 0
M  V30 26 C -1.805796 -4.609346 -3.498275 0
M  V30 27 C -2.907527 -5.415462 -4.080323 0
M  V30 28 N -4.157062 -4.934808 -3.622574 0
M  V30 29 C -4.305318 -4.899535 -2.224102 0
M  V30 30 C -5.579633 -4.151909 -1.834804 0
M  V30 31 C -5.389708 -2.700316 -2.158457 0
M  V30 32 C -4.753138 -2.574473 -3.515692 0
M  V30 33 C -4.705550 -3.838532 -4.304593 0
M  V30 34 C -1.241606 -3.433194 -4.002051 0
M  V30 35 C 0.744850 -0.645499 -3.019836 0
M  V30 36 C 1.256255 0.595147 -3.426254 0
M  V30 37 C 3.516166 2.243168 1.481032 0
M  V30 38 N 3.517629 2.113664 2.828044 0
M  V30 39 H 2.052605 0.893962 9.427371 0
M  V30 40 H 2.115871 2.430907 8.476579 0
M  V30 41 H 3.560099 1.424785 8.531233 0
M  V30 42 H 0.647883 -0.978142 6.948439 0
M  V30 43 H 1.152144 -0.746956 8.706904 0
M  V30 44 H 2.300059 -1.367807 7.490919 0
M  V30 45 H 0.217658 1.871165 7.422375 0
M  V30 46 H 0.307901 0.850297 5.991698 0
M  V30 47 H 0.676541 3.137764 5.448025 0
M  V30 48 H 1.928815 3.389861 6.689408 0
M  V30 49 H 4.126389 2.423093 6.404695 0
M  V30 50 H 4.564374 1.839069 4.804535 0
M  V30 51 H 3.693851 0.705034 5.828592 0
M  V30 52 H 0.504337 3.297821 3.451593 0
M  V30 53 H 0.435541 3.556019 1.059187 0
M  V30 54 H 2.725098 3.721902 -1.230155 0
M  V30 55 H 1.951466 2.539032 -5.843390 0
M  V30 56 H 0.860684 0.129320 -6.735524 0
M  V30 57 H -0.042401 -2.071991 -5.929181 0
M  V30 58 H 1.118528 -2.772758 -1.639082 0
M  V30 59 H -1.589011 -5.935671 -1.825042 0
M  V30 60 H -2.858039 -5.415207 -5.198737 0
M  V30 61 H -2.715083 -6.475481 -3.779160 0
M  V30 62 H -3.471381 -4.357563 -1.708383 0
M  V30 63 H -4.326026 -5.943419 -1.792510 0
M  V30 64 H -6.396198 -4.560483 -2.435501 0
M  V30 65 H -5.798117 -4.244536 -0.755231 0
M  V30 66 H -4.807235 -2.163006 -1.374778 0
M  V30 67 H -6.381679 -2.190618 -2.162986 0
M  V30 68 H -5.382676 -1.858813 -4.125546 0
M  V30 69 H -3.734306 -2.148563 -3.378977 0
M  V30 70 H -4.153811 -3.615670 -5.258875 0
M  V30 71 H -5.744663 -4.151201 -4.645078 0
M  V30 72 H -1.680145 -3.099638 -4.922101 0
M  V30 73 H 0.743544 -0.794947 -1.950090 0
M  V30 74 H 4.400784 1.932862 0.904941 0
M  V30 END ATOM
M  V30 BEGIN BOND
M  V30 1 1 1 2
M  V30 2 1 2 3
M  V30 3 1 2 4
M  V30 4 1 4 5
M  V30 5 1 5 6
M  V30 6 1 6 7
M  V30 7 1 6 8
M  V30 8 2 8 9
M  V30 9 1 9 10
M  V30 10 2 10 11
M  V30 11 1 11 12
M  V30 12 1 12 13
M  V30 13 2 13 14
M  V30 14 1 13 15
M  V30 15 2 15 16
M  V30 16 1 16 17
M  V30 17 1 17 18
M  V30 18 2 18 19
M  V30 19 1 19 20
M  V30 20 2 20 21
M  V30 21 1 21 22
M  V30 22 2 22 23
M  V30 23 1 23 24
M  V30 24 2 24 25
M  V30 25 1 25 26
M  V30 26 1 26 27
M  V30 27 1 27 28
M  V30 28 1 28 29
M  V30 29 1 29 30
M  V30 30 1 30 31
M  V30 31 1 31 32
M  V30 32 1 32 33
M  V30 33 2 26 34
M  V30 34 1 21 35
M  V30 35 2 35 36
M  V30 36 1 11 37
M  V30 37 2 37 38
M  V30 38 1 38 8
M  V30 39 1 36 15
M  V30 40 1 36 18
M  V30 41 1 34 22
M  V30 42 1 33 28
M  V30 43 1 1 39
M  V30 44 1 1 40
M  V30 45 1 1 41
M  V30 46 1 3 42
M  V30 47 1 3 43
M  V30 48 1 3 44
M  V30 49 1 4 45
M  V30 50 1 4 46
M  V30 51 1 5 47
M  V30 52 1 5 48
M  V30 53 1 7 49
M  V30 54 1 7 50
M  V30 55 1 7 51
M  V30 56 1 9 52
M  V30 57 1 10 53
M  V30 58 1 12 54
M  V30 59 1 17 55
M  V30 60 1 19 56
M  V30 61 1 20 57
M  V30 62 1 23 58
M  V30 63 1 25 59
M  V30 64 1 27 60
M  V30 65 1 27 61
M  V30 66 1 29 62
M  V30 67 1 29 63
M  V30 68 1 30 64
M  V30 69 1 30 65
M  V30 70 1 31 66
M  V30 71 1 31 67
M  V30 72 1 32 68
M  V30 73 1 32 69
M  V30 74 1 33 70
M  V30 75 1 33 71
M  V30 76 1 34 72
M  V30 77 1 35 73
M  V30 78 1 37 74
M  V30 END BOND
M  V30 END CTAB
M  END
>  <Dataset>  (681) 
ChEMBL_Kinases

>  <Ligand_Instance>  (681) 
nan

>  <PDB_ID>  (681) 
nan

>  <Standardized_SMILES>  (681) 
CN(C)CCN(C)c1ccc(NC(=O)c2n[nH]c3ccc(-c4cncc(CN5CCCCC5)c4)cc23)cn1

>  <Name>  (681) 
nan

>  <Pocket>  (681) 
nan

>  <ATP_Site>  (681) 
nan

>  <Peripheral>  (681) 
nan

>  <Num_H_Atoms_ProtBoundConf>  (681) 
nan

>  <Num_Resolved_Atoms>  (681) 
nan

>  <Num_Not_Resolved_Atoms>  (681) 
nan

$$$$
CHEMBL4742707
     RDKit          3D

  0  0  0  0  0  0  0  0  0  0999 V3000
M  V30 BEGIN CTAB
M  V30 COUNTS 57 63 0 0 0
M  V30 BEGIN ATOM
M  V30 1 F 4.842857 -4.858474 3.605021 0
M  V30 2 C 3.883309 -5.709364 3.080473 0
M  V30 3 F 4.130955 -6.971285 3.584314 0
M  V30 4 C 2.514536 -5.251150 3.511555 0
M  V30 5 C 1.735708 -5.056849 2.231837 0
M  V30 6 N 2.691375 -4.971098 1.168294 0
M  V30 7 C 2.208145 -5.307479 -0.132026 0
M  V30 8 C 1.102569 -4.371125 -0.491364 0
M  V30 9 C -0.226416 -4.619046 -0.217711 0
M  V30 10 N -1.195971 -3.722772 -0.568256 0
M  V30 11 C -0.892671 -2.568609 -1.191527 0
M  V30 12 C 0.432034 -2.290635 -1.480186 0
M  V30 13 C 0.688021 -1.012752 -2.160713 0
M  V30 14 C 1.752800 -0.907396 -3.033397 0
M  V30 15 N 1.956877 0.293509 -3.644094 0
M  V30 16 C 1.146550 1.339924 -3.402971 0
M  V30 17 N 1.098427 2.609244 -3.841688 0
M  V30 18 N 0.093039 3.263335 -3.300436 0
M  V30 19 C -0.615928 2.463366 -2.445395 0
M  V30 20 C -1.761302 2.879557 -1.704113 0
M  V30 21 N -2.266504 4.131351 -1.775520 0
M  V30 22 C -3.325651 4.300937 -1.008630 0
M  V30 23 C -4.148805 5.399832 -0.773704 0
M  V30 24 C -3.896182 6.678440 -1.448954 0
M  V30 25 C -3.968148 7.814937 -0.637011 0
M  V30 26 C -3.702280 8.890829 -1.457127 0
M  V30 27 O -3.491236 8.419587 -2.656003 0
M  V30 28 C -3.595326 7.118974 -2.698130 0
M  V30 29 N -5.181236 5.273036 0.082990 0
M  V30 30 C -5.428671 4.091755 0.718148 0
M  V30 31 C -4.617256 2.977280 0.498302 0
M  V30 32 C -3.571137 3.103491 -0.368985 0
M  V30 33 N -2.589606 2.317788 -0.845048 0
M  V30 34 C 0.065479 1.270204 -2.530889 0
M  V30 35 C -0.131642 0.072564 -1.926948 0
M  V30 36 C 1.441120 -3.185283 -1.134760 0
M  V30 37 C 3.880598 -5.654076 1.576231 0
M  V30 38 H 2.049248 -6.002075 4.180539 0
M  V30 39 H 2.600101 -4.302069 4.091917 0
M  V30 40 H 1.179961 -4.101720 2.323545 0
M  V30 41 H 0.989760 -5.862333 2.123428 0
M  V30 42 H 1.853300 -6.355153 -0.212098 0
M  V30 43 H 3.024222 -5.158056 -0.864127 0
M  V30 44 H -0.501638 -5.538227 0.280861 0
M  V30 45 H -1.736612 -1.933047 -1.423001 0
M  V30 46 H 2.412644 -1.751640 -3.232831 0
M  V30 47 H 1.740637 3.074411 -4.518715 0
M  V30 48 H -4.167704 8.045978 0.406996 0
M  V30 49 H -3.615904 9.969127 -1.422152 0
M  V30 50 H -3.495838 6.379845 -3.476636 0
M  V30 51 H -6.254754 3.947325 1.419831 0
M  V30 52 H -4.755579 2.022131 0.963495 0
M  V30 53 H -2.549097 1.333779 -0.509543 0
M  V30 54 H -0.924031 -0.069601 -1.253808 0
M  V30 55 H 2.453687 -2.907860 -1.388183 0
M  V30 56 H 3.921978 -6.654436 1.118257 0
M  V30 57 H 4.756908 -5.057964 1.244211 0
M  V30 END ATOM
M  V30 BEGIN BOND
M  V30 1 1 1 2
M  V30 2 1 2 3
M  V30 3 1 2 4
M  V30 4 1 4 5
M  V30 5 1 5 6
M  V30 6 1 6 7
M  V30 7 1 7 8
M  V30 8 2 8 9
M  V30 9 1 9 10
M  V30 10 2 10 11
M  V30 11 1 11 12
M  V30 12 1 12 13
M  V30 13 2 13 14
M  V30 14 1 14 15
M  V30 15 2 15 16
M  V30 16 1 16 17
M  V30 17 1 17 18
M  V30 18 2 18 19
M  V30 19 1 19 20
M  V30 20 2 20 21
M  V30 21 1 21 22
M  V30 22 2 22 23
M  V30 23 1 23 24
M  V30 24 1 24 25
M  V30 25 2 25 26
M  V30 26 1 26 27
M  V30 27 1 27 28
M  V30 28 1 23 29
M  V30 29 2 29 30
M  V30 30 1 30 31
M  V30 31 2 31 32
M  V30 32 1 32 33
M  V30 33 1 19 34
M  V30 34 2 34 35
M  V30 35 2 12 36
M  V30 36 1 6 37
M  V30 37 1 37 2
M  V30 38 1 36 8
M  V30 39 1 35 13
M  V30 40 1 34 16
M  V30 41 1 33 20
M  V30 42 1 32 22
M  V30 43 2 28 24
M  V30 44 1 4 38
M  V30 45 1 4 39
M  V30 46 1 5 40
M  V30 47 1 5 41
M  V30 48 1 7 42
M  V30 49 1 7 43
M  V30 50 1 9 44
M  V30 51 1 11 45
M  V30 52 1 14 46
M  V30 53 1 17 47
M  V30 54 1 25 48
M  V30 55 1 26 49
M  V30 56 1 28 50
M  V30 57 1 30 51
M  V30 58 1 31 52
M  V30 59 1 33 53
M  V30 60 1 35 54
M  V30 61 1 36 55
M  V30 62 1 37 56
M  V30 63 1 37 57
M  V30 END BOND
M  V30 END CTAB
M  END
>  <Dataset>  (682) 
ChEMBL_Kinases

>  <Ligand_Instance>  (682) 
nan

>  <PDB_ID>  (682) 
nan

>  <Standardized_SMILES>  (682) 
FC1(F)CCN(Cc2cncc(-c3cnc4[nH]nc(-c5nc6c(-c7ccoc7)nccc6[nH]5)c4c3)c2)C1

>  <Name>  (682) 
nan

>  <Pocket>  (682) 
nan

>  <ATP_Site>  (682) 
nan

>  <Peripheral>  (682) 
nan

>  <Num_H_Atoms_ProtBoundConf>  (682) 
nan

>  <Num_Resolved_Atoms>  (682) 
nan

>  <Num_Not_Resolved_Atoms>  (682) 
nan

$$$$
CHEMBL4742246
     RDKit          3D

  0  0  0  0  0  0  0  0  0  0999 V3000
M  V30 BEGIN CTAB
M  V30 COUNTS 50 55 0 0 0
M  V30 BEGIN ATOM
M  V30 1 C 2.191492 -2.958491 3.396992 0
M  V30 2 N 3.568579 -2.511621 3.513434 0
M  V30 3 C 4.432766 -3.211821 4.431311 0
M  V30 4 C 4.106114 -1.423389 2.771776 0
M  V30 5 C 5.441049 -1.032345 2.920478 0
M  V30 6 N 5.940718 0.002156 2.211470 0
M  V30 7 C 5.190145 0.694451 1.342512 0
M  V30 8 C 3.867318 0.368209 1.142424 0
M  V30 9 C 2.968678 1.056010 0.223683 0
M  V30 10 C 3.359203 2.123002 -0.552700 0
M  V30 11 C 2.535714 2.799331 -1.434123 0
M  V30 12 C 1.225901 2.384491 -1.553177 0
M  V30 13 N 0.204398 2.812472 -2.292846 0
M  V30 14 N -0.810224 2.039050 -1.996007 0
M  V30 15 C -0.487451 1.120167 -1.087829 0
M  V30 16 C -1.328411 0.083504 -0.501378 0
M  V30 17 N -2.642513 -0.089157 -0.830640 0
M  V30 18 C -3.139412 -1.118554 -0.125347 0
M  V30 19 C -4.419633 -1.629140 -0.151418 0
M  V30 20 C -5.514645 -1.131711 -0.977768 0
M  V30 21 C -5.526578 -0.127348 -1.846632 0
M  V30 22 C -6.650932 0.209774 -2.545672 0
M  V30 23 C -7.797965 -0.594084 -2.270827 0
M  V30 24 S -7.143209 -1.801275 -0.993618 0
M  V30 25 C -4.662342 -2.699896 0.681925 0
M  V30 26 N -3.673592 -3.181497 1.455984 0
M  V30 27 C -2.438817 -2.691263 1.483056 0
M  V30 28 C -2.136649 -1.623652 0.674041 0
M  V30 29 N -1.064147 -0.856885 0.404109 0
M  V30 30 C 0.841934 1.309955 -0.767927 0
M  V30 31 N 1.683678 0.685881 0.075156 0
M  V30 32 C 3.365298 -0.689887 1.870882 0
M  V30 33 H 2.125171 -4.067496 3.595843 0
M  V30 34 H 1.608459 -2.374938 4.151555 0
M  V30 35 H 1.761686 -2.821420 2.393615 0
M  V30 36 H 4.657203 -2.512530 5.280780 0
M  V30 37 H 5.393769 -3.502209 3.939381 0
M  V30 38 H 3.953269 -4.135786 4.823620 0
M  V30 39 H 6.055098 -1.595728 3.628794 0
M  V30 40 H 5.603063 1.518370 0.783258 0
M  V30 41 H 4.361927 2.491068 -0.504990 0
M  V30 42 H 2.902451 3.640896 -2.025111 0
M  V30 43 H 0.261539 3.620708 -2.967693 0
M  V30 44 H -4.614750 0.459253 -2.020003 0
M  V30 45 H -6.767448 1.002989 -3.270802 0
M  V30 46 H -8.812711 -0.450789 -2.763171 0
M  V30 47 H -5.634989 -3.186686 0.747201 0
M  V30 48 H -1.632056 -3.076826 2.108271 0
M  V30 49 H -0.135549 -0.993520 0.859392 0
M  V30 50 H 2.328927 -0.973231 1.738002 0
M  V30 END ATOM
M  V30 BEGIN BOND
M  V30 1 1 1 2
M  V30 2 1 2 3
M  V30 3 1 2 4
M  V30 4 2 4 5
M  V30 5 1 5 6
M  V30 6 2 6 7
M  V30 7 1 7 8
M  V30 8 1 8 9
M  V30 9 2 9 10
M  V30 10 1 10 11
M  V30 11 2 11 12
M  V30 12 1 12 13
M  V30 13 1 13 14
M  V30 14 2 14 15
M  V30 15 1 15 16
M  V30 16 2 16 17
M  V30 17 1 17 18
M  V30 18 2 18 19
M  V30 19 1 19 20
M  V30 20 2 20 21
M  V30 21 1 21 22
M  V30 22 2 22 23
M  V30 23 1 23 24
M  V30 24 1 19 25
M  V30 25 2 25 26
M  V30 26 1 26 27
M  V30 27 2 27 28
M  V30 28 1 28 29
M  V30 29 1 15 30
M  V30 30 2 30 31
M  V30 31 2 8 32
M  V30 32 1 32 4
M  V30 33 1 31 9
M  V30 34 1 30 12
M  V30 35 1 29 16
M  V30 36 1 28 18
M  V30 37 1 24 20
M  V30 38 1 1 33
M  V30 39 1 1 34
M  V30 40 1 1 35
M  V30 41 1 3 36
M  V30 42 1 3 37
M  V30 43 1 3 38
M  V30 44 1 5 39
M  V30 45 1 7 40
M  V30 46 1 10 41
M  V30 47 1 11 42
M  V30 48 1 13 43
M  V30 49 1 21 44
M  V30 50 1 22 45
M  V30 51 1 23 46
M  V30 52 1 25 47
M  V30 53 1 27 48
M  V30 54 1 29 49
M  V30 55 1 32 50
M  V30 END BOND
M  V30 END CTAB
M  END
>  <Dataset>  (683) 
ChEMBL_Kinases

>  <Ligand_Instance>  (683) 
nan

>  <PDB_ID>  (683) 
nan

>  <Standardized_SMILES>  (683) 
CN(C)c1cncc(-c2ccc3[nH]nc(-c4nc5c(-c6cccs6)cncc5[nH]4)c3n2)c1

>  <Name>  (683) 
nan

>  <Pocket>  (683) 
nan

>  <ATP_Site>  (683) 
nan

>  <Peripheral>  (683) 
nan

>  <Num_H_Atoms_ProtBoundConf>  (683) 
nan

>  <Num_Resolved_Atoms>  (683) 
nan

>  <Num_Not_Resolved_Atoms>  (683) 
nan

$$$$
CHEMBL2387479
     RDKit          3D

  0  0  0  0  0  0  0  0  0  0999 V3000
M  V30 BEGIN CTAB
M  V30 COUNTS 51 55 0 0 0
M  V30 BEGIN ATOM
M  V30 1 O 3.603687 -1.397219 1.763039 0
M  V30 2 C 2.906818 -0.351039 1.783326 0
M  V30 3 N 2.630368 0.513634 0.696081 0
M  V30 4 C 2.978206 0.554625 -0.683836 0
M  V30 5 C 2.210205 -0.049713 -1.677853 0
M  V30 6 N 2.767918 0.142179 -2.894470 0
M  V30 7 C 3.888675 0.863728 -2.702618 0
M  V30 8 N 4.823654 1.337220 -3.549748 0
M  V30 9 C 5.874443 2.048141 -3.099168 0
M  V30 10 C 6.051303 2.331376 -1.739604 0
M  V30 11 C 5.098283 1.853162 -0.841122 0
M  V30 12 C 4.037703 1.127937 -1.356713 0
M  V30 13 C 2.291678 0.053175 3.067686 0
M  V30 14 C 2.873343 0.404697 4.268003 0
M  V30 15 N 1.868315 0.695186 5.143892 0
M  V30 16 N 0.705304 0.527511 4.502155 0
M  V30 17 C -0.582787 0.673007 4.878870 0
M  V30 18 C -1.650505 0.440985 4.032775 0
M  V30 19 C -1.413481 0.043344 2.745344 0
M  V30 20 N -2.479977 -0.209157 1.828392 0
M  V30 21 C -2.908001 -1.601353 1.918942 0
M  V30 22 C -4.035167 -1.923217 0.961381 0 CFG=2
M  V30 23 C -4.401524 -3.367480 1.131317 0
M  V30 24 C -4.258360 -4.198721 -0.106207 0
M  V30 25 N -2.988129 -4.032389 -0.760031 0
M  V30 26 C -2.595048 -2.664229 -0.909137 0
M  V30 27 C -3.648223 -1.684599 -0.471277 0 CFG=1
M  V30 28 F -4.768425 -1.863831 -1.256367 0
M  V30 29 N -0.112861 -0.096878 2.386875 0
M  V30 30 C 0.904678 0.136173 3.232166 0
M  V30 31 H 2.038295 1.366889 0.798888 0
M  V30 32 H 1.273676 -0.616449 -1.553623 0
M  V30 33 H 2.386783 -0.211127 -3.806096 0
M  V30 34 H 6.591155 2.400026 -3.834681 0
M  V30 35 H 6.901049 2.903304 -1.397915 0
M  V30 36 H 5.192812 2.045353 0.208008 0
M  V30 37 H 3.943883 0.408952 4.365556 0
M  V30 38 H -0.778137 0.991880 5.911378 0
M  V30 39 H -2.678537 0.562129 4.350232 0
M  V30 40 H -2.860397 0.536262 1.204153 0
M  V30 41 H -3.362653 -1.700196 2.947927 0
M  V30 42 H -2.075813 -2.306388 1.885754 0
M  V30 43 H -4.870648 -1.229009 1.193319 0
M  V30 44 H -3.869519 -3.818736 2.007846 0
M  V30 45 H -5.492136 -3.400088 1.422999 0
M  V30 46 H -4.308418 -5.272089 0.219692 0
M  V30 47 H -5.132596 -4.079335 -0.785253 0
M  V30 48 H -3.076852 -4.449189 -1.720389 0
M  V30 49 H -1.635206 -2.494883 -0.355463 0
M  V30 50 H -2.346535 -2.407228 -1.980709 0
M  V30 51 H -3.264595 -0.663036 -0.649057 0
M  V30 END ATOM
M  V30 BEGIN BOND
M  V30 1 2 1 2
M  V30 2 1 2 3
M  V30 3 1 3 4
M  V30 4 2 4 5
M  V30 5 1 5 6
M  V30 6 1 6 7
M  V30 7 2 7 8
M  V30 8 1 8 9
M  V30 9 2 9 10
M  V30 10 1 10 11
M  V30 11 2 11 12
M  V30 12 1 2 13
M  V30 13 1 13 14
M  V30 14 2 14 15
M  V30 15 1 15 16
M  V30 16 1 16 17
M  V30 17 2 17 18
M  V30 18 1 18 19
M  V30 19 1 19 20
M  V30 20 1 20 21
M  V30 21 1 21 22
M  V30 22 1 22 23
M  V30 23 1 23 24
M  V30 24 1 24 25
M  V30 25 1 25 26
M  V30 26 1 26 27
M  V30 27 1 27 28
M  V30 28 2 19 29
M  V30 29 1 29 30
M  V30 30 1 12 4
M  V30 31 2 30 13
M  V30 32 1 12 7
M  V30 33 1 30 16
M  V30 34 1 27 22
M  V30 35 1 3 31
M  V30 36 1 5 32
M  V30 37 1 6 33
M  V30 38 1 9 34
M  V30 39 1 10 35
M  V30 40 1 11 36
M  V30 41 1 14 37
M  V30 42 1 17 38
M  V30 43 1 18 39
M  V30 44 1 20 40
M  V30 45 1 21 41
M  V30 46 1 21 42
M  V30 47 1 22 43 CFG=1
M  V30 48 1 23 44
M  V30 49 1 23 45
M  V30 50 1 24 46
M  V30 51 1 24 47
M  V30 52 1 25 48
M  V30 53 1 26 49
M  V30 54 1 26 50
M  V30 55 1 27 51 CFG=1
M  V30 END BOND
M  V30 END CTAB
M  END
>  <Dataset>  (684) 
ChEMBL_Kinases

>  <Ligand_Instance>  (684) 
nan

>  <PDB_ID>  (684) 
nan

>  <Standardized_SMILES>  (684) 
O=C(Nc1c[nH]c2ncccc12)c1cnn2ccc(NC[C@@H]3CCNC[C@H]3F)nc12

>  <Name>  (684) 
nan

>  <Pocket>  (684) 
nan

>  <ATP_Site>  (684) 
nan

>  <Peripheral>  (684) 
nan

>  <Num_H_Atoms_ProtBoundConf>  (684) 
nan

>  <Num_Resolved_Atoms>  (684) 
nan

>  <Num_Not_Resolved_Atoms>  (684) 
nan

$$$$
CHEMBL2387478
     RDKit          3D

  0  0  0  0  0  0  0  0  0  0999 V3000
M  V30 BEGIN CTAB
M  V30 COUNTS 51 55 0 0 0
M  V30 BEGIN ATOM
M  V30 1 O 2.642307 -1.507138 2.247679 0
M  V30 2 C 2.071781 -0.388430 2.178505 0
M  V30 3 N 2.110015 0.367820 0.960868 0
M  V30 4 C 2.706012 0.118234 -0.314670 0
M  V30 5 C 2.284623 -0.485922 -1.483264 0
M  V30 6 N 3.252779 -0.454470 -2.395775 0
M  V30 7 C 4.361053 0.159758 -1.907358 0
M  V30 8 N 5.573517 0.447162 -2.395816 0
M  V30 9 C 6.493162 1.090902 -1.636395 0
M  V30 10 C 6.210116 1.468056 -0.344388 0
M  V30 11 C 4.959812 1.166933 0.147074 0
M  V30 12 C 4.016601 0.515190 -0.610358 0
M  V30 13 C 1.305126 0.348748 3.211078 0
M  V30 14 C 1.691674 0.918625 4.407319 0
M  V30 15 N 0.597684 1.475120 4.967906 0
M  V30 16 N -0.471919 1.301225 4.211075 0
M  V30 17 C -1.785942 1.630563 4.270972 0
M  V30 18 C -2.647423 1.266823 3.255789 0
M  V30 19 C -2.236950 0.563522 2.145184 0
M  V30 20 N -3.115641 0.189558 1.096263 0
M  V30 21 C -2.739096 -0.575087 -0.078669 0
M  V30 22 C -2.254382 -1.933081 0.372260 0 CFG=1
M  V30 23 C -3.350854 -2.624342 1.108163 0
M  V30 24 C -3.736115 -3.947074 0.493724 0
M  V30 25 N -3.969740 -3.793010 -0.912201 0
M  V30 26 C -2.787778 -3.373647 -1.635706 0
M  V30 27 C -1.737985 -2.779541 -0.761490 0 CFG=2
M  V30 28 F -1.030339 -3.841454 -0.178737 0
M  V30 29 N -0.925947 0.274501 2.157915 0
M  V30 30 C -0.065321 0.614171 3.128983 0
M  V30 31 H 1.662960 1.315755 0.789614 0
M  V30 32 H 1.269828 -0.900409 -1.538474 0
M  V30 33 H 3.178667 -0.851974 -3.374159 0
M  V30 34 H 7.446799 1.266129 -2.156249 0
M  V30 35 H 6.988330 1.977494 0.207987 0
M  V30 36 H 4.752145 1.467094 1.167105 0
M  V30 37 H 2.713842 0.878987 4.757320 0
M  V30 38 H -2.124822 2.183781 5.135414 0
M  V30 39 H -3.693776 1.557432 3.361148 0
M  V30 40 H -4.125490 0.504136 1.195452 0
M  V30 41 H -1.976948 -0.025805 -0.676967 0
M  V30 42 H -3.608927 -0.737537 -0.743070 0
M  V30 43 H -1.377902 -1.757161 1.045595 0
M  V30 44 H -4.280964 -1.997547 1.077438 0
M  V30 45 H -3.039948 -2.781661 2.161809 0
M  V30 46 H -3.069993 -4.776478 0.741579 0
M  V30 47 H -4.741119 -4.195446 0.943621 0
M  V30 48 H -4.727075 -3.122333 -1.091392 0
M  V30 49 H -2.367669 -4.327972 -2.070113 0
M  V30 50 H -3.044933 -2.761455 -2.530017 0
M  V30 51 H -1.006129 -2.255454 -1.384908 0
M  V30 END ATOM
M  V30 BEGIN BOND
M  V30 1 2 1 2
M  V30 2 1 2 3
M  V30 3 1 3 4
M  V30 4 2 4 5
M  V30 5 1 5 6
M  V30 6 1 6 7
M  V30 7 2 7 8
M  V30 8 1 8 9
M  V30 9 2 9 10
M  V30 10 1 10 11
M  V30 11 2 11 12
M  V30 12 1 2 13
M  V30 13 1 13 14
M  V30 14 2 14 15
M  V30 15 1 15 16
M  V30 16 1 16 17
M  V30 17 2 17 18
M  V30 18 1 18 19
M  V30 19 1 19 20
M  V30 20 1 20 21
M  V30 21 1 21 22
M  V30 22 1 22 23
M  V30 23 1 23 24
M  V30 24 1 24 25
M  V30 25 1 25 26
M  V30 26 1 26 27
M  V30 27 1 27 28
M  V30 28 2 19 29
M  V30 29 1 29 30
M  V30 30 1 12 4
M  V30 31 2 30 13
M  V30 32 1 12 7
M  V30 33 1 30 16
M  V30 34 1 27 22
M  V30 35 1 3 31
M  V30 36 1 5 32
M  V30 37 1 6 33
M  V30 38 1 9 34
M  V30 39 1 10 35
M  V30 40 1 11 36
M  V30 41 1 14 37
M  V30 42 1 17 38
M  V30 43 1 18 39
M  V30 44 1 20 40
M  V30 45 1 21 41
M  V30 46 1 21 42
M  V30 47 1 22 43 CFG=1
M  V30 48 1 23 44
M  V30 49 1 23 45
M  V30 50 1 24 46
M  V30 51 1 24 47
M  V30 52 1 25 48
M  V30 53 1 26 49
M  V30 54 1 26 50
M  V30 55 1 27 51 CFG=3
M  V30 END BOND
M  V30 END CTAB
M  END
>  <Dataset>  (685) 
ChEMBL_Kinases

>  <Ligand_Instance>  (685) 
nan

>  <PDB_ID>  (685) 
nan

>  <Standardized_SMILES>  (685) 
O=C(Nc1c[nH]c2ncccc12)c1cnn2ccc(NC[C@H]3CCNC[C@@H]3F)nc12

>  <Name>  (685) 
nan

>  <Pocket>  (685) 
nan

>  <ATP_Site>  (685) 
nan

>  <Peripheral>  (685) 
nan

>  <Num_H_Atoms_ProtBoundConf>  (685) 
nan

>  <Num_Resolved_Atoms>  (685) 
nan

>  <Num_Not_Resolved_Atoms>  (685) 
nan

$$$$
CHEMBL4742109
     RDKit          3D

  0  0  0  0  0  0  0  0  0  0999 V3000
M  V30 BEGIN CTAB
M  V30 COUNTS 61 67 0 0 0
M  V30 BEGIN ATOM
M  V30 1 F 2.390689 -4.263093 -2.016824 0
M  V30 2 C 2.870851 -3.102408 -1.508698 0
M  V30 3 C 3.953009 -3.035119 -0.641701 0
M  V30 4 C 4.405338 -1.831191 -0.150027 0
M  V30 5 C 3.804076 -0.634976 -0.496100 0
M  V30 6 C 4.347868 0.591438 0.064904 0
M  V30 7 C 5.718062 0.824552 0.006433 0
M  V30 8 N 6.109543 1.976303 0.539553 0
M  V30 9 C 5.275260 2.867628 1.098761 0
M  V30 10 C 3.912919 2.673671 1.176881 0
M  V30 11 N 2.849897 3.330254 1.650601 0
M  V30 12 C 1.692205 2.668201 1.467717 0
M  V30 13 C 0.445465 3.240175 1.928790 0
M  V30 14 N 0.320466 4.418022 2.555332 0
M  V30 15 N -0.921661 4.692160 2.867275 0
M  V30 16 C -1.723726 3.692453 2.460065 0
M  V30 17 C -3.082877 3.468188 2.530570 0
M  V30 18 N -3.546877 2.316750 1.997773 0
M  V30 19 C -2.753804 1.405880 1.416588 0
M  V30 20 C -3.376673 0.204464 0.878351 0
M  V30 21 C -4.743388 0.068432 1.005948 0
M  V30 22 N -5.435039 -0.989868 0.541208 0
M  V30 23 C -4.814382 -1.995772 -0.088339 0
M  V30 24 C -3.428530 -1.902999 -0.242579 0
M  V30 25 C -2.752801 -2.987645 -0.934506 0
M  V30 26 N -2.272740 -4.078161 -0.165642 0
M  V30 27 C -3.200006 -4.831221 0.587924 0
M  V30 28 C -2.638198 -6.239390 0.712490 0
M  V30 29 C -1.563876 -6.345899 -0.347480 0
M  V30 30 F -1.948634 -7.242407 -1.347286 0
M  V30 31 F -0.363386 -6.775831 0.143986 0
M  V30 32 C -1.394414 -4.963137 -0.872867 0
M  V30 33 C -2.705593 -0.809373 0.237072 0
M  V30 34 C -1.418626 1.660433 1.365352 0
M  V30 35 C -0.850869 2.798204 1.877383 0
M  V30 36 C 2.090818 1.527590 0.835733 0
M  V30 37 C 3.449603 1.471340 0.627162 0
M  V30 38 C 2.721401 -0.671477 -1.360498 0
M  V30 39 C 2.314078 -1.895107 -1.818491 0
M  V30 40 H 4.446701 -3.972061 -0.351612 0
M  V30 41 H 5.264044 -1.891946 0.523772 0
M  V30 42 H 6.347967 0.076785 -0.453629 0
M  V30 43 H 5.671572 3.780629 1.508879 0
M  V30 44 H 3.051477 4.252881 2.092392 0
M  V30 45 H -1.194005 5.563806 3.356072 0
M  V30 46 H -3.727423 4.211113 3.003093 0
M  V30 47 H -5.392006 0.806189 1.496077 0
M  V30 48 H -5.340900 -2.866126 -0.476703 0
M  V30 49 H -3.439548 -3.382874 -1.718633 0
M  V30 50 H -1.878225 -2.591671 -1.519785 0
M  V30 51 H -3.457141 -4.406605 1.573711 0
M  V30 52 H -4.147747 -4.918896 0.016446 0
M  V30 53 H -2.135793 -6.304459 1.686746 0
M  V30 54 H -3.387660 -7.027528 0.597960 0
M  V30 55 H -0.358018 -4.601738 -0.947497 0
M  V30 56 H -1.769001 -4.967691 -1.939405 0
M  V30 57 H -1.650499 -0.737854 0.120271 0
M  V30 58 H -0.793920 0.927680 0.900944 0
M  V30 59 H 1.427794 0.743557 0.527007 0
M  V30 60 H 2.237320 0.242751 -1.650294 0
M  V30 61 H 1.461751 -1.897625 -2.493196 0
M  V30 END ATOM
M  V30 BEGIN BOND
M  V30 1 1 1 2
M  V30 2 2 2 3
M  V30 3 1 3 4
M  V30 4 2 4 5
M  V30 5 1 5 6
M  V30 6 2 6 7
M  V30 7 1 7 8
M  V30 8 2 8 9
M  V30 9 1 9 10
M  V30 10 1 10 11
M  V30 11 1 11 12
M  V30 12 1 12 13
M  V30 13 2 13 14
M  V30 14 1 14 15
M  V30 15 1 15 16
M  V30 16 2 16 17
M  V30 17 1 17 18
M  V30 18 2 18 19
M  V30 19 1 19 20
M  V30 20 2 20 21
M  V30 21 1 21 22
M  V30 22 2 22 23
M  V30 23 1 23 24
M  V30 24 1 24 25
M  V30 25 1 25 26
M  V30 26 1 26 27
M  V30 27 1 27 28
M  V30 28 1 28 29
M  V30 29 1 29 30
M  V30 30 1 29 31
M  V30 31 1 29 32
M  V30 32 2 24 33
M  V30 33 1 19 34
M  V30 34 2 34 35
M  V30 35 2 12 36
M  V30 36 1 36 37
M  V30 37 1 5 38
M  V30 38 2 38 39
M  V30 39 1 39 2
M  V30 40 1 37 6
M  V30 41 2 37 10
M  V30 42 1 35 13
M  V30 43 1 35 16
M  V30 44 1 33 20
M  V30 45 1 32 26
M  V30 46 1 3 40
M  V30 47 1 4 41
M  V30 48 1 7 42
M  V30 49 1 9 43
M  V30 50 1 11 44
M  V30 51 1 15 45
M  V30 52 1 17 46
M  V30 53 1 21 47
M  V30 54 1 23 48
M  V30 55 1 25 49
M  V30 56 1 25 50
M  V30 57 1 27 51
M  V30 58 1 27 52
M  V30 59 1 28 53
M  V30 60 1 28 54
M  V30 61 1 32 55
M  V30 62 1 32 56
M  V30 63 1 33 57
M  V30 64 1 34 58
M  V30 65 1 36 59
M  V30 66 1 38 60
M  V30 67 1 39 61
M  V30 END BOND
M  V30 END CTAB
M  END
>  <Dataset>  (686) 
ChEMBL_Kinases

>  <Ligand_Instance>  (686) 
nan

>  <PDB_ID>  (686) 
nan

>  <Standardized_SMILES>  (686) 
Fc1ccc(-c2cncc3[nH]c(-c4n[nH]c5cnc(-c6cncc(CN7CCC(F)(F)C7)c6)cc45)cc23)cc1

>  <Name>  (686) 
nan

>  <Pocket>  (686) 
nan

>  <ATP_Site>  (686) 
nan

>  <Peripheral>  (686) 
nan

>  <Num_H_Atoms_ProtBoundConf>  (686) 
nan

>  <Num_Resolved_Atoms>  (686) 
nan

>  <Num_Not_Resolved_Atoms>  (686) 
nan

$$$$
CHEMBL2387477
     RDKit          3D

  0  0  0  0  0  0  0  0  0  0999 V3000
M  V30 BEGIN CTAB
M  V30 COUNTS 51 55 0 0 0
M  V30 BEGIN ATOM
M  V30 1 O 2.829730 -0.465508 2.514608 0
M  V30 2 C 2.393065 0.586209 1.933625 0
M  V30 3 N 2.541490 0.892611 0.557232 0
M  V30 4 C 3.134938 0.265831 -0.572845 0
M  V30 5 C 2.433239 -0.605380 -1.414226 0
M  V30 6 N 3.315306 -0.982919 -2.342849 0
M  V30 7 C 4.529662 -0.423441 -2.165221 0
M  V30 8 N 5.686403 -0.536456 -2.867180 0
M  V30 9 C 6.758912 0.172331 -2.420813 0
M  V30 10 C 6.679757 0.974247 -1.302124 0
M  V30 11 C 5.510520 1.096576 -0.581686 0
M  V30 12 C 4.437327 0.379254 -1.038614 0
M  V30 13 C 1.680316 1.544294 2.781501 0
M  V30 14 C 1.975514 2.703558 3.491201 0
M  V30 15 N 0.850227 3.137910 4.090120 0
M  V30 16 N -0.150232 2.315583 3.799566 0
M  V30 17 C -1.435662 2.377534 4.184278 0
M  V30 18 C -2.329679 1.395979 3.754044 0
M  V30 19 C -1.873242 0.380301 2.941116 0
M  V30 20 N -2.700547 -0.686195 2.429425 0
M  V30 21 C -2.101049 -1.718531 1.606996 0
M  V30 22 C -3.164833 -2.700991 1.160862 0 CFG=1
M  V30 23 C -4.202580 -1.943506 0.361483 0
M  V30 24 C -5.081400 -2.905788 -0.370725 0
M  V30 25 N -4.331964 -3.631395 -1.347135 0
M  V30 26 C -2.934945 -3.765709 -1.091831 0
M  V30 27 C -2.594528 -3.839011 0.381373 0 CFG=1
M  V30 28 F -1.250294 -4.019245 0.507229 0
M  V30 29 N -0.572192 0.402008 2.609053 0
M  V30 30 C 0.311487 1.330868 3.005697 0
M  V30 31 H 2.130672 1.806102 0.200875 0
M  V30 32 H 1.393884 -0.893112 -1.310117 0
M  V30 33 H 3.020987 -1.647353 -3.099492 0
M  V30 34 H 7.634244 0.022504 -3.039124 0
M  V30 35 H 7.572890 1.488724 -1.033337 0
M  V30 36 H 5.435298 1.716299 0.289195 0
M  V30 37 H 2.994037 3.045399 3.450615 0
M  V30 38 H -1.828131 3.158918 4.822891 0
M  V30 39 H -3.379003 1.387205 4.024769 0
M  V30 40 H -3.726448 -0.651003 2.691039 0
M  V30 41 H -1.274720 -2.249256 2.123360 0
M  V30 42 H -1.651235 -1.312200 0.685382 0
M  V30 43 H -3.618666 -3.093489 2.112826 0
M  V30 44 H -4.785179 -1.299788 1.045660 0
M  V30 45 H -3.680552 -1.264917 -0.369354 0
M  V30 46 H -5.565645 -3.583251 0.354114 0
M  V30 47 H -5.890986 -2.372051 -0.915944 0
M  V30 48 H -4.803966 -4.551039 -1.490087 0
M  V30 49 H -2.630063 -4.763468 -1.511182 0
M  V30 50 H -2.361147 -3.007071 -1.636555 0
M  V30 51 H -3.083318 -4.794878 0.734966 0
M  V30 END ATOM
M  V30 BEGIN BOND
M  V30 1 2 1 2
M  V30 2 1 2 3
M  V30 3 1 3 4
M  V30 4 2 4 5
M  V30 5 1 5 6
M  V30 6 1 6 7
M  V30 7 2 7 8
M  V30 8 1 8 9
M  V30 9 2 9 10
M  V30 10 1 10 11
M  V30 11 2 11 12
M  V30 12 1 2 13
M  V30 13 1 13 14
M  V30 14 2 14 15
M  V30 15 1 15 16
M  V30 16 1 16 17
M  V30 17 2 17 18
M  V30 18 1 18 19
M  V30 19 1 19 20
M  V30 20 1 20 21
M  V30 21 1 21 22
M  V30 22 1 22 23
M  V30 23 1 23 24
M  V30 24 1 24 25
M  V30 25 1 25 26
M  V30 26 1 26 27
M  V30 27 1 27 28
M  V30 28 2 19 29
M  V30 29 1 29 30
M  V30 30 1 12 4
M  V30 31 2 30 13
M  V30 32 1 12 7
M  V30 33 1 30 16
M  V30 34 1 27 22
M  V30 35 1 3 31
M  V30 36 1 5 32
M  V30 37 1 6 33
M  V30 38 1 9 34
M  V30 39 1 10 35
M  V30 40 1 11 36
M  V30 41 1 14 37
M  V30 42 1 17 38
M  V30 43 1 18 39
M  V30 44 1 20 40
M  V30 45 1 21 41
M  V30 46 1 21 42
M  V30 47 1 22 43 CFG=1
M  V30 48 1 23 44
M  V30 49 1 23 45
M  V30 50 1 24 46
M  V30 51 1 24 47
M  V30 52 1 25 48
M  V30 53 1 26 49
M  V30 54 1 26 50
M  V30 55 1 27 51 CFG=1
M  V30 END BOND
M  V30 END CTAB
M  END
>  <Dataset>  (687) 
ChEMBL_Kinases

>  <Ligand_Instance>  (687) 
nan

>  <PDB_ID>  (687) 
nan

>  <Standardized_SMILES>  (687) 
O=C(Nc1c[nH]c2ncccc12)c1cnn2ccc(NC[C@H]3CCNC[C@H]3F)nc12

>  <Name>  (687) 
nan

>  <Pocket>  (687) 
nan

>  <ATP_Site>  (687) 
nan

>  <Peripheral>  (687) 
nan

>  <Num_H_Atoms_ProtBoundConf>  (687) 
nan

>  <Num_Resolved_Atoms>  (687) 
nan

>  <Num_Not_Resolved_Atoms>  (687) 
nan

$$$$
CHEMBL2387476
     RDKit          3D

  0  0  0  0  0  0  0  0  0  0999 V3000
M  V30 BEGIN CTAB
M  V30 COUNTS 51 55 0 0 0
M  V30 BEGIN ATOM
M  V30 1 O 3.358927 -0.186879 2.127542 0
M  V30 2 C 2.517265 0.727192 1.794161 0
M  V30 3 N 2.346718 1.256133 0.506519 0
M  V30 4 C 3.048026 0.872303 -0.650659 0
M  V30 5 C 2.567360 -0.057059 -1.627332 0
M  V30 6 N 3.474591 -0.221245 -2.577358 0
M  V30 7 C 4.580194 0.506764 -2.381491 0
M  V30 8 N 5.765072 0.745522 -2.949037 0
M  V30 9 C 6.653906 1.586850 -2.403716 0
M  V30 10 C 6.487150 2.315158 -1.207116 0
M  V30 11 C 5.244861 1.995841 -0.712804 0
M  V30 12 C 4.283900 1.168451 -1.183968 0
M  V30 13 C 1.888041 0.989420 3.073997 0
M  V30 14 C 2.274388 1.508572 4.290157 0
M  V30 15 N 1.210890 1.534430 5.153467 0
M  V30 16 N 0.155374 1.035078 4.490446 0
M  V30 17 C -1.089547 0.880358 4.955916 0
M  V30 18 C -2.024953 0.350653 4.117714 0
M  V30 19 C -1.690118 -0.013412 2.829410 0
M  V30 20 N -2.511634 -0.562742 1.816781 0
M  V30 21 C -2.765113 -1.990961 1.940597 0
M  V30 22 C -3.575219 -2.430878 0.761154 0 CFG=2
M  V30 23 C -3.926279 -3.912733 0.798684 0
M  V30 24 C -5.023333 -4.077649 -0.260614 0
M  V30 25 N -4.462601 -3.805192 -1.540759 0
M  V30 26 C -3.118059 -3.339486 -1.544832 0
M  V30 27 C -2.835300 -2.239109 -0.546167 0 CFG=2
M  V30 28 F -1.463454 -2.322309 -0.239048 0
M  V30 29 N -0.421877 0.174147 2.438751 0
M  V30 30 C 0.527537 0.700281 3.251847 0
M  V30 31 H 1.606221 1.994708 0.511153 0
M  V30 32 H 1.610901 -0.551052 -1.601658 0
M  V30 33 H 3.356048 -0.858813 -3.421692 0
M  V30 34 H 7.572440 1.660129 -3.006708 0
M  V30 35 H 7.229984 2.961224 -0.838183 0
M  V30 36 H 5.066585 2.545056 0.224948 0
M  V30 37 H 3.302431 1.803166 4.389530 0
M  V30 38 H -1.350882 1.160796 5.966803 0
M  V30 39 H -3.055950 0.177200 4.383042 0
M  V30 40 H -2.738036 0.250254 1.208682 0
M  V30 41 H -3.349573 -2.212446 2.859780 0
M  V30 42 H -1.797770 -2.547982 1.947216 0
M  V30 43 H -4.516230 -1.869259 0.702885 0
M  V30 44 H -3.109848 -4.571958 0.447665 0
M  V30 45 H -4.325294 -4.176171 1.797860 0
M  V30 46 H -5.514758 -5.053081 -0.138548 0
M  V30 47 H -5.808491 -3.299193 -0.005138 0
M  V30 48 H -5.081765 -3.343945 -2.226442 0
M  V30 49 H -2.390842 -4.183588 -1.412470 0
M  V30 50 H -2.891064 -2.920527 -2.556505 0
M  V30 51 H -3.043122 -1.278727 -1.029798 0
M  V30 END ATOM
M  V30 BEGIN BOND
M  V30 1 2 1 2
M  V30 2 1 2 3
M  V30 3 1 3 4
M  V30 4 2 4 5
M  V30 5 1 5 6
M  V30 6 1 6 7
M  V30 7 2 7 8
M  V30 8 1 8 9
M  V30 9 2 9 10
M  V30 10 1 10 11
M  V30 11 2 11 12
M  V30 12 1 2 13
M  V30 13 1 13 14
M  V30 14 2 14 15
M  V30 15 1 15 16
M  V30 16 1 16 17
M  V30 17 2 17 18
M  V30 18 1 18 19
M  V30 19 1 19 20
M  V30 20 1 20 21
M  V30 21 1 21 22
M  V30 22 1 22 23
M  V30 23 1 23 24
M  V30 24 1 24 25
M  V30 25 1 25 26
M  V30 26 1 26 27
M  V30 27 1 27 28
M  V30 28 2 19 29
M  V30 29 1 29 30
M  V30 30 1 12 4
M  V30 31 2 30 13
M  V30 32 1 12 7
M  V30 33 1 30 16
M  V30 34 1 27 22
M  V30 35 1 3 31
M  V30 36 1 5 32
M  V30 37 1 6 33
M  V30 38 1 9 34
M  V30 39 1 10 35
M  V30 40 1 11 36
M  V30 41 1 14 37
M  V30 42 1 17 38
M  V30 43 1 18 39
M  V30 44 1 20 40
M  V30 45 1 21 41
M  V30 46 1 21 42
M  V30 47 1 22 43 CFG=3
M  V30 48 1 23 44
M  V30 49 1 23 45
M  V30 50 1 24 46
M  V30 51 1 24 47
M  V30 52 1 25 48
M  V30 53 1 26 49
M  V30 54 1 26 50
M  V30 55 1 27 51 CFG=3
M  V30 END BOND
M  V30 END CTAB
M  END
>  <Dataset>  (688) 
ChEMBL_Kinases

>  <Ligand_Instance>  (688) 
nan

>  <PDB_ID>  (688) 
nan

>  <Standardized_SMILES>  (688) 
O=C(Nc1c[nH]c2ncccc12)c1cnn2ccc(NC[C@@H]3CCNC[C@@H]3F)nc12

>  <Name>  (688) 
nan

>  <Pocket>  (688) 
nan

>  <ATP_Site>  (688) 
nan

>  <Peripheral>  (688) 
nan

>  <Num_H_Atoms_ProtBoundConf>  (688) 
nan

>  <Num_Resolved_Atoms>  (688) 
nan

>  <Num_Not_Resolved_Atoms>  (688) 
nan

$$$$
CHEMBL2387475
     RDKit          3D

  0  0  0  0  0  0  0  0  0  0999 V3000
M  V30 BEGIN CTAB
M  V30 COUNTS 60 65 0 0 0
M  V30 BEGIN ATOM
M  V30 1 O 1.169109 -2.513582 2.213089 0
M  V30 2 C 0.538635 -2.259046 3.303599 0
M  V30 3 N 1.153226 -1.286388 4.124148 0
M  V30 4 C 2.350038 -0.831977 3.505206 0
M  V30 5 C 3.534734 -1.483395 3.775037 0
M  V30 6 N 4.503108 -0.856193 3.062857 0
M  V30 7 C 3.940265 0.135390 2.386485 0
M  V30 8 N 4.401770 1.086854 1.521929 0
M  V30 9 C 3.568124 1.988106 0.976061 0
M  V30 10 C 2.213715 2.037942 1.227147 0
M  V30 11 C 1.448930 3.073508 0.555601 0
M  V30 12 C 1.253134 4.333847 1.110642 0
M  V30 13 F 1.781825 4.629742 2.315274 0
M  V30 14 C 0.528362 5.319717 0.473582 0
M  V30 15 C -0.031097 5.067482 -0.759887 0
M  V30 16 C 0.121613 3.839006 -1.371688 0
M  V30 17 C 0.855715 2.889693 -0.690453 0
M  V30 18 F 1.053925 1.644484 -1.228119 0
M  V30 19 C 1.676727 1.107904 2.090161 0
M  V30 20 C 2.582199 0.212474 2.616049 0
M  V30 21 C -0.676768 -3.044858 3.432501 0
M  V30 22 C -1.257156 -3.306583 4.663001 0
M  V30 23 N -2.344358 -4.044856 4.392425 0
M  V30 24 N -2.442822 -4.233563 3.099083 0
M  V30 25 C -3.365981 -4.909815 2.363449 0
M  V30 26 C -3.214748 -4.945662 0.975648 0
M  V30 27 C -2.172839 -4.326523 0.323589 0
M  V30 28 O -2.224938 -4.492947 -1.031265 0
M  V30 29 C -1.329660 -4.000411 -1.980682 0
M  V30 30 C -1.286897 -2.469755 -1.912887 0
M  V30 31 C -2.672486 -1.994593 -2.198434 0
M  V30 32 C -2.591126 -0.500877 -2.490498 0
M  V30 33 N -1.881785 -0.416082 -3.748148 0
M  V30 34 C -0.500342 -0.784909 -3.643222 0
M  V30 35 C -0.209415 -1.947350 -2.776313 0
M  V30 36 N -1.290463 -3.672707 1.097687 0
M  V30 37 C -1.416037 -3.624828 2.434118 0
M  V30 38 H 0.573542 -1.133857 5.004177 0
M  V30 39 H 3.739012 -2.332526 4.413519 0
M  V30 40 H 5.518114 -1.076651 3.022137 0
M  V30 41 H 4.077301 2.691174 0.300278 0
M  V30 42 H 0.357433 6.308931 0.876114 0
M  V30 43 H -0.604003 5.815928 -1.288638 0
M  V30 44 H -0.275241 3.547008 -2.332511 0
M  V30 45 H 0.639594 1.105830 2.313952 0
M  V30 46 H -0.977810 -3.027801 5.666000 0
M  V30 47 H -4.173351 -5.384998 2.902476 0
M  V30 48 H -4.024580 -5.521270 0.506628 0
M  V30 49 H -0.299359 -4.414252 -1.872563 0
M  V30 50 H -1.716911 -4.248968 -2.991629 0
M  V30 51 H -1.084219 -2.256187 -0.822635 0
M  V30 52 H -3.110191 -2.529166 -3.047465 0
M  V30 53 H -3.281312 -2.108322 -1.263098 0
M  V30 54 H -3.572748 -0.037198 -2.631383 0
M  V30 55 H -2.017336 0.020428 -1.723748 0
M  V30 56 H -2.384569 -0.909641 -4.519457 0
M  V30 57 H -0.127408 -0.989359 -4.668590 0
M  V30 58 H 0.035856 0.156224 -3.317210 0
M  V30 59 H 0.250161 -2.801691 -3.359861 0
M  V30 60 H 0.648462 -1.637849 -2.108396 0
M  V30 END ATOM
M  V30 BEGIN BOND
M  V30 1 2 1 2
M  V30 2 1 2 3
M  V30 3 1 3 4
M  V30 4 2 4 5
M  V30 5 1 5 6
M  V30 6 1 6 7
M  V30 7 2 7 8
M  V30 8 1 8 9
M  V30 9 2 9 10
M  V30 10 1 10 11
M  V30 11 2 11 12
M  V30 12 1 12 13
M  V30 13 1 12 14
M  V30 14 2 14 15
M  V30 15 1 15 16
M  V30 16 2 16 17
M  V30 17 1 17 18
M  V30 18 1 10 19
M  V30 19 2 19 20
M  V30 20 1 2 21
M  V30 21 1 21 22
M  V30 22 2 22 23
M  V30 23 1 23 24
M  V30 24 1 24 25
M  V30 25 2 25 26
M  V30 26 1 26 27
M  V30 27 1 27 28
M  V30 28 1 28 29
M  V30 29 1 29 30
M  V30 30 1 30 31
M  V30 31 1 31 32
M  V30 32 1 32 33
M  V30 33 1 33 34
M  V30 34 1 34 35
M  V30 35 2 27 36
M  V30 36 1 36 37
M  V30 37 1 20 4
M  V30 38 2 37 21
M  V30 39 1 20 7
M  V30 40 1 37 24
M  V30 41 1 17 11
M  V30 42 1 35 30
M  V30 43 1 3 38
M  V30 44 1 5 39
M  V30 45 1 6 40
M  V30 46 1 9 41
M  V30 47 1 14 42
M  V30 48 1 15 43
M  V30 49 1 16 44
M  V30 50 1 19 45
M  V30 51 1 22 46
M  V30 52 1 25 47
M  V30 53 1 26 48
M  V30 54 1 29 49
M  V30 55 1 29 50
M  V30 56 1 30 51
M  V30 57 1 31 52
M  V30 58 1 31 53
M  V30 59 1 32 54
M  V30 60 1 32 55
M  V30 61 1 33 56
M  V30 62 1 34 57
M  V30 63 1 34 58
M  V30 64 1 35 59
M  V30 65 1 35 60
M  V30 END BOND
M  V30 END CTAB
M  END
>  <Dataset>  (689) 
ChEMBL_Kinases

>  <Ligand_Instance>  (689) 
nan

>  <PDB_ID>  (689) 
nan

>  <Standardized_SMILES>  (689) 
O=C(Nc1c[nH]c2ncc(-c3c(F)cccc3F)cc12)c1cnn2ccc(OCC3CCNCC3)nc12

>  <Name>  (689) 
nan

>  <Pocket>  (689) 
nan

>  <ATP_Site>  (689) 
nan

>  <Peripheral>  (689) 
nan

>  <Num_H_Atoms_ProtBoundConf>  (689) 
nan

>  <Num_Resolved_Atoms>  (689) 
nan

>  <Num_Not_Resolved_Atoms>  (689) 
nan

$$$$
CHEMBL2387474
     RDKit          3D

  0  0  0  0  0  0  0  0  0  0999 V3000
M  V30 BEGIN CTAB
M  V30 COUNTS 62 67 0 0 0
M  V30 BEGIN ATOM
M  V30 1 O 2.127873 -3.367671 2.286219 0
M  V30 2 C 1.490909 -2.972746 3.321635 0
M  V30 3 N 2.051404 -1.934179 4.115235 0
M  V30 4 C 3.292584 -1.522194 3.550508 0
M  V30 5 C 4.487245 -2.112770 3.913800 0
M  V30 6 N 5.437948 -1.486394 3.195548 0
M  V30 7 C 4.853293 -0.542053 2.415528 0
M  V30 8 N 5.392309 0.328638 1.534564 0
M  V30 9 C 4.597481 1.185381 0.867076 0
M  V30 10 C 3.218417 1.225506 1.037282 0
M  V30 11 C 2.337477 2.141502 0.327624 0
M  V30 12 C 2.109333 3.366480 0.951662 0
M  V30 13 F 2.667682 3.704199 2.151342 0
M  V30 14 C 1.277915 4.280446 0.321560 0
M  V30 15 C 0.689540 3.973668 -0.904674 0
M  V30 16 C 0.918746 2.749271 -1.526448 0
M  V30 17 C 1.760019 1.845323 -0.871718 0
M  V30 18 F 2.018249 0.634176 -1.435669 0
M  V30 19 C 2.637793 0.332741 1.944515 0
M  V30 20 C 3.483727 -0.531778 2.611719 0
M  V30 21 C 0.273165 -3.745600 3.422256 0
M  V30 22 C -0.020760 -4.524678 4.540143 0
M  V30 23 N -1.207603 -5.097906 4.306937 0
M  V30 24 N -1.669132 -4.722486 3.112400 0
M  V30 25 C -2.785790 -4.992111 2.395699 0
M  V30 26 C -2.975284 -4.426317 1.145919 0
M  V30 27 C -2.034569 -3.562658 0.575756 0
M  V30 28 C -2.307307 -2.993992 -0.771124 0
M  V30 29 C -3.048587 -1.704122 -0.562572 0
M  V30 30 C -3.396862 -1.007554 -1.866746 0
M  V30 31 C -2.166295 -0.677575 -2.649646 0
M  V30 32 C -2.311635 0.465592 -3.607284 0
M  V30 33 N -2.809451 1.606919 -2.858706 0
M  V30 34 C -4.189396 1.279959 -2.527459 0
M  V30 35 C -4.275262 0.155172 -1.534875 0
M  V30 36 N -0.935650 -3.317946 1.319223 0
M  V30 37 C -0.775863 -3.880937 2.531268 0
M  V30 38 H 1.398834 -1.729830 4.929921 0
M  V30 39 H 4.700992 -2.908015 4.612981 0
M  V30 40 H 6.479822 -1.678942 3.216500 0
M  V30 41 H 5.026960 1.891596 0.153193 0
M  V30 42 H 1.102919 5.221279 0.803090 0
M  V30 43 H 0.042447 4.723464 -1.365006 0
M  V30 44 H 0.466443 2.502684 -2.478004 0
M  V30 45 H 1.559692 0.288422 2.147797 0
M  V30 46 H 0.586732 -4.650576 5.432406 0
M  V30 47 H -3.536854 -5.651512 2.795935 0
M  V30 48 H -3.874850 -4.664091 0.606010 0
M  V30 49 H -1.375403 -2.868076 -1.358732 0
M  V30 50 H -2.945531 -3.695934 -1.312192 0
M  V30 51 H -2.466351 -0.997863 0.065717 0
M  V30 52 H -3.983963 -1.925723 -0.034757 0
M  V30 53 H -4.004693 -1.749676 -2.454861 0
M  V30 54 H -1.283218 -0.448167 -1.998866 0
M  V30 55 H -1.906011 -1.585787 -3.266080 0
M  V30 56 H -3.019815 0.233320 -4.426046 0
M  V30 57 H -1.293695 0.685277 -3.995468 0
M  V30 58 H -2.857407 2.391184 -3.564272 0
M  V30 59 H -4.639417 2.186778 -2.067216 0
M  V30 60 H -4.743885 1.072963 -3.471187 0
M  V30 61 H -4.101475 0.563212 -0.524395 0
M  V30 62 H -5.347119 -0.179533 -1.541258 0
M  V30 END ATOM
M  V30 BEGIN BOND
M  V30 1 2 1 2
M  V30 2 1 2 3
M  V30 3 1 3 4
M  V30 4 2 4 5
M  V30 5 1 5 6
M  V30 6 1 6 7
M  V30 7 2 7 8
M  V30 8 1 8 9
M  V30 9 2 9 10
M  V30 10 1 10 11
M  V30 11 2 11 12
M  V30 12 1 12 13
M  V30 13 1 12 14
M  V30 14 2 14 15
M  V30 15 1 15 16
M  V30 16 2 16 17
M  V30 17 1 17 18
M  V30 18 1 10 19
M  V30 19 2 19 20
M  V30 20 1 2 21
M  V30 21 1 21 22
M  V30 22 2 22 23
M  V30 23 1 23 24
M  V30 24 1 24 25
M  V30 25 2 25 26
M  V30 26 1 26 27
M  V30 27 1 27 28
M  V30 28 1 28 29
M  V30 29 1 29 30
M  V30 30 1 30 31
M  V30 31 1 31 32
M  V30 32 1 32 33
M  V30 33 1 33 34
M  V30 34 1 34 35
M  V30 35 2 27 36
M  V30 36 1 36 37
M  V30 37 1 20 4
M  V30 38 2 37 21
M  V30 39 1 20 7
M  V30 40 1 37 24
M  V30 41 1 17 11
M  V30 42 1 35 30
M  V30 43 1 3 38
M  V30 44 1 5 39
M  V30 45 1 6 40
M  V30 46 1 9 41
M  V30 47 1 14 42
M  V30 48 1 15 43
M  V30 49 1 16 44
M  V30 50 1 19 45
M  V30 51 1 22 46
M  V30 52 1 25 47
M  V30 53 1 26 48
M  V30 54 1 28 49
M  V30 55 1 28 50
M  V30 56 1 29 51
M  V30 57 1 29 52
M  V30 58 1 30 53
M  V30 59 1 31 54
M  V30 60 1 31 55
M  V30 61 1 32 56
M  V30 62 1 32 57
M  V30 63 1 33 58
M  V30 64 1 34 59
M  V30 65 1 34 60
M  V30 66 1 35 61
M  V30 67 1 35 62
M  V30 END BOND
M  V30 END CTAB
M  END
>  <Dataset>  (690) 
ChEMBL_Kinases

>  <Ligand_Instance>  (690) 
nan

>  <PDB_ID>  (690) 
nan

>  <Standardized_SMILES>  (690) 
O=C(Nc1c[nH]c2ncc(-c3c(F)cccc3F)cc12)c1cnn2ccc(CCC3CCNCC3)nc12

>  <Name>  (690) 
nan

>  <Pocket>  (690) 
nan

>  <ATP_Site>  (690) 
nan

>  <Peripheral>  (690) 
nan

>  <Num_H_Atoms_ProtBoundConf>  (690) 
nan

>  <Num_Resolved_Atoms>  (690) 
nan

>  <Num_Not_Resolved_Atoms>  (690) 
nan

$$$$
CHEMBL2387473
     RDKit          3D

  0  0  0  0  0  0  0  0  0  0999 V3000
M  V30 BEGIN CTAB
M  V30 COUNTS 61 66 0 0 0
M  V30 BEGIN ATOM
M  V30 1 O 1.543519 -2.287133 2.541408 0
M  V30 2 C 0.781570 -2.170257 3.592786 0
M  V30 3 N 1.493056 -1.211603 4.324725 0
M  V30 4 C 2.626481 -0.919164 3.502281 0
M  V30 5 C 3.793904 -1.597294 3.622452 0
M  V30 6 N 4.661957 -1.106530 2.710587 0
M  V30 7 C 4.032929 -0.137959 2.037863 0
M  V30 8 C 4.368219 0.730098 0.995252 0
M  V30 9 C 3.426064 1.615714 0.552028 0
M  V30 10 C 2.151038 1.761550 1.019414 0
M  V30 11 C 1.140903 2.686606 0.579408 0
M  V30 12 C 1.234352 3.642573 -0.396274 0
M  V30 13 F 2.397736 3.767808 -1.059236 0
M  V30 14 C 0.231807 4.506021 -0.767748 0
M  V30 15 C -0.973703 4.436961 -0.136657 0
M  V30 16 C -1.132293 3.496955 0.854431 0
M  V30 17 C -0.094795 2.657968 1.185594 0
M  V30 18 F -0.372978 1.772127 2.176971 0
M  V30 19 N 1.853753 0.909407 2.029010 0
M  V30 20 C 2.739532 0.020873 2.503924 0
M  V30 21 C -0.413493 -2.997093 3.614255 0
M  V30 22 C -1.174551 -3.350725 4.695489 0
M  V30 23 N -2.171065 -4.119912 4.188143 0
M  V30 24 N -2.001734 -4.210551 2.869750 0
M  V30 25 C -2.736579 -4.855194 1.942751 0
M  V30 26 C -2.445890 -4.862017 0.597636 0
M  V30 27 C -1.334604 -4.156488 0.231303 0
M  V30 28 N -0.871599 -3.996907 -1.102792 0
M  V30 29 C -0.734293 -3.085083 -2.213850 0
M  V30 30 C -2.048913 -2.457209 -2.564129 0
M  V30 31 C -1.834302 -1.530084 -3.758348 0
M  V30 32 C -2.147559 -0.106326 -3.423135 0
M  V30 33 N -1.403069 0.346721 -2.281777 0
M  V30 34 C -1.611942 -0.462945 -1.105021 0
M  V30 35 C -2.548253 -1.613390 -1.396100 0
M  V30 36 N -0.566820 -3.494384 1.107468 0
M  V30 37 C -0.897112 -3.517221 2.433893 0
M  V30 38 H 0.951409 -1.044009 5.214219 0
M  V30 39 H 4.032696 -2.395927 4.307741 0
M  V30 40 H 5.640724 -1.415860 2.549326 0
M  V30 41 H 5.359797 0.660853 0.584160 0
M  V30 42 H 3.759967 2.247638 -0.251839 0
M  V30 43 H 0.372882 5.241473 -1.557093 0
M  V30 44 H -1.803427 5.083303 -0.382839 0
M  V30 45 H -2.086086 3.449939 1.345763 0
M  V30 46 H -1.026461 -3.092803 5.736198 0
M  V30 47 H -3.611159 -5.399638 2.281976 0
M  V30 48 H -3.020428 -5.370484 -0.160681 0
M  V30 49 H -0.496053 -4.988366 -1.236494 0
M  V30 50 H 0.019946 -2.282263 -2.018886 0
M  V30 51 H -0.331526 -3.660148 -3.081212 0
M  V30 52 H -2.832092 -3.189551 -2.797854 0
M  V30 53 H -0.797239 -1.588576 -4.134736 0
M  V30 54 H -2.498864 -1.870208 -4.584262 0
M  V30 55 H -1.828565 0.532973 -4.281210 0
M  V30 56 H -3.252191 0.030897 -3.321509 0
M  V30 57 H -1.635969 1.374616 -2.131093 0
M  V30 58 H -2.109670 0.164702 -0.343666 0
M  V30 59 H -0.635106 -0.829554 -0.765482 0
M  V30 60 H -3.535661 -1.200506 -1.732310 0
M  V30 61 H -2.626015 -2.225027 -0.506543 0
M  V30 END ATOM
M  V30 BEGIN BOND
M  V30 1 2 1 2
M  V30 2 1 2 3
M  V30 3 1 3 4
M  V30 4 2 4 5
M  V30 5 1 5 6
M  V30 6 1 6 7
M  V30 7 2 7 8
M  V30 8 1 8 9
M  V30 9 2 9 10
M  V30 10 1 10 11
M  V30 11 2 11 12
M  V30 12 1 12 13
M  V30 13 1 12 14
M  V30 14 2 14 15
M  V30 15 1 15 16
M  V30 16 2 16 17
M  V30 17 1 17 18
M  V30 18 1 10 19
M  V30 19 2 19 20
M  V30 20 1 2 21
M  V30 21 1 21 22
M  V30 22 2 22 23
M  V30 23 1 23 24
M  V30 24 1 24 25
M  V30 25 2 25 26
M  V30 26 1 26 27
M  V30 27 1 27 28
M  V30 28 1 28 29
M  V30 29 1 29 30
M  V30 30 1 30 31
M  V30 31 1 31 32
M  V30 32 1 32 33
M  V30 33 1 33 34
M  V30 34 1 34 35
M  V30 35 2 27 36
M  V30 36 1 36 37
M  V30 37 1 20 4
M  V30 38 2 37 21
M  V30 39 1 20 7
M  V30 40 1 37 24
M  V30 41 1 17 11
M  V30 42 1 35 30
M  V30 43 1 3 38
M  V30 44 1 5 39
M  V30 45 1 6 40
M  V30 46 1 8 41
M  V30 47 1 9 42
M  V30 48 1 14 43
M  V30 49 1 15 44
M  V30 50 1 16 45
M  V30 51 1 22 46
M  V30 52 1 25 47
M  V30 53 1 26 48
M  V30 54 1 28 49
M  V30 55 1 29 50
M  V30 56 1 29 51
M  V30 57 1 30 52
M  V30 58 1 31 53
M  V30 59 1 31 54
M  V30 60 1 32 55
M  V30 61 1 32 56
M  V30 62 1 33 57
M  V30 63 1 34 58
M  V30 64 1 34 59
M  V30 65 1 35 60
M  V30 66 1 35 61
M  V30 END BOND
M  V30 END CTAB
M  END
>  <Dataset>  (691) 
ChEMBL_Kinases

>  <Ligand_Instance>  (691) 
nan

>  <PDB_ID>  (691) 
nan

>  <Standardized_SMILES>  (691) 
O=C(Nc1c[nH]c2ccc(-c3c(F)cccc3F)nc12)c1cnn2ccc(NCC3CCNCC3)nc12

>  <Name>  (691) 
nan

>  <Pocket>  (691) 
nan

>  <ATP_Site>  (691) 
nan

>  <Peripheral>  (691) 
nan

>  <Num_H_Atoms_ProtBoundConf>  (691) 
nan

>  <Num_Resolved_Atoms>  (691) 
nan

>  <Num_Not_Resolved_Atoms>  (691) 
nan

$$$$
CHEMBL2387472
     RDKit          3D

  0  0  0  0  0  0  0  0  0  0999 V3000
M  V30 BEGIN CTAB
M  V30 COUNTS 62 67 0 0 0
M  V30 BEGIN ATOM
M  V30 1 O 2.301223 -3.175247 2.400771 0
M  V30 2 C 1.383374 -3.137927 3.289033 0
M  V30 3 N 1.469621 -2.134292 4.295415 0
M  V30 4 C 2.649005 -1.392855 4.008258 0
M  V30 5 C 3.900995 -1.682629 4.505526 0
M  V30 6 N 4.763173 -0.777136 4.021797 0
M  V30 7 C 4.078333 0.089979 3.220327 0
M  V30 8 C 4.433372 1.206175 2.464050 0
M  V30 9 C 3.466132 1.895885 1.730663 0
M  V30 10 C 2.142185 1.472884 1.750542 0
M  V30 11 C 1.304231 2.328110 0.919803 0
M  V30 12 C 1.046186 2.105703 -0.429255 0
M  V30 13 F 1.625538 1.009152 -0.970935 0
M  V30 14 C 0.240340 2.980662 -1.127157 0
M  V30 15 C -0.327985 4.085069 -0.527912 0
M  V30 16 C -0.099657 4.353375 0.826079 0
M  V30 17 C 0.722469 3.441528 1.495096 0
M  V30 18 F 0.936311 3.719102 2.823703 0
M  V30 19 C 1.773300 0.382681 2.484304 0
M  V30 20 C 2.749073 -0.279413 3.198791 0
M  V30 21 C 0.377707 -4.196515 3.072859 0
M  V30 22 C -0.047698 -5.277550 3.777958 0
M  V30 23 N -1.007168 -5.894356 3.069078 0
M  V30 24 N -1.221972 -5.254962 1.928694 0
M  V30 25 C -2.087101 -5.530543 0.933059 0
M  V30 26 C -2.139101 -4.715615 -0.178941 0
M  V30 27 C -1.282569 -3.636821 -0.212947 0
M  V30 28 N -1.091480 -2.620343 -1.213845 0
M  V30 29 C -2.014137 -1.515673 -1.028009 0
M  V30 30 C -1.776777 -0.429285 -2.061021 0
M  V30 31 C -1.954346 -0.929132 -3.469313 0
M  V30 32 C -3.327794 -0.760371 -4.012849 0
M  V30 33 N -4.374820 -0.557728 -3.087957 0
M  V30 34 C -4.148027 0.439849 -2.095528 0
M  V30 35 C -2.694778 0.743906 -1.857608 0
M  V30 36 N -0.425751 -3.390360 0.806868 0
M  V30 37 C -0.379498 -4.201094 1.904467 0
M  V30 38 H 0.673013 -2.195949 4.964363 0
M  V30 39 H 4.227918 -2.468384 5.165826 0
M  V30 40 H 5.791522 -0.644086 4.152463 0
M  V30 41 H 5.462499 1.497653 2.476963 0
M  V30 42 H 3.865782 2.758104 1.174639 0
M  V30 43 H 0.071914 2.760718 -2.174424 0
M  V30 44 H -0.969966 4.783598 -1.082726 0
M  V30 45 H -0.517562 5.202719 1.348490 0
M  V30 46 H 0.732072 0.128488 2.441143 0
M  V30 47 H 0.403986 -5.486260 4.742368 0
M  V30 48 H -2.769476 -6.358083 0.920623 0
M  V30 49 H -2.743697 -4.770167 -1.049190 0
M  V30 50 H -0.382908 -2.677698 -1.966099 0
M  V30 51 H -1.851604 -1.069668 -0.031415 0
M  V30 52 H -3.065303 -1.861719 -1.165767 0
M  V30 53 H -0.723472 -0.037645 -1.982849 0
M  V30 54 H -1.587620 -1.986713 -3.558734 0
M  V30 55 H -1.239536 -0.348965 -4.119298 0
M  V30 56 H -3.563237 -1.694503 -4.596143 0
M  V30 57 H -3.360283 0.045631 -4.798757 0
M  V30 58 H -4.989904 -1.334351 -2.853639 0
M  V30 59 H -4.723429 1.343691 -2.399446 0
M  V30 60 H -4.584518 0.094534 -1.136072 0
M  V30 61 H -2.530233 1.211613 -0.851484 0
M  V30 62 H -2.389051 1.520990 -2.590991 0
M  V30 END ATOM
M  V30 BEGIN BOND
M  V30 1 2 1 2
M  V30 2 1 2 3
M  V30 3 1 3 4
M  V30 4 2 4 5
M  V30 5 1 5 6
M  V30 6 1 6 7
M  V30 7 2 7 8
M  V30 8 1 8 9
M  V30 9 2 9 10
M  V30 10 1 10 11
M  V30 11 2 11 12
M  V30 12 1 12 13
M  V30 13 1 12 14
M  V30 14 2 14 15
M  V30 15 1 15 16
M  V30 16 2 16 17
M  V30 17 1 17 18
M  V30 18 1 10 19
M  V30 19 2 19 20
M  V30 20 1 2 21
M  V30 21 1 21 22
M  V30 22 2 22 23
M  V30 23 1 23 24
M  V30 24 1 24 25
M  V30 25 2 25 26
M  V30 26 1 26 27
M  V30 27 1 27 28
M  V30 28 1 28 29
M  V30 29 1 29 30
M  V30 30 1 30 31
M  V30 31 1 31 32
M  V30 32 1 32 33
M  V30 33 1 33 34
M  V30 34 1 34 35
M  V30 35 2 27 36
M  V30 36 1 36 37
M  V30 37 1 20 4
M  V30 38 2 37 21
M  V30 39 1 20 7
M  V30 40 1 37 24
M  V30 41 1 17 11
M  V30 42 1 35 30
M  V30 43 1 3 38
M  V30 44 1 5 39
M  V30 45 1 6 40
M  V30 46 1 8 41
M  V30 47 1 9 42
M  V30 48 1 14 43
M  V30 49 1 15 44
M  V30 50 1 16 45
M  V30 51 1 19 46
M  V30 52 1 22 47
M  V30 53 1 25 48
M  V30 54 1 26 49
M  V30 55 1 28 50
M  V30 56 1 29 51
M  V30 57 1 29 52
M  V30 58 1 30 53
M  V30 59 1 31 54
M  V30 60 1 31 55
M  V30 61 1 32 56
M  V30 62 1 32 57
M  V30 63 1 33 58
M  V30 64 1 34 59
M  V30 65 1 34 60
M  V30 66 1 35 61
M  V30 67 1 35 62
M  V30 END BOND
M  V30 END CTAB
M  END
>  <Dataset>  (692) 
ChEMBL_Kinases

>  <Ligand_Instance>  (692) 
nan

>  <PDB_ID>  (692) 
nan

>  <Standardized_SMILES>  (692) 
O=C(Nc1c[nH]c2ccc(-c3c(F)cccc3F)cc12)c1cnn2ccc(NCC3CCNCC3)nc12

>  <Name>  (692) 
nan

>  <Pocket>  (692) 
nan

>  <ATP_Site>  (692) 
nan

>  <Peripheral>  (692) 
nan

>  <Num_H_Atoms_ProtBoundConf>  (692) 
nan

>  <Num_Resolved_Atoms>  (692) 
nan

>  <Num_Not_Resolved_Atoms>  (692) 
nan

$$$$
CHEMBL4741843
     RDKit          3D

  0  0  0  0  0  0  0  0  0  0999 V3000
M  V30 BEGIN CTAB
M  V30 COUNTS 54 58 0 0 0
M  V30 BEGIN ATOM
M  V30 1 C 0.766546 -5.111949 5.501670 0
M  V30 2 N 1.939049 -5.015634 4.621026 0
M  V30 3 C 1.939640 -4.747816 3.298744 0
M  V30 4 C 3.266214 -4.757390 2.887628 0
M  V30 5 C 3.539661 -4.489608 1.471243 0
M  V30 6 C 2.927240 -3.466345 0.782929 0
M  V30 7 C 3.209874 -3.249738 -0.537307 0
M  V30 8 C 2.702092 -2.289743 -1.381764 0
M  V30 9 C 1.780340 -1.198426 -1.299135 0
M  V30 10 O 1.522901 -0.570849 -2.376211 0
M  V30 11 N 1.041971 -0.595922 -0.301768 0
M  V30 12 C 0.142370 0.487612 -0.291778 0
M  V30 13 C -0.266343 1.277112 -1.317744 0
M  V30 14 C -1.154109 2.326132 -1.236371 0
M  V30 15 C -1.684721 2.610267 0.001704 0
M  V30 16 C -2.647990 3.729185 0.155536 0
M  V30 17 N -4.020083 3.293978 -0.029949 0
M  V30 18 C -4.189037 2.743927 -1.351816 0
M  V30 19 C -5.702619 2.758197 -1.603509 0
M  V30 20 C -6.103575 4.012978 -0.866768 0
M  V30 21 C -4.864770 4.472133 -0.098238 0
M  V30 22 C -1.333851 1.874777 1.082802 0
M  V30 23 C -0.442197 0.840018 0.935588 0
M  V30 24 N 3.352349 -2.581443 -2.549935 0
M  V30 25 N 4.150772 -3.605994 -2.383788 0
M  V30 26 C 4.119351 -4.087644 -1.137508 0
M  V30 27 C 4.733281 -5.111104 -0.453103 0
M  V30 28 C 4.440477 -5.318596 0.875351 0
M  V30 29 F 5.088281 -6.343504 1.466892 0
M  V30 30 C 4.018027 -5.037639 4.011306 0
M  V30 31 N 3.191346 -5.192557 5.061737 0
M  V30 32 H -0.117427 -4.702274 4.959983 0
M  V30 33 H 0.991756 -4.579149 6.432796 0
M  V30 34 H 0.600176 -6.198346 5.720335 0
M  V30 35 H 1.016074 -4.573920 2.759404 0
M  V30 36 H 2.226753 -2.856025 1.313356 0
M  V30 37 H 1.204480 -1.051253 0.622028 0
M  V30 38 H 0.105714 1.109868 -2.297295 0
M  V30 39 H -1.440126 2.918276 -2.091042 0
M  V30 40 H -2.445846 4.452816 -0.679527 0
M  V30 41 H -2.493512 4.269822 1.090694 0
M  V30 42 H -3.773361 3.473822 -2.074334 0
M  V30 43 H -3.861948 1.712795 -1.476102 0
M  V30 44 H -6.107782 1.832137 -1.148130 0
M  V30 45 H -5.849269 2.787748 -2.682664 0
M  V30 46 H -6.937822 3.737135 -0.181292 0
M  V30 47 H -6.435402 4.732807 -1.623623 0
M  V30 48 H -5.177280 4.825106 0.903707 0
M  V30 49 H -4.352036 5.274339 -0.677999 0
M  V30 50 H -1.770696 2.127426 2.037292 0
M  V30 51 H -0.224953 0.307288 1.873460 0
M  V30 52 H 4.736412 -3.974383 -3.181264 0
M  V30 53 H 5.432769 -5.718016 -1.003589 0
M  V30 54 H 5.101799 -5.085886 3.875038 0
M  V30 END ATOM
M  V30 BEGIN BOND
M  V30 1 1 1 2
M  V30 2 1 2 3
M  V30 3 2 3 4
M  V30 4 1 4 5
M  V30 5 2 5 6
M  V30 6 1 6 7
M  V30 7 1 7 8
M  V30 8 1 8 9
M  V30 9 2 9 10
M  V30 10 1 9 11
M  V30 11 1 11 12
M  V30 12 2 12 13
M  V30 13 1 13 14
M  V30 14 2 14 15
M  V30 15 1 15 16
M  V30 16 1 16 17
M  V30 17 1 17 18
M  V30 18 1 18 19
M  V30 19 1 19 20
M  V30 20 1 20 21
M  V30 21 1 15 22
M  V30 22 2 22 23
M  V30 23 2 8 24
M  V30 24 1 24 25
M  V30 25 1 25 26
M  V30 26 1 26 27
M  V30 27 2 27 28
M  V30 28 1 28 29
M  V30 29 1 4 30
M  V30 30 2 30 31
M  V30 31 1 31 2
M  V30 32 1 28 5
M  V30 33 2 26 7
M  V30 34 1 23 12
M  V30 35 1 21 17
M  V30 36 1 1 32
M  V30 37 1 1 33
M  V30 38 1 1 34
M  V30 39 1 3 35
M  V30 40 1 6 36
M  V30 41 1 11 37
M  V30 42 1 13 38
M  V30 43 1 14 39
M  V30 44 1 16 40
M  V30 45 1 16 41
M  V30 46 1 18 42
M  V30 47 1 18 43
M  V30 48 1 19 44
M  V30 49 1 19 45
M  V30 50 1 20 46
M  V30 51 1 20 47
M  V30 52 1 21 48
M  V30 53 1 21 49
M  V30 54 1 22 50
M  V30 55 1 23 51
M  V30 56 1 25 52
M  V30 57 1 27 53
M  V30 58 1 30 54
M  V30 END BOND
M  V30 END CTAB
M  END
>  <Dataset>  (693) 
ChEMBL_Kinases

>  <Ligand_Instance>  (693) 
nan

>  <PDB_ID>  (693) 
nan

>  <Standardized_SMILES>  (693) 
Cn1cc(-c2cc3c(C(=O)Nc4ccc(CN5CCCC5)cc4)n[nH]c3cc2F)cn1

>  <Name>  (693) 
nan

>  <Pocket>  (693) 
nan

>  <ATP_Site>  (693) 
nan

>  <Peripheral>  (693) 
nan

>  <Num_H_Atoms_ProtBoundConf>  (693) 
nan

>  <Num_Resolved_Atoms>  (693) 
nan

>  <Num_Not_Resolved_Atoms>  (693) 
nan

$$$$
CHEMBL4742957
     RDKit          3D

  0  0  0  0  0  0  0  0  0  0999 V3000
M  V30 BEGIN CTAB
M  V30 COUNTS 62 65 0 0 0
M  V30 BEGIN ATOM
M  V30 1 C -0.416750 -0.112111 5.497796 0
M  V30 2 C -1.461233 -0.562764 4.553876 0
M  V30 3 C -1.178696 -0.223616 3.081542 0 CFG=2
M  V30 4 O -2.337365 -0.778638 2.468763 0
M  V30 5 C -0.031902 -1.020746 2.593645 0 CFG=2
M  V30 6 O 0.405398 -1.893475 3.590497 0
M  V30 7 C 1.178888 -0.250650 2.149948 0
M  V30 8 C 0.691386 0.907941 1.343275 0 CFG=2
M  V30 9 C 1.711152 1.572510 0.516044 0
M  V30 10 C 2.342732 2.635508 1.123020 0
M  V30 11 C 3.333116 3.388855 0.492400 0
M  V30 12 N 3.646860 3.013654 -0.770686 0
M  V30 13 C 3.023821 1.987100 -1.331031 0
M  V30 14 C 2.045506 1.208875 -0.766838 0
M  V30 15 N 1.383355 0.112086 -1.367145 0
M  V30 16 C 1.541637 -0.440870 -2.649315 0
M  V30 17 O 2.373584 0.058409 -3.432431 0
M  V30 18 C 0.795383 -1.581823 -3.159009 0
M  V30 19 N -0.119452 -2.185277 -2.392263 0
M  V30 20 C -0.833180 -3.253526 -2.839239 0
M  V30 21 C -1.797220 -3.813410 -1.897954 0
M  V30 22 N -1.402770 -3.999121 -0.617037 0
M  V30 23 C -2.286685 -4.515033 0.256047 0
M  V30 24 C -3.592033 -4.882471 -0.038792 0
M  V30 25 C -3.982305 -4.689203 -1.344382 0
M  V30 26 C -3.077356 -4.159549 -2.244174 0
M  V30 27 F -3.403059 -3.949475 -3.529805 0
M  V30 28 C -0.602319 -3.723800 -4.121805 0
M  V30 29 C 0.331910 -3.126909 -4.938647 0
M  V30 30 C 1.042140 -2.031878 -4.437873 0
M  V30 31 N 2.015545 -1.403973 -5.278554 0
M  V30 32 C 0.111412 1.844026 2.399647 0
M  V30 33 C -1.214143 1.227744 2.790139 0 CFG=2
M  V30 34 C -1.775681 2.082067 3.908920 0
M  V30 35 H 0.417120 0.459660 5.099802 0
M  V30 36 H 0.014422 -0.963570 6.103314 0
M  V30 37 H -0.894455 0.521503 6.302751 0
M  V30 38 H -1.470954 -1.688354 4.561447 0
M  V30 39 H -2.487370 -0.275980 4.812160 0
M  V30 40 H -3.086724 -0.170102 2.597254 0
M  V30 41 H -0.290044 -1.694851 1.726448 0
M  V30 42 H 0.347883 -2.840533 3.363736 0
M  V30 43 H 1.824893 0.086611 2.984756 0
M  V30 44 H 1.802899 -0.891929 1.497578 0
M  V30 45 H -0.161566 0.580584 0.729165 0
M  V30 46 H 2.127273 2.969322 2.122046 0
M  V30 47 H 3.824380 4.220814 0.973370 0
M  V30 48 H 3.353462 1.782896 -2.328764 0
M  V30 49 H 0.658907 -0.405477 -0.825371 0
M  V30 50 H -1.937383 -4.653950 1.287723 0
M  V30 51 H -4.236236 -5.293075 0.736522 0
M  V30 52 H -4.987472 -4.953828 -1.644912 0
M  V30 53 H -1.201599 -4.572480 -4.412673 0
M  V30 54 H 0.496543 -3.512206 -5.940643 0
M  V30 55 H 3.046915 -1.439528 -5.168088 0
M  V30 56 H 1.590479 -0.858631 -6.082117 0
M  V30 57 H 0.787501 1.961763 3.266261 0
M  V30 58 H -0.083322 2.844119 1.987729 0
M  V30 59 H -1.873425 1.466370 1.908352 0
M  V30 60 H -2.038847 3.084566 3.467691 0
M  V30 61 H -2.744481 1.664682 4.239090 0
M  V30 62 H -1.061655 2.308908 4.710500 0
M  V30 END ATOM
M  V30 BEGIN BOND
M  V30 1 1 1 2
M  V30 2 1 2 3
M  V30 3 1 3 4 CFG=3
M  V30 4 1 3 5
M  V30 5 1 5 6
M  V30 6 1 5 7
M  V30 7 1 7 8
M  V30 8 1 8 9
M  V30 9 2 9 10
M  V30 10 1 10 11
M  V30 11 2 11 12
M  V30 12 1 12 13
M  V30 13 2 13 14
M  V30 14 1 14 15
M  V30 15 1 15 16
M  V30 16 2 16 17
M  V30 17 1 16 18
M  V30 18 2 18 19
M  V30 19 1 19 20
M  V30 20 1 20 21
M  V30 21 2 21 22
M  V30 22 1 22 23
M  V30 23 2 23 24
M  V30 24 1 24 25
M  V30 25 2 25 26
M  V30 26 1 26 27
M  V30 27 2 20 28
M  V30 28 1 28 29
M  V30 29 2 29 30
M  V30 30 1 30 31
M  V30 31 1 8 32
M  V30 32 1 32 33
M  V30 33 1 33 34
M  V30 34 1 33 3
M  V30 35 1 14 9
M  V30 36 1 30 18
M  V30 37 1 26 21
M  V30 38 1 1 35
M  V30 39 1 1 36
M  V30 40 1 1 37
M  V30 41 1 2 38
M  V30 42 1 2 39
M  V30 43 1 4 40
M  V30 44 1 5 41 CFG=3
M  V30 45 1 6 42
M  V30 46 1 7 43
M  V30 47 1 7 44
M  V30 48 1 8 45 CFG=3
M  V30 49 1 10 46
M  V30 50 1 11 47
M  V30 51 1 13 48
M  V30 52 1 15 49
M  V30 53 1 23 50
M  V30 54 1 24 51
M  V30 55 1 25 52
M  V30 56 1 28 53
M  V30 57 1 29 54
M  V30 58 1 31 55
M  V30 59 1 31 56
M  V30 60 1 32 57
M  V30 61 1 32 58
M  V30 62 1 33 59 CFG=3
M  V30 63 1 34 60
M  V30 64 1 34 61
M  V30 65 1 34 62
M  V30 END BOND
M  V30 END CTAB
M  END
>  <Dataset>  (694) 
ChEMBL_Kinases

>  <Ligand_Instance>  (694) 
nan

>  <PDB_ID>  (694) 
nan

>  <Standardized_SMILES>  (694) 
CC[C@]1(O)[C@H](O)C[C@H](c2ccncc2NC(=O)c2nc(-c3ncccc3F)ccc2N)C[C@@H]1C

>  <Name>  (694) 
nan

>  <Pocket>  (694) 
nan

>  <ATP_Site>  (694) 
nan

>  <Peripheral>  (694) 
nan

>  <Num_H_Atoms_ProtBoundConf>  (694) 
nan

>  <Num_Resolved_Atoms>  (694) 
nan

>  <Num_Not_Resolved_Atoms>  (694) 
nan

$$$$
CHEMBL4744478
     RDKit          3D

  0  0  0  0  0  0  0  0  0  0999 V3000
M  V30 BEGIN CTAB
M  V30 COUNTS 73 78 0 0 0
M  V30 BEGIN ATOM
M  V30 1 C 1.021032 -8.459989 -1.452200 0
M  V30 2 C 0.905506 -6.933679 -1.424936 0
M  V30 3 C -0.557494 -6.589026 -1.631040 0
M  V30 4 C 1.807483 -6.432421 -2.501678 0
M  V30 5 C 1.795587 -4.943647 -2.594995 0
M  V30 6 O 1.028547 -4.989119 -1.565958 0
M  V30 7 N 2.373077 -3.935771 -3.444561 0
M  V30 8 C 1.816197 -2.757596 -2.796131 0
M  V30 9 C 0.605804 -2.334493 -3.295934 0
M  V30 10 N 0.136948 -1.228178 -2.654980 0
M  V30 11 C 0.822585 -0.655489 -1.652528 0
M  V30 12 C 2.033817 -1.105812 -1.176222 0
M  V30 13 C 2.762745 -0.469028 -0.076910 0
M  V30 14 C 4.159164 -0.497166 -0.046770 0
M  V30 15 N 4.740271 0.104265 1.030454 0
M  V30 16 C 4.036630 0.693004 2.015135 0
M  V30 17 N 4.354498 1.324386 3.159015 0
M  V30 18 N 3.259587 1.708832 3.784311 0
M  V30 19 C 2.143821 1.370901 3.117947 0
M  V30 20 C 0.796572 1.622838 3.544193 0
M  V30 21 C -0.459100 1.413704 3.085651 0
M  V30 22 C -1.428430 1.879212 3.940548 0
M  V30 23 C -2.802047 1.866266 3.884302 0
M  V30 24 C -3.496601 1.325404 2.720024 0
M  V30 25 C -4.466239 0.371501 2.574102 0
M  V30 26 C -4.965430 0.098839 1.323099 0
M  V30 27 F -5.927244 -0.873826 1.277744 0
M  V30 28 C -4.519817 0.760533 0.198334 0
M  V30 29 C -3.533097 1.738737 0.317300 0
M  V30 30 C -3.128196 2.423226 -0.929178 0
M  V30 31 N -2.036587 1.691807 -1.528596 0
M  V30 32 S -1.516321 2.447459 -2.995661 0
M  V30 33 C -0.939120 4.079167 -2.593911 0
M  V30 34 O -2.717003 2.571469 -3.895927 0
M  V30 35 O -0.474968 1.660138 -3.705526 0
M  V30 36 C -3.033869 2.005386 1.584134 0
M  V30 37 C -3.528774 2.417276 4.945646 0
M  V30 38 N -2.823839 2.933572 5.969926 0
M  V30 39 C -1.490981 2.948648 6.029022 0
M  V30 40 C -0.729964 2.411937 4.996581 0
M  V30 41 N 0.576241 2.247267 4.735127 0
M  V30 42 C 2.646412 0.733892 2.008711 0
M  V30 43 C 2.039683 0.133684 0.930108 0
M  V30 44 C 2.574491 -2.227291 -1.778645 0
M  V30 45 H 1.878188 -8.803138 -2.058906 0
M  V30 46 H 0.060965 -8.918068 -1.829243 0
M  V30 47 H 1.121937 -8.804608 -0.413084 0
M  V30 48 H 1.250436 -6.533715 -0.430345 0
M  V30 49 H -1.190458 -7.518589 -1.643288 0
M  V30 50 H -0.778434 -6.061809 -2.558272 0
M  V30 51 H -0.912789 -5.984046 -0.752853 0
M  V30 52 H 2.852214 -6.717146 -2.245874 0
M  V30 53 H 1.589053 -6.928563 -3.469506 0
M  V30 54 H 2.864244 -4.592955 -4.061856 0
M  V30 55 H 0.120885 -2.848420 -4.102592 0
M  V30 56 H 0.371081 0.223625 -1.200684 0
M  V30 57 H 4.716287 -0.973739 -0.840058 0
M  V30 58 H 5.312850 1.504080 3.530292 0
M  V30 59 H -0.689052 0.942743 2.167641 0
M  V30 60 H -4.722961 -0.064896 3.526314 0
M  V30 61 H -5.009097 0.432787 -0.716815 0
M  V30 62 H -2.733540 3.456072 -0.706863 0
M  V30 63 H -4.007396 2.495626 -1.605387 0
M  V30 64 H -2.192680 0.686888 -1.624906 0
M  V30 65 H 0.115787 4.222968 -2.922704 0
M  V30 66 H -0.980876 4.254244 -1.520608 0
M  V30 67 H -1.564330 4.845968 -3.110875 0
M  V30 68 H -2.270029 2.787413 1.518074 0
M  V30 69 H -4.622655 2.413756 4.913889 0
M  V30 70 H -0.959140 3.372441 6.869068 0
M  V30 71 H 1.248054 2.608619 5.456754 0
M  V30 72 H 0.990633 0.126809 0.864501 0
M  V30 73 H 3.519980 -2.680794 -1.497813 0
M  V30 END ATOM
M  V30 BEGIN BOND
M  V30 1 1 1 2
M  V30 2 1 2 3
M  V30 3 1 2 4
M  V30 4 1 4 5
M  V30 5 2 5 6
M  V30 6 1 5 7
M  V30 7 1 7 8
M  V30 8 2 8 9
M  V30 9 1 9 10
M  V30 10 2 10 11
M  V30 11 1 11 12
M  V30 12 1 12 13
M  V30 13 2 13 14
M  V30 14 1 14 15
M  V30 15 2 15 16
M  V30 16 1 16 17
M  V30 17 1 17 18
M  V30 18 2 18 19
M  V30 19 1 19 20
M  V30 20 2 20 21
M  V30 21 1 21 22
M  V30 22 2 22 23
M  V30 23 1 23 24
M  V30 24 2 24 25
M  V30 25 1 25 26
M  V30 26 1 26 27
M  V30 27 2 26 28
M  V30 28 1 28 29
M  V30 29 1 29 30
M  V30 30 1 30 31
M  V30 31 1 31 32
M  V30 32 1 32 33
M  V30 33 2 32 34
M  V30 34 2 32 35
M  V30 35 2 29 36
M  V30 36 1 23 37
M  V30 37 2 37 38
M  V30 38 1 38 39
M  V30 39 2 39 40
M  V30 40 1 40 41
M  V30 41 1 19 42
M  V30 42 2 42 43
M  V30 43 2 12 44
M  V30 44 1 44 8
M  V30 45 1 43 13
M  V30 46 1 42 16
M  V30 47 1 41 20
M  V30 48 1 40 22
M  V30 49 1 36 24
M  V30 50 1 1 45
M  V30 51 1 1 46
M  V30 52 1 1 47
M  V30 53 1 2 48
M  V30 54 1 3 49
M  V30 55 1 3 50
M  V30 56 1 3 51
M  V30 57 1 4 52
M  V30 58 1 4 53
M  V30 59 1 7 54
M  V30 60 1 9 55
M  V30 61 1 11 56
M  V30 62 1 14 57
M  V30 63 1 17 58
M  V30 64 1 21 59
M  V30 65 1 25 60
M  V30 66 1 28 61
M  V30 67 1 30 62
M  V30 68 1 30 63
M  V30 69 1 31 64
M  V30 70 1 33 65
M  V30 71 1 33 66
M  V30 72 1 33 67
M  V30 73 1 36 68
M  V30 74 1 37 69
M  V30 75 1 39 70
M  V30 76 1 41 71
M  V30 77 1 43 72
M  V30 78 1 44 73
M  V30 END BOND
M  V30 END CTAB
M  END
>  <Dataset>  (695) 
ChEMBL_Kinases

>  <Ligand_Instance>  (695) 
nan

>  <PDB_ID>  (695) 
nan

>  <Standardized_SMILES>  (695) 
CC(C)CC(=O)Nc1cncc(-c2cnc3[nH]nc(-c4cc5c(-c6cc(F)cc(CNS(C)(=O)=O)c6)cncc5[nH]4)c3c2)c1

>  <Name>  (695) 
nan

>  <Pocket>  (695) 
nan

>  <ATP_Site>  (695) 
nan

>  <Peripheral>  (695) 
nan

>  <Num_H_Atoms_ProtBoundConf>  (695) 
nan

>  <Num_Resolved_Atoms>  (695) 
nan

>  <Num_Not_Resolved_Atoms>  (695) 
nan

$$$$
CHEMBL4744452
     RDKit          3D

  0  0  0  0  0  0  0  0  0  0999 V3000
M  V30 BEGIN CTAB
M  V30 COUNTS 45 49 0 0 0
M  V30 BEGIN ATOM
M  V30 1 C -3.633323 -5.741199 3.305367 0
M  V30 2 N -3.122336 -4.779884 2.326430 0
M  V30 3 C -3.673624 -3.549371 2.204429 0
M  V30 4 C -3.003801 -2.853177 1.214179 0
M  V30 5 C -3.120711 -1.518828 0.630650 0
M  V30 6 C -1.979243 -0.772516 0.420089 0
M  V30 7 C -1.975552 0.490437 -0.121252 0
M  V30 8 C -1.059110 1.465097 -0.451357 0
M  V30 9 C 0.370924 1.284225 -0.236587 0
M  V30 10 O 0.787951 0.206272 0.265696 0
M  V30 11 N 1.359761 2.245653 -0.554009 0
M  V30 12 C 2.661378 1.729934 -0.207953 0
M  V30 13 C 3.305863 1.032470 -1.196482 0
M  V30 14 C 4.569959 0.500521 -0.942126 0
M  V30 15 C 5.110502 0.707926 0.307452 0
M  V30 16 C 4.463859 1.414539 1.317168 0
M  V30 17 C 3.218323 1.930718 1.045671 0
M  V30 18 C 5.368237 1.415269 2.499354 0
M  V30 19 N 6.069245 0.154310 2.299214 0
M  V30 20 C 6.403184 0.280792 0.873959 0
M  V30 21 N -1.662004 2.548250 -0.973789 0
M  V30 22 N -2.981421 2.301043 -0.994372 0
M  V30 23 C -3.202473 1.057970 -0.482414 0
M  V30 24 C -4.370336 0.338169 -0.285751 0
M  V30 25 C -4.312824 -0.928171 0.262913 0
M  V30 26 F -5.443228 -1.637958 0.458879 0
M  V30 27 C -2.023331 -3.739326 0.754533 0
M  V30 28 N -2.122595 -4.901814 1.451654 0
M  V30 29 H -2.914246 -6.566042 3.355807 0
M  V30 30 H -3.715301 -5.200718 4.286683 0
M  V30 31 H -4.656157 -6.033164 3.023601 0
M  V30 32 H -4.485221 -3.076402 2.720272 0
M  V30 33 H -1.026461 -1.203013 0.696185 0
M  V30 34 H 1.041294 3.163733 -0.978281 0
M  V30 35 H 2.878739 0.868034 -2.185334 0
M  V30 36 H 5.084754 -0.051990 -1.719642 0
M  V30 37 H 2.685629 2.478597 1.787724 0
M  V30 38 H 4.840629 1.474511 3.454686 0
M  V30 39 H 6.156566 2.200138 2.397829 0
M  V30 40 H 5.326311 -0.606363 2.348774 0
M  V30 41 H 7.175662 1.066952 0.796212 0
M  V30 42 H 6.769291 -0.680032 0.465400 0
M  V30 43 H -3.724181 2.939624 -1.339543 0
M  V30 44 H -5.332923 0.758653 -0.558475 0
M  V30 45 H -1.278824 -3.586869 -0.023298 0
M  V30 END ATOM
M  V30 BEGIN BOND
M  V30 1 1 1 2
M  V30 2 1 2 3
M  V30 3 2 3 4
M  V30 4 1 4 5
M  V30 5 2 5 6
M  V30 6 1 6 7
M  V30 7 1 7 8
M  V30 8 1 8 9
M  V30 9 2 9 10
M  V30 10 1 9 11
M  V30 11 1 11 12
M  V30 12 2 12 13
M  V30 13 1 13 14
M  V30 14 2 14 15
M  V30 15 1 15 16
M  V30 16 2 16 17
M  V30 17 1 16 18
M  V30 18 1 18 19
M  V30 19 1 19 20
M  V30 20 2 8 21
M  V30 21 1 21 22
M  V30 22 1 22 23
M  V30 23 1 23 24
M  V30 24 2 24 25
M  V30 25 1 25 26
M  V30 26 1 4 27
M  V30 27 2 27 28
M  V30 28 1 28 2
M  V30 29 1 25 5
M  V30 30 2 23 7
M  V30 31 1 17 12
M  V30 32 1 20 15
M  V30 33 1 1 29
M  V30 34 1 1 30
M  V30 35 1 1 31
M  V30 36 1 3 32
M  V30 37 1 6 33
M  V30 38 1 11 34
M  V30 39 1 13 35
M  V30 40 1 14 36
M  V30 41 1 17 37
M  V30 42 1 18 38
M  V30 43 1 18 39
M  V30 44 1 19 40
M  V30 45 1 20 41
M  V30 46 1 20 42
M  V30 47 1 22 43
M  V30 48 1 24 44
M  V30 49 1 27 45
M  V30 END BOND
M  V30 END CTAB
M  END
>  <Dataset>  (696) 
ChEMBL_Kinases

>  <Ligand_Instance>  (696) 
nan

>  <PDB_ID>  (696) 
nan

>  <Standardized_SMILES>  (696) 
Cn1cc(-c2cc3c(C(=O)Nc4ccc5c(c4)CNC5)n[nH]c3cc2F)cn1

>  <Name>  (696) 
nan

>  <Pocket>  (696) 
nan

>  <ATP_Site>  (696) 
nan

>  <Peripheral>  (696) 
nan

>  <Num_H_Atoms_ProtBoundConf>  (696) 
nan

>  <Num_Resolved_Atoms>  (696) 
nan

>  <Num_Not_Resolved_Atoms>  (696) 
nan

$$$$
CHEMBL4744439
     RDKit          3D

  0  0  0  0  0  0  0  0  0  0999 V3000
M  V30 BEGIN CTAB
M  V30 COUNTS 53 57 0 0 0
M  V30 BEGIN ATOM
M  V30 1 C 0.088986 -8.126574 1.173516 0
M  V30 2 N 0.908251 -7.089570 1.783815 0
M  V30 3 C 0.183078 -5.862028 1.668179 0
M  V30 4 C 1.030701 -4.648428 2.061899 0
M  V30 5 N 2.118198 -4.617883 1.105600 0
M  V30 6 C 2.390543 -3.610834 0.140285 0
M  V30 7 C 1.575691 -2.518728 0.045367 0
M  V30 8 C 1.866182 -1.558919 -0.900940 0
M  V30 9 C 1.119400 -0.331243 -1.152318 0
M  V30 10 O 1.419711 0.522680 -2.027673 0
M  V30 11 N -0.029632 -0.052592 -0.372196 0
M  V30 12 C -0.947916 1.034405 -0.374585 0
M  V30 13 C -0.793643 2.180784 0.390127 0
M  V30 14 C -1.771301 3.178401 0.297011 0
M  V30 15 C -1.588416 4.323335 1.081084 0
M  V30 16 C -2.570489 5.252973 0.946475 0
M  V30 17 C -2.480973 6.464924 1.706479 0
M  V30 18 C -3.157401 7.645726 1.925327 0
M  V30 19 N -2.763718 8.606017 2.748120 0
M  V30 20 C -1.671950 8.440650 3.398693 0
M  V30 21 S -1.009915 6.728764 2.863705 0
M  V30 22 C -3.680598 5.171544 0.142204 0
M  V30 23 C -3.835710 4.014726 -0.629793 0
M  V30 24 C -2.875338 3.022647 -0.545880 0
M  V30 25 C -2.982809 1.860015 -1.288064 0
M  V30 26 N -2.026115 0.898385 -1.188508 0
M  V30 27 C 2.971708 -1.763840 -1.699634 0
M  V30 28 C 3.798539 -2.887908 -1.591742 0
M  V30 29 N 3.467119 -3.806321 -0.640468 0
M  V30 30 C 2.935695 -5.804335 1.264855 0
M  V30 31 C 2.163901 -7.081378 1.063059 0
M  V30 32 H 0.679453 -8.823382 0.535588 0
M  V30 33 H -0.432613 -8.753014 1.931841 0
M  V30 34 H -0.700062 -7.698624 0.497191 0
M  V30 35 H -0.696788 -5.928772 2.336779 0
M  V30 36 H -0.155901 -5.783492 0.604152 0
M  V30 37 H 1.410716 -4.884146 3.090506 0
M  V30 38 H 0.387933 -3.771779 2.063879 0
M  V30 39 H 0.706214 -2.338959 0.659892 0
M  V30 40 H -0.406634 -0.658764 0.388810 0
M  V30 41 H 0.071218 2.262953 1.027463 0
M  V30 42 H -0.721914 4.382845 1.706465 0
M  V30 43 H -4.063789 7.666746 1.318090 0
M  V30 44 H -1.185450 9.075118 4.096977 0
M  V30 45 H -4.419196 5.935644 0.078371 0
M  V30 46 H -4.670363 3.870257 -1.282352 0
M  V30 47 H -3.844591 1.716132 -1.958811 0
M  V30 48 H 3.298653 -1.080541 -2.476324 0
M  V30 49 H 4.663004 -3.039616 -2.222457 0
M  V30 50 H 3.748224 -5.802726 0.506865 0
M  V30 51 H 3.328676 -5.792725 2.309386 0
M  V30 52 H 1.960866 -7.238733 -0.011075 0
M  V30 53 H 2.776628 -7.913796 1.472366 0
M  V30 END ATOM
M  V30 BEGIN BOND
M  V30 1 1 1 2
M  V30 2 1 2 3
M  V30 3 1 3 4
M  V30 4 1 4 5
M  V30 5 1 5 6
M  V30 6 2 6 7
M  V30 7 1 7 8
M  V30 8 1 8 9
M  V30 9 2 9 10
M  V30 10 1 9 11
M  V30 11 1 11 12
M  V30 12 2 12 13
M  V30 13 1 13 14
M  V30 14 2 14 15
M  V30 15 1 15 16
M  V30 16 1 16 17
M  V30 17 2 17 18
M  V30 18 1 18 19
M  V30 19 2 19 20
M  V30 20 1 20 21
M  V30 21 2 16 22
M  V30 22 1 22 23
M  V30 23 2 23 24
M  V30 24 1 24 25
M  V30 25 2 25 26
M  V30 26 2 8 27
M  V30 27 1 27 28
M  V30 28 2 28 29
M  V30 29 1 5 30
M  V30 30 1 30 31
M  V30 31 1 31 2
M  V30 32 1 29 6
M  V30 33 1 26 12
M  V30 34 1 24 14
M  V30 35 1 21 17
M  V30 36 1 1 32
M  V30 37 1 1 33
M  V30 38 1 1 34
M  V30 39 1 3 35
M  V30 40 1 3 36
M  V30 41 1 4 37
M  V30 42 1 4 38
M  V30 43 1 7 39
M  V30 44 1 11 40
M  V30 45 1 13 41
M  V30 46 1 15 42
M  V30 47 1 18 43
M  V30 48 1 20 44
M  V30 49 1 22 45
M  V30 50 1 23 46
M  V30 51 1 25 47
M  V30 52 1 27 48
M  V30 53 1 28 49
M  V30 54 1 30 50
M  V30 55 1 30 51
M  V30 56 1 31 52
M  V30 57 1 31 53
M  V30 END BOND
M  V30 END CTAB
M  END
>  <Dataset>  (697) 
ChEMBL_Kinases

>  <Ligand_Instance>  (697) 
nan

>  <PDB_ID>  (697) 
nan

>  <Standardized_SMILES>  (697) 
CN1CCN(c2cc(C(=O)Nc3cc4cc(-c5cncs5)ccc4cn3)ccn2)CC1

>  <Name>  (697) 
nan

>  <Pocket>  (697) 
nan

>  <ATP_Site>  (697) 
nan

>  <Peripheral>  (697) 
nan

>  <Num_H_Atoms_ProtBoundConf>  (697) 
nan

>  <Num_Resolved_Atoms>  (697) 
nan

>  <Num_Not_Resolved_Atoms>  (697) 
nan

$$$$
CHEMBL4744433
     RDKit          3D

  0  0  0  0  0  0  0  0  0  0999 V3000
M  V30 BEGIN CTAB
M  V30 COUNTS 52 57 0 0 0
M  V30 BEGIN ATOM
M  V30 1 C 7.970422 3.625550 4.022039 0
M  V30 2 C 6.925697 2.561531 4.281282 0
M  V30 3 C 6.160803 2.258997 3.050219 0
M  V30 4 O 6.239404 2.752222 1.895186 0
M  V30 5 N 5.195786 1.223002 3.310712 0
M  V30 6 C 4.292370 0.682742 2.364678 0
M  V30 7 C 4.784294 -0.404772 1.664788 0
M  V30 8 N 3.943671 -0.957139 0.746227 0
M  V30 9 C 2.702491 -0.484218 0.519973 0
M  V30 10 C 2.232881 0.581806 1.212753 0
M  V30 11 C 0.872405 1.010741 0.891161 0
M  V30 12 C 0.464481 2.339075 0.980637 0
M  V30 13 N -0.824382 2.658189 0.661616 0
M  V30 14 C -1.704530 1.738189 0.267325 0
M  V30 15 N -3.001986 1.754166 -0.102275 0
M  V30 16 N -3.402651 0.538017 -0.405067 0
M  V30 17 C -2.418772 -0.369749 -0.263305 0
M  V30 18 C -2.550348 -1.787314 -0.523061 0
M  V30 19 N -3.704932 -2.328666 -0.941179 0
M  V30 20 C -3.601592 -3.650532 -1.120153 0
M  V30 21 C -4.581462 -4.520913 -1.541611 0
M  V30 22 C -5.895294 -4.153076 -1.857802 0
M  V30 23 C -6.611497 -2.899851 -1.847603 0
M  V30 24 C -7.927396 -2.900389 -2.224973 0
M  V30 25 C -8.603191 -4.216627 -2.644265 0
M  V30 26 S -7.136401 -5.381102 -2.424344 0
M  V30 27 C -4.193749 -5.837153 -1.638842 0
M  V30 28 N -2.949113 -6.226952 -1.340661 0
M  V30 29 C -2.039166 -5.330750 -0.935679 0
M  V30 30 C -2.294900 -3.983111 -0.795670 0
M  V30 31 N -1.719499 -2.826025 -0.447009 0
M  V30 32 C -1.373172 0.416324 0.157240 0
M  V30 33 C -0.074166 0.097220 0.478954 0
M  V30 34 C 3.030984 1.189822 2.158206 0
M  V30 35 H 7.512653 4.420997 3.438181 0
M  V30 36 H 8.777332 3.132303 3.437073 0
M  V30 37 H 8.317974 3.960450 5.025146 0
M  V30 38 H 7.341287 1.642308 4.742100 0
M  V30 39 H 6.224022 2.994243 5.042676 0
M  V30 40 H 4.992993 0.708753 4.190348 0
M  V30 41 H 5.776170 -0.818218 1.812267 0
M  V30 42 H 2.204840 -1.066086 -0.249439 0
M  V30 43 H 1.178966 3.086003 1.299196 0
M  V30 44 H -3.636932 2.578709 -0.157049 0
M  V30 45 H -5.972278 -2.109472 -1.529920 0
M  V30 46 H -8.324092 -1.868761 -2.162805 0
M  V30 47 H -9.582771 -3.825779 -2.855524 0
M  V30 48 H -4.861450 -6.622598 -1.956405 0
M  V30 49 H -0.994035 -5.583994 -0.673644 0
M  V30 50 H -0.730996 -2.821735 -0.161176 0
M  V30 51 H 0.269292 -0.911706 0.422069 0
M  V30 52 H 2.663878 2.038785 2.711100 0
M  V30 END ATOM
M  V30 BEGIN BOND
M  V30 1 1 1 2
M  V30 2 1 2 3
M  V30 3 2 3 4
M  V30 4 1 3 5
M  V30 5 1 5 6
M  V30 6 2 6 7
M  V30 7 1 7 8
M  V30 8 2 8 9
M  V30 9 1 9 10
M  V30 10 1 10 11
M  V30 11 2 11 12
M  V30 12 1 12 13
M  V30 13 2 13 14
M  V30 14 1 14 15
M  V30 15 1 15 16
M  V30 16 2 16 17
M  V30 17 1 17 18
M  V30 18 2 18 19
M  V30 19 1 19 20
M  V30 20 2 20 21
M  V30 21 1 21 22
M  V30 22 2 22 23
M  V30 23 1 23 24
M  V30 24 2 24 25
M  V30 25 1 25 26
M  V30 26 1 21 27
M  V30 27 2 27 28
M  V30 28 1 28 29
M  V30 29 2 29 30
M  V30 30 1 30 31
M  V30 31 1 17 32
M  V30 32 2 32 33
M  V30 33 2 10 34
M  V30 34 1 34 6
M  V30 35 1 33 11
M  V30 36 1 32 14
M  V30 37 1 31 18
M  V30 38 1 30 20
M  V30 39 1 26 22
M  V30 40 1 1 35
M  V30 41 1 1 36
M  V30 42 1 1 37
M  V30 43 1 2 38
M  V30 44 1 2 39
M  V30 45 1 5 40
M  V30 46 1 7 41
M  V30 47 1 9 42
M  V30 48 1 12 43
M  V30 49 1 15 44
M  V30 50 1 23 45
M  V30 51 1 24 46
M  V30 52 1 25 47
M  V30 53 1 27 48
M  V30 54 1 29 49
M  V30 55 1 31 50
M  V30 56 1 33 51
M  V30 57 1 34 52
M  V30 END BOND
M  V30 END CTAB
M  END
>  <Dataset>  (698) 
ChEMBL_Kinases

>  <Ligand_Instance>  (698) 
nan

>  <PDB_ID>  (698) 
nan

>  <Standardized_SMILES>  (698) 
CCC(=O)Nc1cncc(-c2cnc3[nH]nc(-c4nc5c(-c6cccs6)cncc5[nH]4)c3c2)c1

>  <Name>  (698) 
nan

>  <Pocket>  (698) 
nan

>  <ATP_Site>  (698) 
nan

>  <Peripheral>  (698) 
nan

>  <Num_H_Atoms_ProtBoundConf>  (698) 
nan

>  <Num_Resolved_Atoms>  (698) 
nan

>  <Num_Not_Resolved_Atoms>  (698) 
nan

$$$$
CHEMBL4744426
     RDKit          3D

  0  0  0  0  0  0  0  0  0  0999 V3000
M  V30 BEGIN CTAB
M  V30 COUNTS 66 71 0 0 0
M  V30 BEGIN ATOM
M  V30 1 O 5.179235 -0.468469 2.184632 0
M  V30 2 C 3.991626 -0.890195 1.948931 0
M  V30 3 N 3.187380 -0.284315 2.932656 0
M  V30 4 C 3.973740 0.543162 3.790491 0
M  V30 5 C 4.586011 0.112271 4.951262 0
M  V30 6 N 5.317839 0.976008 5.706908 0
M  V30 7 C 5.466079 2.265237 5.349350 0
M  V30 8 C 4.899293 2.798408 4.213265 0
M  V30 9 C 4.164759 1.892577 3.472705 0
M  V30 10 N 3.535998 2.353389 2.273532 0
M  V30 11 C 2.234528 2.812089 2.633851 0
M  V30 12 O 1.981602 2.696539 3.880701 0
M  V30 13 C 1.210183 3.386512 1.691175 0
M  V30 14 C 0.222288 4.339761 2.200157 0
M  V30 15 C -0.228336 2.896944 1.969921 0
M  V30 16 C 3.808146 -1.788178 0.845059 0
M  V30 17 N 4.908042 -2.137318 0.153264 0
M  V30 18 N 4.547877 -2.973501 -0.834097 0
M  V30 19 C 3.227102 -3.216936 -0.849689 0
M  V30 20 C 2.376597 -3.962768 -1.613764 0
M  V30 21 C 1.022211 -3.933709 -1.275984 0
M  V30 22 C 0.586578 -3.174367 -0.209101 0
M  V30 23 C -0.837633 -3.162627 0.120269 0
M  V30 24 C -1.262241 -3.000290 1.429496 0
M  V30 25 N -2.590102 -2.988544 1.739488 0
M  V30 26 C -3.504478 -3.139762 0.736936 0
M  V30 27 C -3.125684 -3.304803 -0.585162 0
M  V30 28 C -4.225432 -3.460249 -1.587662 0
M  V30 29 N -4.581111 -2.181500 -2.058562 0
M  V30 30 C -3.596732 -1.415806 -2.693288 0
M  V30 31 C -4.114763 -0.277152 -3.534735 0
M  V30 32 C -5.603528 -0.122011 -3.445860 0
M  V30 33 C -6.047994 -0.216469 -2.003672 0
M  V30 34 C -5.637341 -1.517736 -1.397424 0
M  V30 35 C -1.775946 -3.314401 -0.882225 0
M  V30 36 C 1.461142 -2.428058 0.550444 0
M  V30 37 C 2.793127 -2.459738 0.214367 0
M  V30 38 H 2.193814 -0.555156 2.842668 0
M  V30 39 H 4.469544 -0.905593 5.234106 0
M  V30 40 H 6.060282 2.929959 5.979553 0
M  V30 41 H 4.994628 3.814476 3.897354 0
M  V30 42 H 3.778654 2.433608 1.254163 0
M  V30 43 H 1.506513 3.453077 0.623566 0
M  V30 44 H 0.219018 4.727265 3.231588 0
M  V30 45 H -0.225395 5.067711 1.481440 0
M  V30 46 H -0.844516 2.672842 1.083194 0
M  V30 47 H -0.381209 2.335973 2.904967 0
M  V30 48 H 5.262019 -3.366597 -1.495541 0
M  V30 49 H 2.844900 -4.499386 -2.403334 0
M  V30 50 H 0.374046 -4.537108 -1.902859 0
M  V30 51 H -0.561364 -2.877899 2.247210 0
M  V30 52 H -4.531697 -3.112844 1.113815 0
M  V30 53 H -5.013569 -4.041202 -1.116938 0
M  V30 54 H -3.740317 -4.034899 -2.429502 0
M  V30 55 H -2.867771 -1.028222 -1.945405 0
M  V30 56 H -2.993779 -2.101283 -3.351920 0
M  V30 57 H -3.560741 0.666120 -3.277834 0
M  V30 58 H -3.869996 -0.446327 -4.611547 0
M  V30 59 H -6.069505 -0.963476 -3.980815 0
M  V30 60 H -5.892249 0.870716 -3.814778 0
M  V30 61 H -7.159531 -0.139497 -1.979556 0
M  V30 62 H -5.685216 0.669512 -1.429528 0
M  V30 63 H -5.364896 -1.342731 -0.336785 0
M  V30 64 H -6.514685 -2.226561 -1.369587 0
M  V30 65 H -1.516023 -3.444935 -1.922679 0
M  V30 66 H 1.095759 -1.845840 1.374583 0
M  V30 END ATOM
M  V30 BEGIN BOND
M  V30 1 2 1 2
M  V30 2 1 2 3
M  V30 3 1 3 4
M  V30 4 2 4 5
M  V30 5 1 5 6
M  V30 6 2 6 7
M  V30 7 1 7 8
M  V30 8 2 8 9
M  V30 9 1 9 10
M  V30 10 1 10 11
M  V30 11 2 11 12
M  V30 12 1 11 13
M  V30 13 1 13 14
M  V30 14 1 14 15
M  V30 15 1 2 16
M  V30 16 2 16 17
M  V30 17 1 17 18
M  V30 18 1 18 19
M  V30 19 2 19 20
M  V30 20 1 20 21
M  V30 21 2 21 22
M  V30 22 1 22 23
M  V30 23 2 23 24
M  V30 24 1 24 25
M  V30 25 2 25 26
M  V30 26 1 26 27
M  V30 27 1 27 28
M  V30 28 1 28 29
M  V30 29 1 29 30
M  V30 30 1 30 31
M  V30 31 1 31 32
M  V30 32 1 32 33
M  V30 33 1 33 34
M  V30 34 2 27 35
M  V30 35 1 22 36
M  V30 36 2 36 37
M  V30 37 1 9 4
M  V30 38 1 15 13
M  V30 39 1 37 16
M  V30 40 1 37 19
M  V30 41 1 35 23
M  V30 42 1 34 29
M  V30 43 1 3 38
M  V30 44 1 5 39
M  V30 45 1 7 40
M  V30 46 1 8 41
M  V30 47 1 10 42
M  V30 48 1 13 43
M  V30 49 1 14 44
M  V30 50 1 14 45
M  V30 51 1 15 46
M  V30 52 1 15 47
M  V30 53 1 18 48
M  V30 54 1 20 49
M  V30 55 1 21 50
M  V30 56 1 24 51
M  V30 57 1 26 52
M  V30 58 1 28 53
M  V30 59 1 28 54
M  V30 60 1 30 55
M  V30 61 1 30 56
M  V30 62 1 31 57
M  V30 63 1 31 58
M  V30 64 1 32 59
M  V30 65 1 32 60
M  V30 66 1 33 61
M  V30 67 1 33 62
M  V30 68 1 34 63
M  V30 69 1 34 64
M  V30 70 1 35 65
M  V30 71 1 36 66
M  V30 END BOND
M  V30 END CTAB
M  END
>  <Dataset>  (699) 
ChEMBL_Kinases

>  <Ligand_Instance>  (699) 
nan

>  <PDB_ID>  (699) 
nan

>  <Standardized_SMILES>  (699) 
O=C(Nc1cnccc1NC(=O)C1CC1)c1n[nH]c2ccc(-c3cncc(CN4CCCCC4)c3)cc12

>  <Name>  (699) 
nan

>  <Pocket>  (699) 
nan

>  <ATP_Site>  (699) 
nan

>  <Peripheral>  (699) 
nan

>  <Num_H_Atoms_ProtBoundConf>  (699) 
nan

>  <Num_Resolved_Atoms>  (699) 
nan

>  <Num_Not_Resolved_Atoms>  (699) 
nan

$$$$
CHEMBL4744357
     RDKit          3D

  0  0  0  0  0  0  0  0  0  0999 V3000
M  V30 BEGIN CTAB
M  V30 COUNTS 58 63 0 0 0
M  V30 BEGIN ATOM
M  V30 1 O -0.756293 -0.421453 2.142046 0
M  V30 2 C -1.629038 -0.103100 2.988932 0
M  V30 3 N -1.079578 0.604674 4.115380 0
M  V30 4 C 0.344358 0.711327 3.876022 0
M  V30 5 C 1.303412 -0.205651 4.283045 0
M  V30 6 C 2.630105 0.028159 3.979751 0
M  V30 7 C 3.016970 1.173204 3.270368 0
M  V30 8 C 4.473095 1.330161 3.011304 0
M  V30 9 N 4.839755 0.671693 1.833143 0
M  V30 10 C 6.174848 0.713769 1.397265 0
M  V30 11 C 6.094330 0.882102 -0.098970 0
M  V30 12 C 4.656933 1.087101 -0.438453 0
M  V30 13 C 3.965137 0.488978 0.769495 0
M  V30 14 C 2.023800 2.052057 2.889623 0
M  V30 15 C 0.687359 1.862028 3.168791 0
M  V30 16 C -3.065839 -0.394606 2.894139 0
M  V30 17 N -4.116311 -0.137298 3.700014 0
M  V30 18 N -5.227695 -0.614953 3.156441 0
M  V30 19 C -4.952177 -1.208238 1.966160 0
M  V30 20 C -5.778996 -1.839489 1.046250 0
M  V30 21 C -5.203316 -2.360345 -0.105238 0
M  V30 22 C -3.843867 -2.251383 -0.325691 0
M  V30 23 C -3.127631 -2.757638 -1.495994 0
M  V30 24 C -1.806644 -3.212497 -1.499383 0
M  V30 25 N -1.540436 -3.587989 -2.771259 0
M  V30 26 N -2.623894 -3.380964 -3.512402 0
M  V30 27 C -2.542341 -3.722309 -4.914866 0
M  V30 28 C -1.425960 -3.210370 -5.746851 0
M  V30 29 C -2.805854 -2.632930 -5.936378 0
M  V30 30 C -3.614682 -2.876654 -2.779097 0
M  V30 31 C -3.090021 -1.611235 0.634144 0
M  V30 32 C -3.574349 -1.065870 1.802521 0
M  V30 33 H -1.703459 0.924908 4.889690 0
M  V30 34 H 0.913988 -1.049457 4.818719 0
M  V30 35 H 3.313274 -0.756950 4.343485 0
M  V30 36 H 5.069461 0.937651 3.893620 0
M  V30 37 H 4.689022 2.422321 2.984058 0
M  V30 38 H 6.669491 1.585894 1.886273 0
M  V30 39 H 6.776159 -0.183389 1.670642 0
M  V30 40 H 6.722583 1.775526 -0.360184 0
M  V30 41 H 6.459220 -0.045105 -0.593132 0
M  V30 42 H 4.415445 2.171184 -0.450833 0
M  V30 43 H 4.343508 0.587356 -1.380664 0
M  V30 44 H 2.983433 1.011824 0.924602 0
M  V30 45 H 3.773822 -0.583083 0.488226 0
M  V30 46 H 2.353172 2.941718 2.334982 0
M  V30 47 H -0.043548 2.598917 2.836618 0
M  V30 48 H -6.155702 -0.524792 3.612602 0
M  V30 49 H -6.844745 -1.929804 1.209023 0
M  V30 50 H -5.780059 -2.868753 -0.874830 0
M  V30 51 H -1.117505 -3.262887 -0.666032 0
M  V30 52 H -2.924504 -4.726535 -5.196686 0
M  V30 53 H -0.663770 -2.604541 -5.213873 0
M  V30 54 H -1.032924 -3.851578 -6.562693 0
M  V30 55 H -3.359602 -2.856912 -6.861844 0
M  V30 56 H -2.928006 -1.628990 -5.482750 0
M  V30 57 H -4.584244 -2.627838 -3.155316 0
M  V30 58 H -2.005081 -1.504818 0.493312 0
M  V30 END ATOM
M  V30 BEGIN BOND
M  V30 1 2 1 2
M  V30 2 1 2 3
M  V30 3 1 3 4
M  V30 4 2 4 5
M  V30 5 1 5 6
M  V30 6 2 6 7
M  V30 7 1 7 8
M  V30 8 1 8 9
M  V30 9 1 9 10
M  V30 10 1 10 11
M  V30 11 1 11 12
M  V30 12 1 12 13
M  V30 13 1 7 14
M  V30 14 2 14 15
M  V30 15 1 2 16
M  V30 16 2 16 17
M  V30 17 1 17 18
M  V30 18 1 18 19
M  V30 19 2 19 20
M  V30 20 1 20 21
M  V30 21 2 21 22
M  V30 22 1 22 23
M  V30 23 1 23 24
M  V30 24 2 24 25
M  V30 25 1 25 26
M  V30 26 1 26 27
M  V30 27 1 27 28
M  V30 28 1 28 29
M  V30 29 1 26 30
M  V30 30 1 22 31
M  V30 31 2 31 32
M  V30 32 1 15 4
M  V30 33 1 32 16
M  V30 34 1 13 9
M  V30 35 1 32 19
M  V30 36 2 30 23
M  V30 37 1 29 27
M  V30 38 1 3 33
M  V30 39 1 5 34
M  V30 40 1 6 35
M  V30 41 1 8 36
M  V30 42 1 8 37
M  V30 43 1 10 38
M  V30 44 1 10 39
M  V30 45 1 11 40
M  V30 46 1 11 41
M  V30 47 1 12 42
M  V30 48 1 12 43
M  V30 49 1 13 44
M  V30 50 1 13 45
M  V30 51 1 14 46
M  V30 52 1 15 47
M  V30 53 1 18 48
M  V30 54 1 20 49
M  V30 55 1 21 50
M  V30 56 1 24 51
M  V30 57 1 27 52
M  V30 58 1 28 53
M  V30 59 1 28 54
M  V30 60 1 29 55
M  V30 61 1 29 56
M  V30 62 1 30 57
M  V30 63 1 31 58
M  V30 END BOND
M  V30 END CTAB
M  END
>  <Dataset>  (700) 
ChEMBL_Kinases

>  <Ligand_Instance>  (700) 
nan

>  <PDB_ID>  (700) 
nan

>  <Standardized_SMILES>  (700) 
O=C(Nc1ccc(CN2CCCC2)cc1)c1n[nH]c2ccc(-c3cnn(C4CC4)c3)cc12

>  <Name>  (700) 
nan

>  <Pocket>  (700) 
nan

>  <ATP_Site>  (700) 
nan

>  <Peripheral>  (700) 
nan

>  <Num_H_Atoms_ProtBoundConf>  (700) 
nan

>  <Num_Resolved_Atoms>  (700) 
nan

>  <Num_Not_Resolved_Atoms>  (700) 
nan

$$$$
CHEMBL4457634
     RDKit          3D

  0  0  0  0  0  0  0  0  0  0999 V3000
M  V30 BEGIN CTAB
M  V30 COUNTS 58 63 0 0 0
M  V30 BEGIN ATOM
M  V30 1 C 4.277040 -2.365669 -0.879445 0
M  V30 2 N 4.606062 -1.143709 -0.167237 0
M  V30 3 C 5.994206 -0.873218 0.128268 0
M  V30 4 C 6.277775 0.536353 0.509102 0
M  V30 5 O 5.164693 1.366597 0.566066 0
M  V30 6 C 3.841281 1.006509 0.573661 0
M  V30 7 C 3.540730 -0.284118 0.197857 0
M  V30 8 C 2.198779 -0.660693 0.201984 0
M  V30 9 N 1.236864 0.209293 0.560943 0
M  V30 10 N 1.531733 1.454662 0.923128 0
M  V30 11 C 0.770927 2.500773 1.318848 0
M  V30 12 C -0.684201 2.475661 1.443020 0
M  V30 13 C -1.341283 3.620994 1.860363 0
M  V30 14 C -2.724075 3.579849 1.972982 0
M  V30 15 C -3.475587 2.451463 1.688743 0
M  V30 16 C -4.850496 2.472570 1.820090 0
M  V30 17 C -5.514334 1.301478 1.514557 0
M  V30 18 Cl -7.277622 1.234770 1.653713 0
M  V30 19 C -4.835388 0.172663 1.100389 0
M  V30 20 C -3.444217 0.181552 0.976935 0
M  V30 21 N -2.786868 -1.011243 0.544729 0
M  V30 22 C -3.543057 -2.207834 0.239617 0
M  V30 23 C -2.647634 -3.343739 -0.196454 0
M  V30 24 F -3.473047 -4.422170 -0.458377 0
M  V30 25 C -1.897733 -3.024225 -1.461320 0
M  V30 26 C -1.083363 -4.222913 -1.846136 0
M  V30 27 N -0.744281 -5.086434 -0.730069 0
M  V30 28 C -0.379604 -4.203279 0.389338 0
M  V30 29 C -1.678941 -3.643767 0.927947 0
M  V30 30 C -2.756394 1.342499 1.277122 0
M  V30 31 N -1.412605 1.375984 1.165651 0
M  V30 32 N 1.602917 3.534426 1.566189 0
M  V30 33 N 2.864225 3.139943 1.328572 0
M  V30 34 C 2.818576 1.863563 0.934095 0
M  V30 35 H 3.693472 -2.064548 -1.795241 0
M  V30 36 H 3.614406 -3.027768 -0.294525 0
M  V30 37 H 5.177292 -2.867588 -1.252523 0
M  V30 38 H 6.325254 -1.596991 0.902481 0
M  V30 39 H 6.570902 -1.115330 -0.808407 0
M  V30 40 H 7.091196 0.978721 -0.134690 0
M  V30 41 H 6.743296 0.549045 1.536159 0
M  V30 42 H 1.971649 -1.674639 -0.094070 0
M  V30 43 H -0.802128 4.549150 2.101328 0
M  V30 44 H -3.224721 4.491343 2.303095 0
M  V30 45 H -5.374601 3.367915 2.147288 0
M  V30 46 H -5.414600 -0.700160 0.880337 0
M  V30 47 H -1.747977 -0.968663 0.463746 0
M  V30 48 H -4.313591 -1.978000 -0.524594 0
M  V30 49 H -4.074861 -2.554106 1.158543 0
M  V30 50 H -2.641061 -2.824635 -2.257301 0
M  V30 51 H -1.183020 -2.187001 -1.292115 0
M  V30 52 H -0.118933 -3.920663 -2.319347 0
M  V30 53 H -1.618216 -4.836886 -2.627216 0
M  V30 54 H 0.078637 -5.656529 -1.028737 0
M  V30 55 H 0.271386 -3.423483 -0.058900 0
M  V30 56 H 0.189491 -4.744717 1.152286 0
M  V30 57 H -2.105685 -4.447445 1.585155 0
M  V30 58 H -1.538059 -2.713464 1.499642 0
M  V30 END ATOM
M  V30 BEGIN BOND
M  V30 1 1 1 2
M  V30 2 1 2 3
M  V30 3 1 3 4
M  V30 4 1 4 5
M  V30 5 1 5 6
M  V30 6 2 6 7
M  V30 7 1 7 8
M  V30 8 2 8 9
M  V30 9 1 9 10
M  V30 10 1 10 11
M  V30 11 1 11 12
M  V30 12 2 12 13
M  V30 13 1 13 14
M  V30 14 2 14 15
M  V30 15 1 15 16
M  V30 16 2 16 17
M  V30 17 1 17 18
M  V30 18 1 17 19
M  V30 19 2 19 20
M  V30 20 1 20 21
M  V30 21 1 21 22
M  V30 22 1 22 23
M  V30 23 1 23 24
M  V30 24 1 23 25
M  V30 25 1 25 26
M  V30 26 1 26 27
M  V30 27 1 27 28
M  V30 28 1 28 29
M  V30 29 1 20 30
M  V30 30 2 30 31
M  V30 31 2 11 32
M  V30 32 1 32 33
M  V30 33 2 33 34
M  V30 34 1 7 2
M  V30 35 1 34 10
M  V30 36 1 34 6
M  V30 37 1 31 12
M  V30 38 1 30 15
M  V30 39 1 29 23
M  V30 40 1 1 35
M  V30 41 1 1 36
M  V30 42 1 1 37
M  V30 43 1 3 38
M  V30 44 1 3 39
M  V30 45 1 4 40
M  V30 46 1 4 41
M  V30 47 1 8 42
M  V30 48 1 13 43
M  V30 49 1 14 44
M  V30 50 1 16 45
M  V30 51 1 19 46
M  V30 52 1 21 47
M  V30 53 1 22 48
M  V30 54 1 22 49
M  V30 55 1 25 50
M  V30 56 1 25 51
M  V30 57 1 26 52
M  V30 58 1 26 53
M  V30 59 1 27 54
M  V30 60 1 28 55
M  V30 61 1 28 56
M  V30 62 1 29 57
M  V30 63 1 29 58
M  V30 END BOND
M  V30 END CTAB
M  END
>  <Dataset>  (701) 
ChEMBL_Kinases

>  <Ligand_Instance>  (701) 
nan

>  <PDB_ID>  (701) 
nan

>  <Standardized_SMILES>  (701) 
CN1CCOc2c1cnn1c(-c3ccc4cc(Cl)cc(NCC5(F)CCNCC5)c4n3)nnc21

>  <Name>  (701) 
nan

>  <Pocket>  (701) 
nan

>  <ATP_Site>  (701) 
nan

>  <Peripheral>  (701) 
nan

>  <Num_H_Atoms_ProtBoundConf>  (701) 
nan

>  <Num_Resolved_Atoms>  (701) 
nan

>  <Num_Not_Resolved_Atoms>  (701) 
nan

$$$$
CHEMBL200796
     RDKit          3D

  0  0  0  0  0  0  0  0  0  0999 V3000
M  V30 BEGIN CTAB
M  V30 COUNTS 30 32 0 0 0
M  V30 BEGIN ATOM
M  V30 1 C -1.829155 -3.876186 3.952582 0
M  V30 2 O -1.018519 -3.407298 2.911157 0
M  V30 3 C -0.603745 -4.087847 1.798964 0
M  V30 4 O -0.885837 -5.285226 1.512578 0
M  V30 5 C 0.264314 -3.362274 0.819192 0
M  V30 6 C 0.721451 -2.117316 0.836849 0
M  V30 7 C 1.499678 -1.675931 -0.195924 0
M  V30 8 C 2.156253 -0.521808 -0.585378 0
M  V30 9 N 2.263015 0.742356 0.059185 0
M  V30 10 C 1.052713 1.473353 0.226965 0
M  V30 11 C -0.158148 1.004932 -0.245918 0
M  V30 12 C -1.374504 1.661693 -0.094835 0
M  V30 13 C -1.351147 2.870956 0.581115 0
M  V30 14 C -0.191368 3.390057 1.072141 0
M  V30 15 C 1.010736 2.694136 0.896869 0
M  V30 16 N 2.776741 -0.713230 -1.759381 0
M  V30 17 N 2.575802 -1.922022 -2.177497 0
M  V30 18 C 1.769492 -2.545502 -1.200768 0
M  V30 19 S 0.852869 -4.093216 -0.633614 0
M  V30 20 H -2.857336 -3.431204 3.921717 0
M  V30 21 H -1.392894 -3.496604 4.897552 0
M  V30 22 H -1.902250 -4.976820 3.986663 0
M  V30 23 H 0.440332 -1.491341 1.705367 0
M  V30 24 H 3.134784 1.189056 0.419344 0
M  V30 25 H -0.204999 0.066208 -0.784896 0
M  V30 26 H -2.289943 1.228053 -0.492956 0
M  V30 27 H -2.313067 3.389105 0.700992 0
M  V30 28 H -0.234042 4.346279 1.593168 0
M  V30 29 H 1.923139 3.125194 1.298041 0
M  V30 30 H 3.368512 -0.194695 -2.436367 0
M  V30 END ATOM
M  V30 BEGIN BOND
M  V30 1 1 1 2
M  V30 2 1 2 3
M  V30 3 2 3 4
M  V30 4 1 3 5
M  V30 5 2 5 6
M  V30 6 1 6 7
M  V30 7 2 7 8
M  V30 8 1 8 9
M  V30 9 1 9 10
M  V30 10 2 10 11
M  V30 11 1 11 12
M  V30 12 2 12 13
M  V30 13 1 13 14
M  V30 14 2 14 15
M  V30 15 1 8 16
M  V30 16 1 16 17
M  V30 17 2 17 18
M  V30 18 1 18 19
M  V30 19 1 19 5
M  V30 20 1 18 7
M  V30 21 1 15 10
M  V30 22 1 1 20
M  V30 23 1 1 21
M  V30 24 1 1 22
M  V30 25 1 6 23
M  V30 26 1 9 24
M  V30 27 1 11 25
M  V30 28 1 12 26
M  V30 29 1 13 27
M  V30 30 1 14 28
M  V30 31 1 15 29
M  V30 32 1 16 30
M  V30 END BOND
M  V30 END CTAB
M  END
>  <Dataset>  (702) 
ChEMBL_Kinases

>  <Ligand_Instance>  (702) 
nan

>  <PDB_ID>  (702) 
nan

>  <Standardized_SMILES>  (702) 
COC(=O)c1cc2c(Nc3ccccc3)[nH]nc2s1

>  <Name>  (702) 
nan

>  <Pocket>  (702) 
nan

>  <ATP_Site>  (702) 
nan

>  <Peripheral>  (702) 
nan

>  <Num_H_Atoms_ProtBoundConf>  (702) 
nan

>  <Num_Resolved_Atoms>  (702) 
nan

>  <Num_Not_Resolved_Atoms>  (702) 
nan

$$$$
CHEMBL4744328
     RDKit          3D

  0  0  0  0  0  0  0  0  0  0999 V3000
M  V30 BEGIN CTAB
M  V30 COUNTS 64 69 0 0 0
M  V30 BEGIN ATOM
M  V30 1 C 6.285871 1.417996 4.458619 0
M  V30 2 C 7.102262 0.590841 3.508152 0
M  V30 3 C 8.566981 0.705019 3.900037 0
M  V30 4 C 6.698494 -0.857513 3.530980 0
M  V30 5 C 6.937118 1.123118 2.119385 0
M  V30 6 C 5.537819 1.088444 1.666041 0
M  V30 7 O 4.721180 0.626688 2.497996 0
M  V30 8 N 5.090177 1.527619 0.402649 0
M  V30 9 C 3.770429 1.528099 -0.106797 0
M  V30 10 C 3.567656 2.008874 -1.380474 0
M  V30 11 N 2.363634 2.058234 -1.966065 0
M  V30 12 C 1.252256 1.634350 -1.339153 0
M  V30 13 C 1.377803 1.138711 -0.058133 0
M  V30 14 C 0.210589 0.661807 0.679394 0
M  V30 15 C 0.280906 0.827700 2.056314 0
M  V30 16 N -0.754338 0.414034 2.809206 0
M  V30 17 C -1.839948 -0.149728 2.251594 0
M  V30 18 N -2.996325 -0.647647 2.722171 0
M  V30 19 N -3.746027 -1.093721 1.749866 0
M  V30 20 C -3.147606 -0.929894 0.533920 0
M  V30 21 C -3.714308 -1.317645 -0.721450 0
M  V30 22 C -4.968075 -1.919097 -0.835427 0
M  V30 23 C -5.298912 -2.198739 -2.117809 0
M  V30 24 C -6.381657 -2.772069 -2.753079 0
M  V30 25 C -7.527975 -3.228380 -1.973747 0
M  V30 26 C -7.917937 -4.511004 -2.361786 0
M  V30 27 C -8.989699 -5.146644 -1.759633 0
M  V30 28 C -9.665196 -4.475108 -0.760961 0
M  V30 29 N -9.279445 -3.238132 -0.395590 0
M  V30 30 C -8.240841 -2.606333 -0.970115 0
M  V30 31 C -6.386640 -2.910109 -4.130983 0
M  V30 32 N -5.322990 -2.477135 -4.832045 0
M  V30 33 C -4.261195 -1.918019 -4.242855 0
M  V30 34 C -4.240630 -1.773781 -2.875081 0
M  V30 35 N -3.350807 -1.270695 -2.005727 0
M  V30 36 C -1.957501 -0.337147 0.881678 0
M  V30 37 C -0.908500 0.082692 0.125840 0
M  V30 38 C 2.636577 1.107373 0.503708 0
M  V30 39 H 6.856316 1.656045 5.397550 0
M  V30 40 H 5.356820 0.885794 4.730442 0
M  V30 41 H 6.005149 2.358695 3.961509 0
M  V30 42 H 8.993526 1.558073 3.366299 0
M  V30 43 H 8.597846 0.819230 5.018508 0
M  V30 44 H 9.111423 -0.210446 3.659439 0
M  V30 45 H 6.448359 -1.205027 2.508294 0
M  V30 46 H 7.526265 -1.473519 3.922961 0
M  V30 47 H 5.803406 -0.936532 4.184432 0
M  V30 48 H 7.281234 2.184766 2.032907 0
M  V30 49 H 7.611021 0.531380 1.460019 0
M  V30 50 H 5.871849 1.880694 -0.173376 0
M  V30 51 H 4.389617 2.383571 -1.996217 0
M  V30 52 H 0.278164 1.671441 -1.805827 0
M  V30 53 H 1.077576 1.259158 2.649266 0
M  V30 54 H -3.301616 -0.695132 3.716703 0
M  V30 55 H -5.660325 -2.169075 -0.023525 0
M  V30 56 H -7.458593 -5.134484 -3.137339 0
M  V30 57 H -9.352340 -6.130948 -2.000103 0
M  V30 58 H -10.518110 -4.831622 -0.195349 0
M  V30 59 H -7.858961 -1.620918 -0.751501 0
M  V30 60 H -7.252804 -3.366625 -4.616287 0
M  V30 61 H -3.414462 -1.574768 -4.816497 0
M  V30 62 H -2.453609 -0.881142 -2.346659 0
M  V30 63 H -0.916440 -0.022078 -0.920812 0
M  V30 64 H 2.685954 0.715033 1.498239 0
M  V30 END ATOM
M  V30 BEGIN BOND
M  V30 1 1 1 2
M  V30 2 1 2 3
M  V30 3 1 2 4
M  V30 4 1 2 5
M  V30 5 1 5 6
M  V30 6 2 6 7
M  V30 7 1 6 8
M  V30 8 1 8 9
M  V30 9 2 9 10
M  V30 10 1 10 11
M  V30 11 2 11 12
M  V30 12 1 12 13
M  V30 13 1 13 14
M  V30 14 2 14 15
M  V30 15 1 15 16
M  V30 16 2 16 17
M  V30 17 1 17 18
M  V30 18 1 18 19
M  V30 19 2 19 20
M  V30 20 1 20 21
M  V30 21 2 21 22
M  V30 22 1 22 23
M  V30 23 2 23 24
M  V30 24 1 24 25
M  V30 25 2 25 26
M  V30 26 1 26 27
M  V30 27 2 27 28
M  V30 28 1 28 29
M  V30 29 2 29 30
M  V30 30 1 24 31
M  V30 31 2 31 32
M  V30 32 1 32 33
M  V30 33 2 33 34
M  V30 34 1 34 35
M  V30 35 1 20 36
M  V30 36 2 36 37
M  V30 37 2 13 38
M  V30 38 1 38 9
M  V30 39 1 37 14
M  V30 40 1 36 17
M  V30 41 1 35 21
M  V30 42 1 34 23
M  V30 43 1 30 25
M  V30 44 1 1 39
M  V30 45 1 1 40
M  V30 46 1 1 41
M  V30 47 1 3 42
M  V30 48 1 3 43
M  V30 49 1 3 44
M  V30 50 1 4 45
M  V30 51 1 4 46
M  V30 52 1 4 47
M  V30 53 1 5 48
M  V30 54 1 5 49
M  V30 55 1 8 50
M  V30 56 1 10 51
M  V30 57 1 12 52
M  V30 58 1 15 53
M  V30 59 1 18 54
M  V30 60 1 22 55
M  V30 61 1 26 56
M  V30 62 1 27 57
M  V30 63 1 28 58
M  V30 64 1 30 59
M  V30 65 1 31 60
M  V30 66 1 33 61
M  V30 67 1 35 62
M  V30 68 1 37 63
M  V30 69 1 38 64
M  V30 END BOND
M  V30 END CTAB
M  END
>  <Dataset>  (703) 
ChEMBL_Kinases

>  <Ligand_Instance>  (703) 
nan

>  <PDB_ID>  (703) 
nan

>  <Standardized_SMILES>  (703) 
CC(C)(C)CC(=O)Nc1cncc(-c2cnc3[nH]nc(-c4cc5c(-c6cccnc6)cncc5[nH]4)c3c2)c1

>  <Name>  (703) 
nan

>  <Pocket>  (703) 
nan

>  <ATP_Site>  (703) 
nan

>  <Peripheral>  (703) 
nan

>  <Num_H_Atoms_ProtBoundConf>  (703) 
nan

>  <Num_Resolved_Atoms>  (703) 
nan

>  <Num_Not_Resolved_Atoms>  (703) 
nan

$$$$
CHEMBL4457644
     RDKit          3D

  0  0  0  0  0  0  0  0  0  0999 V3000
M  V30 BEGIN CTAB
M  V30 COUNTS 27 30 0 0 0
M  V30 BEGIN ATOM
M  V30 1 O -0.743276 -0.334038 4.096733 0
M  V30 2 N -0.016885 -1.411506 3.628658 0
M  V30 3 C 0.311315 -1.454387 2.395562 0
M  V30 4 C 1.059771 -2.440121 1.626850 0
M  V30 5 C 1.627592 -3.630252 2.061405 0
M  V30 6 C 2.315995 -4.455911 1.168028 0
M  V30 7 C 2.383398 -4.007113 -0.138169 0
M  V30 8 C 1.841119 -2.837304 -0.629601 0
M  V30 9 C 1.172305 -2.062733 0.301849 0
M  V30 10 C 0.477151 -0.781094 0.173389 0
M  V30 11 N 0.302284 0.004826 -0.925507 0
M  V30 12 C -0.387616 1.178261 -0.826293 0
M  V30 13 N -0.539795 1.926445 -1.930375 0
M  V30 14 C -1.215534 3.108152 -1.907619 0
M  V30 15 C -1.720291 3.461804 -0.673297 0
M  V30 16 Cl -2.614925 4.974824 -0.524684 0
M  V30 17 C -1.600228 2.741108 0.497849 0
M  V30 18 C -0.895953 1.536128 0.412871 0
M  V30 19 N -0.717930 0.753210 1.492045 0
M  V30 20 C -0.030016 -0.423575 1.408597 0
M  V30 21 H -0.985827 -0.234404 5.073661 0
M  V30 22 H 1.567177 -3.965772 3.078598 0
M  V30 23 H 2.777386 -5.392755 1.451601 0
M  V30 24 H 2.920135 -4.652407 -0.831122 0
M  V30 25 H 1.938506 -2.560299 -1.662170 0
M  V30 26 H -1.366491 3.748085 -2.767575 0
M  V30 27 H -2.013706 3.066466 1.426950 0
M  V30 END ATOM
M  V30 BEGIN BOND
M  V30 1 1 1 2
M  V30 2 2 2 3
M  V30 3 1 3 4
M  V30 4 2 4 5
M  V30 5 1 5 6
M  V30 6 2 6 7
M  V30 7 1 7 8
M  V30 8 2 8 9
M  V30 9 1 9 10
M  V30 10 2 10 11
M  V30 11 1 11 12
M  V30 12 2 12 13
M  V30 13 1 13 14
M  V30 14 2 14 15
M  V30 15 1 15 16
M  V30 16 1 15 17
M  V30 17 2 17 18
M  V30 18 1 18 19
M  V30 19 2 19 20
M  V30 20 1 20 3
M  V30 21 1 9 4
M  V30 22 1 20 10
M  V30 23 1 18 12
M  V30 24 1 1 21
M  V30 25 1 5 22
M  V30 26 1 6 23
M  V30 27 1 7 24
M  V30 28 1 8 25
M  V30 29 1 14 26
M  V30 30 1 17 27
M  V30 END BOND
M  V30 END CTAB
M  END
>  <Dataset>  (704) 
ChEMBL_Kinases

>  <Ligand_Instance>  (704) 
nan

>  <PDB_ID>  (704) 
nan

>  <Standardized_SMILES>  (704) 
O/N=C1/c2ccccc2-c2nc3ncc(Cl)cc3nc21

>  <Name>  (704) 
nan

>  <Pocket>  (704) 
nan

>  <ATP_Site>  (704) 
nan

>  <Peripheral>  (704) 
nan

>  <Num_H_Atoms_ProtBoundConf>  (704) 
nan

>  <Num_Resolved_Atoms>  (704) 
nan

>  <Num_Not_Resolved_Atoms>  (704) 
nan

$$$$
CHEMBL4744291
     RDKit          3D

  0  0  0  0  0  0  0  0  0  0999 V3000
M  V30 BEGIN CTAB
M  V30 COUNTS 44 48 0 0 0
M  V30 BEGIN ATOM
M  V30 1 C 2.814487 -5.936081 4.009325 0
M  V30 2 N 2.324219 -5.439787 2.737310 0
M  V30 3 C 2.269339 -6.349469 1.607363 0
M  V30 4 C 1.918293 -4.077457 2.656722 0
M  V30 5 C 2.023014 -3.322970 3.806980 0
M  V30 6 N 1.640364 -2.014337 3.755995 0
M  V30 7 C 1.175086 -1.467228 2.627706 0
M  V30 8 C 1.049398 -2.171632 1.452607 0
M  V30 9 C 0.552391 -1.650759 0.182618 0
M  V30 10 C 0.137225 -0.351179 0.004686 0
M  V30 11 C -0.327385 0.149887 -1.167971 0
M  V30 12 C -0.780312 1.392413 -1.540906 0
M  V30 13 C -0.922315 2.623964 -0.797772 0
M  V30 14 C -0.692541 3.057633 0.477387 0
M  V30 15 C -1.015552 4.384819 0.661994 0
M  V30 16 C -0.941103 5.204942 1.768970 0
M  V30 17 N -1.328631 6.490517 1.677409 0
M  V30 18 C -1.782167 6.924166 0.476970 0
M  V30 19 C -1.866766 6.114686 -0.655922 0
M  V30 20 C -1.470388 4.790373 -0.571829 0
M  V30 21 N -1.399874 3.740800 -1.387815 0
M  V30 22 N -1.090305 1.235610 -2.824726 0
M  V30 23 N -0.862523 0.010857 -3.249813 0
M  V30 24 C -0.380865 -0.715238 -2.245323 0
M  V30 25 C 0.030162 -2.022140 -2.089874 0
M  V30 26 N 0.482522 -2.468726 -0.906007 0
M  V30 27 C 1.439511 -3.490519 1.520158 0
M  V30 28 H 3.726027 -5.398856 4.326727 0
M  V30 29 H 1.972424 -5.800800 4.735898 0
M  V30 30 H 3.005298 -7.024850 3.963997 0
M  V30 31 H 3.030765 -7.149750 1.686698 0
M  V30 32 H 2.545949 -5.749509 0.705198 0
M  V30 33 H 1.298428 -6.854286 1.483721 0
M  V30 34 H 2.391215 -3.692438 4.764738 0
M  V30 35 H 0.879793 -0.428141 2.618220 0
M  V30 36 H 0.195187 0.273488 0.852764 0
M  V30 37 H -0.301553 2.441648 1.265011 0
M  V30 38 H -0.571879 4.814412 2.707968 0
M  V30 39 H -2.120773 7.954298 0.301823 0
M  V30 40 H -2.227182 6.472185 -1.596691 0
M  V30 41 H -1.719265 3.904240 -2.378094 0
M  V30 42 H -1.044824 -0.300049 -4.228083 0
M  V30 43 H -0.017945 -2.683728 -2.939919 0
M  V30 44 H 1.360935 -4.091829 0.621370 0
M  V30 END ATOM
M  V30 BEGIN BOND
M  V30 1 1 1 2
M  V30 2 1 2 3
M  V30 3 1 2 4
M  V30 4 2 4 5
M  V30 5 1 5 6
M  V30 6 2 6 7
M  V30 7 1 7 8
M  V30 8 1 8 9
M  V30 9 2 9 10
M  V30 10 1 10 11
M  V30 11 1 11 12
M  V30 12 1 12 13
M  V30 13 2 13 14
M  V30 14 1 14 15
M  V30 15 2 15 16
M  V30 16 1 16 17
M  V30 17 2 17 18
M  V30 18 1 18 19
M  V30 19 2 19 20
M  V30 20 1 20 21
M  V30 21 2 12 22
M  V30 22 1 22 23
M  V30 23 1 23 24
M  V30 24 1 24 25
M  V30 25 2 25 26
M  V30 26 2 8 27
M  V30 27 1 27 4
M  V30 28 1 26 9
M  V30 29 2 24 11
M  V30 30 1 21 13
M  V30 31 1 20 15
M  V30 32 1 1 28
M  V30 33 1 1 29
M  V30 34 1 1 30
M  V30 35 1 3 31
M  V30 36 1 3 32
M  V30 37 1 3 33
M  V30 38 1 5 34
M  V30 39 1 7 35
M  V30 40 1 10 36
M  V30 41 1 14 37
M  V30 42 1 16 38
M  V30 43 1 18 39
M  V30 44 1 19 40
M  V30 45 1 21 41
M  V30 46 1 23 42
M  V30 47 1 25 43
M  V30 48 1 27 44
M  V30 END BOND
M  V30 END CTAB
M  END
>  <Dataset>  (705) 
ChEMBL_Kinases

>  <Ligand_Instance>  (705) 
nan

>  <PDB_ID>  (705) 
nan

>  <Standardized_SMILES>  (705) 
CN(C)c1cncc(-c2cc3c(-c4cc5cnccc5[nH]4)n[nH]c3cn2)c1

>  <Name>  (705) 
nan

>  <Pocket>  (705) 
nan

>  <ATP_Site>  (705) 
nan

>  <Peripheral>  (705) 
nan

>  <Num_H_Atoms_ProtBoundConf>  (705) 
nan

>  <Num_Resolved_Atoms>  (705) 
nan

>  <Num_Not_Resolved_Atoms>  (705) 
nan

$$$$
CHEMBL4457656
     RDKit          3D

  0  0  0  0  0  0  0  0  0  0999 V3000
M  V30 BEGIN CTAB
M  V30 COUNTS 72 75 0 0 0
M  V30 BEGIN ATOM
M  V30 1 C 5.914084 0.005792 3.921217 0
M  V30 2 C 5.969671 -1.146435 2.964311 0
M  V30 3 C 4.633323 -1.671575 2.646877 0 CFG=2
M  V30 4 C 4.746763 -2.877228 1.710407 0
M  V30 5 O 5.797448 -3.239221 1.110581 0
M  V30 6 N 3.553160 -3.662077 1.499212 0
M  V30 7 C 3.612496 -5.106352 1.284274 0
M  V30 8 C 2.338078 -2.890135 1.505521 0
M  V30 9 C 1.174887 -3.596759 1.309360 0
M  V30 10 N 0.041627 -2.833914 1.317815 0
M  V30 11 C 0.107506 -1.502611 1.506740 0
M  V30 12 N -1.059716 -0.688906 1.514531 0
M  V30 13 C -2.118385 -0.563479 0.535222 0
M  V30 14 C -1.834150 -1.422788 -0.543555 0
M  V30 15 C -2.724977 -1.451024 -1.594507 0
M  V30 16 F -2.541845 -2.235951 -2.668206 0
M  V30 17 C -3.867930 -0.681273 -1.630925 0
M  V30 18 C -4.911510 -0.578843 -2.635162 0
M  V30 19 O -5.919074 0.191778 -2.563188 0
M  V30 20 N -4.974732 -1.307970 -3.835547 0
M  V30 21 C -5.942649 -1.285673 -4.880992 0
M  V30 22 C -6.615341 -2.623097 -5.090298 0
M  V30 23 C -5.348177 -0.830331 -6.211235 0
M  V30 24 C -4.075984 0.130351 -0.544206 0
M  V30 25 C -3.271981 0.248559 0.556822 0
M  V30 26 O -3.214337 0.915192 1.707117 0
M  V30 27 C -3.950700 1.837337 2.400269 0
M  V30 28 C -5.335925 1.431636 2.836650 0
M  V30 29 O -6.197359 1.096916 1.830948 0
M  V30 30 N 1.239441 -0.844177 1.693873 0
M  V30 31 C 2.439564 -1.494967 1.706360 0
M  V30 32 N 3.717036 -0.796293 1.906381 0
M  V30 33 C 3.670137 0.499144 1.322591 0
M  V30 34 C 3.596949 1.711491 2.139433 0
M  V30 35 C 3.432842 2.822277 1.070643 0
M  V30 36 C 3.302885 2.075017 -0.265183 0
M  V30 37 C 2.681319 0.741774 0.233827 0
M  V30 38 H 6.521613 -0.250677 4.817728 0
M  V30 39 H 6.427160 0.893336 3.482297 0
M  V30 40 H 4.879742 0.214405 4.266147 0
M  V30 41 H 6.530590 -1.978956 3.475006 0
M  V30 42 H 6.606170 -0.908814 2.085004 0
M  V30 43 H 4.183199 -2.054786 3.569668 0
M  V30 44 H 4.592077 -5.490550 1.561618 0
M  V30 45 H 3.320955 -5.261280 0.221906 0
M  V30 46 H 2.829871 -5.634204 1.884128 0
M  V30 47 H 1.196123 -4.646634 1.166414 0
M  V30 48 H -1.177720 -0.085594 2.356984 0
M  V30 49 H -1.003237 -2.074591 -0.667476 0
M  V30 50 H -4.228419 -1.987901 -4.055940 0
M  V30 51 H -6.737941 -0.550508 -4.631531 0
M  V30 52 H -7.522058 -2.657592 -4.480872 0
M  V30 53 H -6.894287 -2.686688 -6.169492 0
M  V30 54 H -5.908507 -3.458317 -4.899784 0
M  V30 55 H -5.303041 0.264573 -6.256162 0
M  V30 56 H -6.002270 -1.237284 -7.017664 0
M  V30 57 H -4.351573 -1.299622 -6.336738 0
M  V30 58 H -4.921734 0.792569 -0.453292 0
M  V30 59 H -3.437489 2.148312 3.367957 0
M  V30 60 H -4.020952 2.764172 1.751579 0
M  V30 61 H -5.201837 0.547551 3.535810 0
M  V30 62 H -5.787018 2.244800 3.481313 0
M  V30 63 H -6.734591 0.282236 2.037708 0
M  V30 64 H 4.674337 0.576645 0.753001 0
M  V30 65 H 2.643129 1.746178 2.752584 0
M  V30 66 H 4.438015 2.002865 2.757476 0
M  V30 67 H 4.355130 3.446437 1.042325 0
M  V30 68 H 2.590154 3.476958 1.282047 0
M  V30 69 H 4.328192 1.889528 -0.643357 0
M  V30 70 H 2.631414 2.560038 -0.968660 0
M  V30 71 H 1.676917 1.120366 0.591049 0
M  V30 72 H 2.625712 -0.001289 -0.556125 0
M  V30 END ATOM
M  V30 BEGIN BOND
M  V30 1 1 1 2
M  V30 2 1 2 3
M  V30 3 1 3 4
M  V30 4 2 4 5
M  V30 5 1 4 6
M  V30 6 1 6 7
M  V30 7 1 6 8
M  V30 8 2 8 9
M  V30 9 1 9 10
M  V30 10 2 10 11
M  V30 11 1 11 12
M  V30 12 1 12 13
M  V30 13 2 13 14
M  V30 14 1 14 15
M  V30 15 1 15 16
M  V30 16 2 15 17
M  V30 17 1 17 18
M  V30 18 2 18 19
M  V30 19 1 18 20
M  V30 20 1 20 21
M  V30 21 1 21 22
M  V30 22 1 21 23
M  V30 23 1 17 24
M  V30 24 2 24 25
M  V30 25 1 25 26
M  V30 26 1 26 27
M  V30 27 1 27 28
M  V30 28 1 28 29
M  V30 29 1 11 30
M  V30 30 2 30 31
M  V30 31 1 31 32
M  V30 32 1 32 33
M  V30 33 1 33 34
M  V30 34 1 34 35
M  V30 35 1 35 36
M  V30 36 1 36 37
M  V30 37 1 32 3
M  V30 38 1 37 33
M  V30 39 1 31 8
M  V30 40 1 25 13
M  V30 41 1 1 38
M  V30 42 1 1 39
M  V30 43 1 1 40
M  V30 44 1 2 41
M  V30 45 1 2 42
M  V30 46 1 3 43 CFG=1
M  V30 47 1 7 44
M  V30 48 1 7 45
M  V30 49 1 7 46
M  V30 50 1 9 47
M  V30 51 1 12 48
M  V30 52 1 14 49
M  V30 53 1 20 50
M  V30 54 1 21 51
M  V30 55 1 22 52
M  V30 56 1 22 53
M  V30 57 1 22 54
M  V30 58 1 23 55
M  V30 59 1 23 56
M  V30 60 1 23 57
M  V30 61 1 24 58
M  V30 62 1 27 59
M  V30 63 1 27 60
M  V30 64 1 28 61
M  V30 65 1 28 62
M  V30 66 1 29 63
M  V30 67 1 33 64
M  V30 68 1 34 65
M  V30 69 1 34 66
M  V30 70 1 35 67
M  V30 71 1 35 68
M  V30 72 1 36 69
M  V30 73 1 36 70
M  V30 74 1 37 71
M  V30 75 1 37 72
M  V30 END BOND
M  V30 END CTAB
M  END
>  <Dataset>  (706) 
ChEMBL_Kinases

>  <Ligand_Instance>  (706) 
nan

>  <PDB_ID>  (706) 
nan

>  <Standardized_SMILES>  (706) 
CC[C@@H]1C(=O)N(C)c2cnc(Nc3cc(F)c(C(=O)NC(C)C)cc3OCCO)nc2N1C1CCCC1

>  <Name>  (706) 
nan

>  <Pocket>  (706) 
nan

>  <ATP_Site>  (706) 
nan

>  <Peripheral>  (706) 
nan

>  <Num_H_Atoms_ProtBoundConf>  (706) 
nan

>  <Num_Resolved_Atoms>  (706) 
nan

>  <Num_Not_Resolved_Atoms>  (706) 
nan

$$$$
CHEMBL2010872
     RDKit          3D

  0  0  0  0  0  0  0  0  0  0999 V3000
M  V30 BEGIN CTAB
M  V30 COUNTS 63 69 0 0 0
M  V30 BEGIN ATOM
M  V30 1 C 1.061126 -3.241090 4.550565 0
M  V30 2 C 1.096316 -2.425352 3.257512 0
M  V30 3 C 1.764152 -3.232500 2.222851 0
M  V30 4 C -0.240464 -1.798325 2.923204 0
M  V30 5 N -0.265529 -1.051855 1.720604 0
M  V30 6 C 0.193859 0.235900 1.654244 0
M  V30 7 C 0.750973 1.060821 2.632220 0
M  V30 8 C 1.131747 2.334402 2.286991 0
M  V30 9 C 1.001359 2.862669 1.028296 0
M  V30 10 N 1.377466 4.166575 0.622846 0
M  V30 11 C 1.955767 5.166373 1.441460 0
M  V30 12 N 2.256889 6.359968 0.901560 0
M  V30 13 C 2.804329 7.388031 1.559695 0
M  V30 14 C 3.096545 7.249715 2.897601 0
M  V30 15 C 2.804087 6.042727 3.490505 0
M  V30 16 N 2.257423 5.079839 2.741807 0
M  V30 17 C 0.446347 2.004842 0.105592 0
M  V30 18 C 0.042440 0.719015 0.378059 0
M  V30 19 C -0.527890 -0.297452 -0.366558 0
M  V30 20 C -0.881196 -0.274208 -1.711801 0
M  V30 21 C -1.454340 -1.433333 -2.190429 0
M  V30 22 C -1.651521 -2.509181 -1.391082 0
M  V30 23 C -1.310721 -2.553580 -0.062430 0
M  V30 24 C -0.719819 -1.400759 0.478251 0
M  V30 25 C -1.555372 -3.641991 0.872971 0
M  V30 26 C -2.064723 -4.901222 0.218582 0
M  V30 27 C -2.428228 -4.786080 -1.187947 0
M  V30 28 N -2.992461 -5.813518 -1.860375 0
M  V30 29 N -3.185606 -5.400694 -3.114989 0
M  V30 30 C -3.777989 -6.237352 -4.145577 0
M  V30 31 C -2.732139 -4.145075 -3.149875 0
M  V30 32 C -2.238703 -3.677132 -1.983990 0
M  V30 33 C -1.718952 -1.130706 -3.561596 0
M  V30 34 O -2.192320 -1.678346 -4.520366 0
M  V30 35 N -1.321407 0.177800 -3.920170 0
M  V30 36 C -0.731859 0.794516 -2.723825 0
M  V30 37 H -0.026171 -3.437008 4.760661 0
M  V30 38 H 1.536633 -4.224009 4.433310 0
M  V30 39 H 1.474525 -2.711842 5.409210 0
M  V30 40 H 1.765424 -1.520735 3.517330 0
M  V30 41 H 1.409139 -2.866666 1.223355 0
M  V30 42 H 1.571947 -4.323966 2.311916 0
M  V30 43 H 2.870604 -3.072112 2.198874 0
M  V30 44 H -1.088711 -2.444003 3.168833 0
M  V30 45 H -0.365904 -1.025644 3.761459 0
M  V30 46 H 0.879126 0.699746 3.646886 0
M  V30 47 H 1.547834 2.914065 3.068991 0
M  V30 48 H 1.214610 4.422985 -0.379642 0
M  V30 49 H 3.031897 8.334088 1.088470 0
M  V30 50 H 3.537551 8.002560 3.535980 0
M  V30 51 H 3.009980 5.873863 4.535727 0
M  V30 52 H 0.309681 2.352880 -0.908261 0
M  V30 53 H -2.463066 -3.398813 1.537282 0
M  V30 54 H -0.719468 -3.993069 1.463253 0
M  V30 55 H -2.954641 -5.338480 0.778846 0
M  V30 56 H -1.313811 -5.745719 0.318672 0
M  V30 57 H -4.265232 -5.604067 -4.925333 0
M  V30 58 H -4.501117 -6.955595 -3.735160 0
M  V30 59 H -2.979451 -6.819758 -4.690426 0
M  V30 60 H -2.807464 -3.661094 -4.071106 0
M  V30 61 H -1.311581 0.829220 -4.740794 0
M  V30 62 H -1.371997 1.656141 -2.465043 0
M  V30 63 H 0.304611 1.111022 -2.917401 0
M  V30 END ATOM
M  V30 BEGIN BOND
M  V30 1 1 1 2
M  V30 2 1 2 3
M  V30 3 1 2 4
M  V30 4 1 4 5
M  V30 5 1 5 6
M  V30 6 2 6 7
M  V30 7 1 7 8
M  V30 8 2 8 9
M  V30 9 1 9 10
M  V30 10 1 10 11
M  V30 11 2 11 12
M  V30 12 1 12 13
M  V30 13 2 13 14
M  V30 14 1 14 15
M  V30 15 2 15 16
M  V30 16 1 9 17
M  V30 17 2 17 18
M  V30 18 1 18 19
M  V30 19 2 19 20
M  V30 20 1 20 21
M  V30 21 2 21 22
M  V30 22 1 22 23
M  V30 23 2 23 24
M  V30 24 1 23 25
M  V30 25 1 25 26
M  V30 26 1 26 27
M  V30 27 2 27 28
M  V30 28 1 28 29
M  V30 29 1 29 30
M  V30 30 1 29 31
M  V30 31 2 31 32
M  V30 32 1 21 33
M  V30 33 2 33 34
M  V30 34 1 33 35
M  V30 35 1 35 36
M  V30 36 1 24 5
M  V30 37 1 32 27
M  V30 38 1 18 6
M  V30 39 1 24 19
M  V30 40 1 16 11
M  V30 41 1 36 20
M  V30 42 1 32 22
M  V30 43 1 1 37
M  V30 44 1 1 38
M  V30 45 1 1 39
M  V30 46 1 2 40
M  V30 47 1 3 41
M  V30 48 1 3 42
M  V30 49 1 3 43
M  V30 50 1 4 44
M  V30 51 1 4 45
M  V30 52 1 7 46
M  V30 53 1 8 47
M  V30 54 1 10 48
M  V30 55 1 13 49
M  V30 56 1 14 50
M  V30 57 1 15 51
M  V30 58 1 17 52
M  V30 59 1 25 53
M  V30 60 1 25 54
M  V30 61 1 26 55
M  V30 62 1 26 56
M  V30 63 1 30 57
M  V30 64 1 30 58
M  V30 65 1 30 59
M  V30 66 1 31 60
M  V30 67 1 35 61
M  V30 68 1 36 62
M  V30 69 1 36 63
M  V30 END BOND
M  V30 END CTAB
M  END
>  <Dataset>  (707) 
ChEMBL_Kinases

>  <Ligand_Instance>  (707) 
nan

>  <PDB_ID>  (707) 
nan

>  <Standardized_SMILES>  (707) 
CC(C)Cn1c2ccc(Nc3ncccn3)cc2c2c3c(c4c(c21)CCc1nn(C)cc1-4)C(=O)NC3

>  <Name>  (707) 
CEP-11981

>  <Pocket>  (707) 
nan

>  <ATP_Site>  (707) 
nan

>  <Peripheral>  (707) 
nan

>  <Num_H_Atoms_ProtBoundConf>  (707) 
nan

>  <Num_Resolved_Atoms>  (707) 
nan

>  <Num_Not_Resolved_Atoms>  (707) 
nan

$$$$
CHEMBL4744274
     RDKit          3D

  0  0  0  0  0  0  0  0  0  0999 V3000
M  V30 BEGIN CTAB
M  V30 COUNTS 35 39 0 0 0
M  V30 BEGIN ATOM
M  V30 1 C 0.814234 -3.869838 3.056046 0
M  V30 2 C 1.793453 -4.842923 3.179998 0
M  V30 3 N 2.861229 -4.817381 2.367630 0
M  V30 4 C 3.033386 -3.867021 1.411538 0
M  V30 5 C 2.097730 -2.868981 1.233593 0
M  V30 6 C 2.168737 -1.808362 0.256198 0
M  V30 7 C 3.212151 -1.671985 -0.634805 0
M  V30 8 C 3.276839 -0.656860 -1.567861 0
M  V30 9 C 2.278308 0.291880 -1.656288 0
M  V30 10 N 1.996526 1.388985 -2.404453 0
M  V30 11 N 0.833751 1.892477 -1.983092 0
M  V30 12 C 0.354826 1.142098 -0.974380 0
M  V30 13 C -0.894092 1.375401 -0.253669 0
M  V30 14 N -1.373243 0.625245 0.755019 0
M  V30 15 C -2.551136 1.131099 1.185511 0
M  V30 16 C -3.392854 0.695196 2.188456 0
M  V30 17 N -4.531304 1.411999 2.405814 0
M  V30 18 C -4.802074 2.511173 1.647698 0
M  V30 19 C -3.955259 2.946537 0.641453 0
M  V30 20 C -2.778684 2.239101 0.387714 0
M  V30 21 N -1.755473 2.380957 -0.493120 0
M  V30 22 C 1.249366 0.116836 -0.742277 0
M  V30 23 N 1.211214 -0.870170 0.146624 0
M  V30 24 C 1.008974 -2.914333 2.078760 0
M  V30 25 H -0.075495 -3.825825 3.676016 0
M  V30 26 H 1.654917 -5.594819 3.938150 0
M  V30 27 H 3.895893 -3.859324 0.766623 0
M  V30 28 H 4.032688 -2.376791 -0.627379 0
M  V30 29 H 4.112057 -0.554120 -2.275475 0
M  V30 30 H 2.639169 1.698668 -3.150024 0
M  V30 31 H -3.138412 -0.183326 2.766248 0
M  V30 32 H -5.724178 3.036478 1.871955 0
M  V30 33 H -4.188429 3.821886 0.050689 0
M  V30 34 H -1.702154 3.150438 -1.203559 0
M  V30 35 H 0.231499 -2.145851 1.983942 0
M  V30 END ATOM
M  V30 BEGIN BOND
M  V30 1 2 1 2
M  V30 2 1 2 3
M  V30 3 2 3 4
M  V30 4 1 4 5
M  V30 5 1 5 6
M  V30 6 2 6 7
M  V30 7 1 7 8
M  V30 8 2 8 9
M  V30 9 1 9 10
M  V30 10 1 10 11
M  V30 11 2 11 12
M  V30 12 1 12 13
M  V30 13 2 13 14
M  V30 14 1 14 15
M  V30 15 2 15 16
M  V30 16 1 16 17
M  V30 17 2 17 18
M  V30 18 1 18 19
M  V30 19 2 19 20
M  V30 20 1 20 21
M  V30 21 1 12 22
M  V30 22 2 22 23
M  V30 23 2 5 24
M  V30 24 1 24 1
M  V30 25 1 23 6
M  V30 26 1 22 9
M  V30 27 1 21 13
M  V30 28 1 20 15
M  V30 29 1 1 25
M  V30 30 1 2 26
M  V30 31 1 4 27
M  V30 32 1 7 28
M  V30 33 1 8 29
M  V30 34 1 10 30
M  V30 35 1 16 31
M  V30 36 1 18 32
M  V30 37 1 19 33
M  V30 38 1 21 34
M  V30 39 1 24 35
M  V30 END BOND
M  V30 END CTAB
M  END
>  <Dataset>  (708) 
ChEMBL_Kinases

>  <Ligand_Instance>  (708) 
nan

>  <PDB_ID>  (708) 
nan

>  <Standardized_SMILES>  (708) 
c1cncc(-c2ccc3[nH]nc(-c4nc5cnccc5[nH]4)c3n2)c1

>  <Name>  (708) 
nan

>  <Pocket>  (708) 
nan

>  <ATP_Site>  (708) 
nan

>  <Peripheral>  (708) 
nan

>  <Num_H_Atoms_ProtBoundConf>  (708) 
nan

>  <Num_Resolved_Atoms>  (708) 
nan

>  <Num_Not_Resolved_Atoms>  (708) 
nan

$$$$
CHEMBL4744253
     RDKit          3D

  0  0  0  0  0  0  0  0  0  0999 V3000
M  V30 BEGIN CTAB
M  V30 COUNTS 56 61 0 0 0
M  V30 BEGIN ATOM
M  V30 1 C 3.386926 -2.922399 3.279042 0
M  V30 2 C 4.563460 -2.029052 2.976822 0
M  V30 3 N 4.192736 -0.885811 2.206955 0
M  V30 4 C 3.782336 -1.167604 0.846842 0
M  V30 5 C 3.417149 0.179385 0.268659 0
M  V30 6 C 4.346507 0.998062 -0.367053 0
M  V30 7 N 3.940443 2.189987 -0.838118 0
M  V30 8 C 2.689913 2.662281 -0.743182 0
M  V30 9 C 1.756943 1.860649 -0.115353 0
M  V30 10 C 0.377039 2.302978 0.055853 0
M  V30 11 C 0.255015 3.667744 0.236670 0
M  V30 12 C -0.971185 4.273879 0.414270 0
M  V30 13 C -2.108997 3.457347 0.406201 0
M  V30 14 N -3.417909 3.768506 0.556237 0
M  V30 15 N -4.082935 2.604416 0.465964 0
M  V30 16 C -3.207340 1.607413 0.266151 0
M  V30 17 C -3.615812 0.195761 0.118707 0
M  V30 18 N -2.795024 -0.868434 -0.106619 0
M  V30 19 C -3.563444 -1.990367 -0.194477 0
M  V30 20 C -3.217271 -3.321535 -0.413623 0
M  V30 21 C -1.822136 -3.664209 -0.595579 0
M  V30 22 C -1.415916 -4.957784 -0.808306 0
M  V30 23 C -0.072918 -5.269901 -0.982060 0
M  V30 24 C 0.881583 -4.251725 -0.939957 0
M  V30 25 C 0.429588 -2.968397 -0.724205 0
M  V30 26 N -0.865901 -2.715233 -0.562858 0
M  V30 27 N -4.243665 -4.213473 -0.443924 0
M  V30 28 C -5.526900 -3.857963 -0.275154 0
M  V30 29 C -5.874911 -2.540275 -0.058088 0
M  V30 30 C -4.887384 -1.574020 -0.013806 0
M  V30 31 N -4.885011 -0.246741 0.173004 0
M  V30 32 C -1.922949 2.106498 0.221241 0
M  V30 33 C -0.733002 1.478853 0.044116 0
M  V30 34 C 2.120829 0.609199 0.395016 0
M  V30 35 H 2.451751 -2.317303 3.090467 0
M  V30 36 H 3.358486 -3.814802 2.589410 0
M  V30 37 H 3.450096 -3.253482 4.330862 0
M  V30 38 H 4.955084 -1.648093 3.947296 0
M  V30 39 H 5.402381 -2.560222 2.494460 0
M  V30 40 H 3.623929 -0.173755 2.669753 0
M  V30 41 H 2.868817 -1.790889 0.881005 0
M  V30 42 H 4.618273 -1.632758 0.293550 0
M  V30 43 H 5.356074 0.614944 -0.444036 0
M  V30 44 H 2.433018 3.631027 -1.146031 0
M  V30 45 H 1.097098 4.355992 0.253767 0
M  V30 46 H -1.082785 5.340562 0.556736 0
M  V30 47 H -3.753519 4.752343 0.708566 0
M  V30 48 H -2.193573 -5.694882 -0.830412 0
M  V30 49 H 0.208378 -6.309992 -1.148168 0
M  V30 50 H 1.936524 -4.475408 -1.073682 0
M  V30 51 H 1.104781 -2.126750 -0.681159 0
M  V30 52 H -6.247482 -4.676241 -0.323307 0
M  V30 53 H -6.919200 -2.284104 0.074107 0
M  V30 54 H -5.745039 0.348400 0.336606 0
M  V30 55 H -0.585883 0.420448 -0.101616 0
M  V30 56 H 1.376433 -0.028934 0.895281 0
M  V30 END ATOM
M  V30 BEGIN BOND
M  V30 1 1 1 2
M  V30 2 1 2 3
M  V30 3 1 3 4
M  V30 4 1 4 5
M  V30 5 2 5 6
M  V30 6 1 6 7
M  V30 7 2 7 8
M  V30 8 1 8 9
M  V30 9 1 9 10
M  V30 10 2 10 11
M  V30 11 1 11 12
M  V30 12 2 12 13
M  V30 13 1 13 14
M  V30 14 1 14 15
M  V30 15 2 15 16
M  V30 16 1 16 17
M  V30 17 2 17 18
M  V30 18 1 18 19
M  V30 19 2 19 20
M  V30 20 1 20 21
M  V30 21 2 21 22
M  V30 22 1 22 23
M  V30 23 2 23 24
M  V30 24 1 24 25
M  V30 25 2 25 26
M  V30 26 1 20 27
M  V30 27 2 27 28
M  V30 28 1 28 29
M  V30 29 2 29 30
M  V30 30 1 30 31
M  V30 31 1 16 32
M  V30 32 2 32 33
M  V30 33 2 9 34
M  V30 34 1 34 5
M  V30 35 1 33 10
M  V30 36 1 32 13
M  V30 37 1 31 17
M  V30 38 1 30 19
M  V30 39 1 26 21
M  V30 40 1 1 35
M  V30 41 1 1 36
M  V30 42 1 1 37
M  V30 43 1 2 38
M  V30 44 1 2 39
M  V30 45 1 3 40
M  V30 46 1 4 41
M  V30 47 1 4 42
M  V30 48 1 6 43
M  V30 49 1 8 44
M  V30 50 1 11 45
M  V30 51 1 12 46
M  V30 52 1 14 47
M  V30 53 1 22 48
M  V30 54 1 23 49
M  V30 55 1 24 50
M  V30 56 1 25 51
M  V30 57 1 28 52
M  V30 58 1 29 53
M  V30 59 1 31 54
M  V30 60 1 33 55
M  V30 61 1 34 56
M  V30 END BOND
M  V30 END CTAB
M  END
>  <Dataset>  (709) 
ChEMBL_Kinases

>  <Ligand_Instance>  (709) 
nan

>  <PDB_ID>  (709) 
nan

>  <Standardized_SMILES>  (709) 
CCNCc1cncc(-c2ccc3[nH]nc(-c4nc5c(-c6ccccn6)nccc5[nH]4)c3c2)c1

>  <Name>  (709) 
nan

>  <Pocket>  (709) 
nan

>  <ATP_Site>  (709) 
nan

>  <Peripheral>  (709) 
nan

>  <Num_H_Atoms_ProtBoundConf>  (709) 
nan

>  <Num_Resolved_Atoms>  (709) 
nan

>  <Num_Not_Resolved_Atoms>  (709) 
nan

$$$$
CHEMBL2392361
     RDKit          3D

  0  0  0  0  0  0  0  0  0  0999 V3000
M  V30 BEGIN CTAB
M  V30 COUNTS 39 41 0 0 0
M  V30 BEGIN ATOM
M  V30 1 C 1.167198 -6.102702 -0.830243 0
M  V30 2 O 1.759916 -5.653219 0.384094 0
M  V30 3 C 1.737498 -4.315787 0.743296 0
M  V30 4 C 2.331576 -3.986293 1.924817 0
M  V30 5 C 2.322131 -2.664158 2.303015 0
M  V30 6 C 1.716392 -1.720527 1.480851 0
M  V30 7 C 1.113130 -2.006918 0.295541 0
M  V30 8 C 0.483389 -1.002356 -0.546687 0
M  V30 9 C -0.079542 -1.425109 -1.726149 0
M  V30 10 C -0.663291 -0.484800 -2.522824 0
M  V30 11 N -0.680912 0.804653 -2.156844 0
M  V30 12 C -0.121879 1.228830 -0.983621 0
M  V30 13 N -0.171997 2.613967 -0.667691 0
M  V30 14 C 0.295325 3.285680 0.511949 0
M  V30 15 C -0.399422 2.883747 1.757972 0
M  V30 16 C -0.061410 1.899489 2.661557 0
M  V30 17 C -0.825989 1.645065 3.779286 0
M  V30 18 C -1.965696 2.382458 4.022641 0
M  V30 19 Cl -2.964095 2.084853 5.438986 0
M  V30 20 C -2.375594 3.382525 3.173928 0
M  V30 21 C -1.569347 3.592389 2.069718 0
M  V30 22 N 0.454317 0.293586 -0.199267 0
M  V30 23 C 1.150394 -3.341407 -0.035647 0
M  V30 24 H 0.124806 -5.695577 -0.924725 0
M  V30 25 H 1.120716 -7.218493 -0.747514 0
M  V30 26 H 1.771542 -5.838838 -1.719234 0
M  V30 27 H 2.794910 -4.734695 2.545720 0
M  V30 28 H 2.796224 -2.406864 3.243396 0
M  V30 29 H 1.767368 -0.732383 1.864602 0
M  V30 30 H -0.140267 -2.399064 -2.140490 0
M  V30 31 H -1.147649 -0.653763 -3.476814 0
M  V30 32 H -0.618428 3.237932 -1.409647 0
M  V30 33 H 1.408880 3.155081 0.612189 0
M  V30 34 H 0.162266 4.376082 0.390447 0
M  V30 35 H 0.845459 1.382837 2.384832 0
M  V30 36 H -0.509541 0.861620 4.449855 0
M  V30 37 H -3.249960 3.964764 3.338848 0
M  V30 38 H -1.907181 4.394155 1.399222 0
M  V30 39 H 0.715725 -3.727561 -0.943252 0
M  V30 END ATOM
M  V30 BEGIN BOND
M  V30 1 1 1 2
M  V30 2 1 2 3
M  V30 3 2 3 4
M  V30 4 1 4 5
M  V30 5 2 5 6
M  V30 6 1 6 7
M  V30 7 1 7 8
M  V30 8 2 8 9
M  V30 9 1 9 10
M  V30 10 2 10 11
M  V30 11 1 11 12
M  V30 12 1 12 13
M  V30 13 1 13 14
M  V30 14 1 14 15
M  V30 15 2 15 16
M  V30 16 1 16 17
M  V30 17 2 17 18
M  V30 18 1 18 19
M  V30 19 1 18 20
M  V30 20 2 20 21
M  V30 21 2 12 22
M  V30 22 2 7 23
M  V30 23 1 23 3
M  V30 24 1 22 8
M  V30 25 1 21 15
M  V30 26 1 1 24
M  V30 27 1 1 25
M  V30 28 1 1 26
M  V30 29 1 4 27
M  V30 30 1 5 28
M  V30 31 1 6 29
M  V30 32 1 9 30
M  V30 33 1 10 31
M  V30 34 1 13 32
M  V30 35 1 14 33
M  V30 36 1 14 34
M  V30 37 1 16 35
M  V30 38 1 17 36
M  V30 39 1 20 37
M  V30 40 1 21 38
M  V30 41 1 23 39
M  V30 END BOND
M  V30 END CTAB
M  END
>  <Dataset>  (710) 
ChEMBL_Kinases

>  <Ligand_Instance>  (710) 
nan

>  <PDB_ID>  (710) 
nan

>  <Standardized_SMILES>  (710) 
COc1cccc(-c2ccnc(NCc3ccc(Cl)cc3)n2)c1

>  <Name>  (710) 
nan

>  <Pocket>  (710) 
nan

>  <ATP_Site>  (710) 
nan

>  <Peripheral>  (710) 
nan

>  <Num_H_Atoms_ProtBoundConf>  (710) 
nan

>  <Num_Resolved_Atoms>  (710) 
nan

>  <Num_Not_Resolved_Atoms>  (710) 
nan

$$$$
CHEMBL4744152
     RDKit          3D

  0  0  0  0  0  0  0  0  0  0999 V3000
M  V30 BEGIN CTAB
M  V30 COUNTS 47 49 0 0 0
M  V30 BEGIN ATOM
M  V30 1 C 1.245405 -4.582178 -0.897791 0
M  V30 2 C 0.892023 -3.190553 -1.409712 0
M  V30 3 C -0.465541 -3.339010 -2.139643 0
M  V30 4 O 1.796486 -2.803830 -2.310870 0
M  V30 5 C 2.523396 -1.685574 -2.147826 0
M  V30 6 C 3.509992 -1.587988 -1.054096 0
M  V30 7 C 3.111443 -1.665793 0.355402 0
M  V30 8 N 2.183494 -0.668745 0.825067 0
M  V30 9 C 2.377277 0.720237 0.837212 0
M  V30 10 O 3.537467 0.920992 0.350700 0
M  V30 11 C 1.599423 1.851255 1.250570 0
M  V30 12 N 2.177287 3.066048 1.074090 0
M  V30 13 N 1.339625 4.005638 1.502476 0
M  V30 14 C 0.189579 3.501421 1.975937 0
M  V30 15 C -0.986858 3.963248 2.523258 0
M  V30 16 C -1.942067 3.036254 2.884587 0
M  V30 17 C -1.760000 1.667577 2.717098 0
M  V30 18 C -2.795244 0.722925 3.112873 0
M  V30 19 C -2.885835 -0.449236 2.377311 0
M  V30 20 C -3.847129 -1.400860 2.692629 0
M  V30 21 C -4.673344 -1.105289 3.750744 0
M  V30 22 N -4.592541 0.016906 4.461076 0
M  V30 23 C -3.653792 0.954649 4.159174 0
M  V30 24 C -0.572678 1.240941 2.167196 0
M  V30 25 C 0.386086 2.149231 1.803143 0
M  V30 26 H 0.500717 -5.350009 -1.204494 0
M  V30 27 H 2.255633 -4.836980 -1.214048 0
M  V30 28 H 1.229172 -4.562242 0.202826 0
M  V30 29 H 0.785185 -2.503317 -0.573417 0
M  V30 30 H -1.296011 -3.109818 -1.442102 0
M  V30 31 H -0.518134 -2.605267 -2.961830 0
M  V30 32 H -0.542527 -4.368521 -2.515343 0
M  V30 33 H 3.135333 -1.555099 -3.115680 0
M  V30 34 H 1.875497 -0.745736 -2.203783 0
M  V30 35 H 4.180575 -0.692564 -1.169369 0
M  V30 36 H 4.228725 -2.470155 -1.225153 0
M  V30 37 H 4.076326 -1.602114 0.962059 0
M  V30 38 H 2.737387 -2.669015 0.615134 0
M  V30 39 H 1.263267 -0.966797 1.201823 0
M  V30 40 H 1.555374 5.033636 1.473162 0
M  V30 41 H -1.098863 5.033549 2.641137 0
M  V30 42 H -2.851357 3.438290 3.310661 0
M  V30 43 H -2.229874 -0.683450 1.537342 0
M  V30 44 H -3.985599 -2.339274 2.171425 0
M  V30 45 H -5.447088 -1.797720 4.056383 0
M  V30 46 H -3.511439 1.883378 4.669470 0
M  V30 47 H -0.446165 0.186688 2.044787 0
M  V30 END ATOM
M  V30 BEGIN BOND
M  V30 1 1 1 2
M  V30 2 1 2 3
M  V30 3 1 2 4
M  V30 4 1 4 5
M  V30 5 1 5 6
M  V30 6 1 6 7
M  V30 7 1 7 8
M  V30 8 1 8 9
M  V30 9 2 9 10
M  V30 10 1 9 11
M  V30 11 2 11 12
M  V30 12 1 12 13
M  V30 13 1 13 14
M  V30 14 2 14 15
M  V30 15 1 15 16
M  V30 16 2 16 17
M  V30 17 1 17 18
M  V30 18 2 18 19
M  V30 19 1 19 20
M  V30 20 2 20 21
M  V30 21 1 21 22
M  V30 22 2 22 23
M  V30 23 1 17 24
M  V30 24 2 24 25
M  V30 25 1 25 11
M  V30 26 1 25 14
M  V30 27 1 23 18
M  V30 28 1 1 26
M  V30 29 1 1 27
M  V30 30 1 1 28
M  V30 31 1 2 29
M  V30 32 1 3 30
M  V30 33 1 3 31
M  V30 34 1 3 32
M  V30 35 1 5 33
M  V30 36 1 5 34
M  V30 37 1 6 35
M  V30 38 1 6 36
M  V30 39 1 7 37
M  V30 40 1 7 38
M  V30 41 1 8 39
M  V30 42 1 13 40
M  V30 43 1 15 41
M  V30 44 1 16 42
M  V30 45 1 19 43
M  V30 46 1 20 44
M  V30 47 1 21 45
M  V30 48 1 23 46
M  V30 49 1 24 47
M  V30 END BOND
M  V30 END CTAB
M  END
>  <Dataset>  (711) 
ChEMBL_Kinases

>  <Ligand_Instance>  (711) 
nan

>  <PDB_ID>  (711) 
nan

>  <Standardized_SMILES>  (711) 
CC(C)OCCCNC(=O)c1n[nH]c2ccc(-c3cccnc3)cc12

>  <Name>  (711) 
nan

>  <Pocket>  (711) 
nan

>  <ATP_Site>  (711) 
nan

>  <Peripheral>  (711) 
nan

>  <Num_H_Atoms_ProtBoundConf>  (711) 
nan

>  <Num_Resolved_Atoms>  (711) 
nan

>  <Num_Not_Resolved_Atoms>  (711) 
nan

$$$$
CHEMBL4743940
     RDKit          3D

  0  0  0  0  0  0  0  0  0  0999 V3000
M  V30 BEGIN CTAB
M  V30 COUNTS 65 70 0 0 0
M  V30 BEGIN ATOM
M  V30 1 O 1.790114 -0.040457 4.374849 0
M  V30 2 C 1.074527 -0.763775 3.599503 0
M  V30 3 N 1.182577 -0.160173 2.332594 0
M  V30 4 C 1.975560 0.995385 2.199233 0
M  V30 5 C 3.318616 1.167469 1.900879 0
M  V30 6 C 3.824853 2.449545 1.838443 0
M  V30 7 C 3.047341 3.566943 2.061248 0
M  V30 8 C 3.616435 4.892940 1.987061 0
M  V30 9 C 4.908024 5.206812 1.706221 0
M  V30 10 C 5.366675 6.506018 1.656243 0
M  V30 11 C 4.517981 7.584394 1.894673 0
M  V30 12 C 3.202564 7.294803 2.181837 0
M  V30 13 C 2.788041 5.994907 2.221676 0
M  V30 14 N 1.727071 3.392376 2.354326 0
M  V30 15 C 1.198268 2.139354 2.423067 0
M  V30 16 C 0.403612 -1.904184 4.168815 0
M  V30 17 N 0.577611 -2.110095 5.487826 0
M  V30 18 N -0.112072 -3.202440 5.847097 0
M  V30 19 C -0.760438 -3.760974 4.813386 0
M  V30 20 C -1.582803 -4.842645 4.595868 0
M  V30 21 C -2.046823 -5.058026 3.314997 0
M  V30 22 C -1.708991 -4.219380 2.248557 0
M  V30 23 C -2.205028 -4.453028 0.892953 0
M  V30 24 C -2.467507 -5.717060 0.379813 0
M  V30 25 N -2.919552 -5.855077 -0.878950 0
M  V30 26 C -3.135713 -4.802866 -1.686689 0
M  V30 27 C -2.905730 -3.507552 -1.272167 0
M  V30 28 C -3.097636 -2.263270 -2.062569 0
M  V30 29 N -1.947695 -1.851949 -2.780094 0
M  V30 30 C -1.433886 -2.725745 -3.770778 0
M  V30 31 C -2.315568 -2.942341 -4.941615 0
M  V30 32 C -3.048605 -1.745576 -5.449675 0
M  V30 33 C -3.259089 -0.665210 -4.433362 0
M  V30 34 C -2.187717 -0.574318 -3.403474 0
M  V30 35 C -2.438700 -3.398085 0.034861 0
M  V30 36 C -0.884772 -3.147169 2.501939 0
M  V30 37 C -0.419565 -2.926934 3.773640 0
M  V30 38 H 0.633399 -0.668463 1.611528 0
M  V30 39 H 3.805352 0.231052 1.751516 0
M  V30 40 H 4.873061 2.496870 1.602222 0
M  V30 41 H 5.594511 4.397798 1.516243 0
M  V30 42 H 6.393889 6.766450 1.433047 0
M  V30 43 H 4.786889 8.624043 1.876881 0
M  V30 44 H 2.488215 8.098417 2.378670 0
M  V30 45 H 1.735687 5.796660 2.452893 0
M  V30 46 H 0.142985 2.190098 2.665237 0
M  V30 47 H -0.128685 -3.560082 6.826461 0
M  V30 48 H -1.821590 -5.467309 5.441791 0
M  V30 49 H -2.699330 -5.913669 3.134883 0
M  V30 50 H -2.291936 -6.570273 1.036036 0
M  V30 51 H -3.498580 -4.919075 -2.692094 0
M  V30 52 H -4.002294 -2.405700 -2.689030 0
M  V30 53 H -3.344260 -1.456012 -1.330788 0
M  V30 54 H -1.098216 -3.709683 -3.388613 0
M  V30 55 H -0.492368 -2.241555 -4.167061 0
M  V30 56 H -3.001952 -3.787158 -4.731744 0
M  V30 57 H -1.651125 -3.341313 -5.765426 0
M  V30 58 H -2.520734 -1.347356 -6.343389 0
M  V30 59 H -4.044653 -2.082565 -5.805384 0
M  V30 60 H -3.263009 0.312085 -4.976061 0
M  V30 61 H -4.268007 -0.728047 -3.969087 0
M  V30 62 H -1.253100 -0.140832 -3.835336 0
M  V30 63 H -2.526273 0.184697 -2.647931 0
M  V30 64 H -2.237523 -2.404217 0.423240 0
M  V30 65 H -0.633398 -2.515287 1.683854 0
M  V30 END ATOM
M  V30 BEGIN BOND
M  V30 1 2 1 2
M  V30 2 1 2 3
M  V30 3 1 3 4
M  V30 4 2 4 5
M  V30 5 1 5 6
M  V30 6 2 6 7
M  V30 7 1 7 8
M  V30 8 2 8 9
M  V30 9 1 9 10
M  V30 10 2 10 11
M  V30 11 1 11 12
M  V30 12 2 12 13
M  V30 13 1 7 14
M  V30 14 2 14 15
M  V30 15 1 2 16
M  V30 16 2 16 17
M  V30 17 1 17 18
M  V30 18 1 18 19
M  V30 19 2 19 20
M  V30 20 1 20 21
M  V30 21 2 21 22
M  V30 22 1 22 23
M  V30 23 2 23 24
M  V30 24 1 24 25
M  V30 25 2 25 26
M  V30 26 1 26 27
M  V30 27 1 27 28
M  V30 28 1 28 29
M  V30 29 1 29 30
M  V30 30 1 30 31
M  V30 31 1 31 32
M  V30 32 1 32 33
M  V30 33 1 33 34
M  V30 34 2 27 35
M  V30 35 1 22 36
M  V30 36 2 36 37
M  V30 37 1 15 4
M  V30 38 1 37 16
M  V30 39 1 13 8
M  V30 40 1 37 19
M  V30 41 1 35 23
M  V30 42 1 34 29
M  V30 43 1 3 38
M  V30 44 1 5 39
M  V30 45 1 6 40
M  V30 46 1 9 41
M  V30 47 1 10 42
M  V30 48 1 11 43
M  V30 49 1 12 44
M  V30 50 1 13 45
M  V30 51 1 15 46
M  V30 52 1 18 47
M  V30 53 1 20 48
M  V30 54 1 21 49
M  V30 55 1 24 50
M  V30 56 1 26 51
M  V30 57 1 28 52
M  V30 58 1 28 53
M  V30 59 1 30 54
M  V30 60 1 30 55
M  V30 61 1 31 56
M  V30 62 1 31 57
M  V30 63 1 32 58
M  V30 64 1 32 59
M  V30 65 1 33 60
M  V30 66 1 33 61
M  V30 67 1 34 62
M  V30 68 1 34 63
M  V30 69 1 35 64
M  V30 70 1 36 65
M  V30 END BOND
M  V30 END CTAB
M  END
>  <Dataset>  (712) 
ChEMBL_Kinases

>  <Ligand_Instance>  (712) 
nan

>  <PDB_ID>  (712) 
nan

>  <Standardized_SMILES>  (712) 
O=C(Nc1ccc(-c2ccccc2)nc1)c1n[nH]c2ccc(-c3cncc(CN4CCCCC4)c3)cc12

>  <Name>  (712) 
nan

>  <Pocket>  (712) 
nan

>  <ATP_Site>  (712) 
nan

>  <Peripheral>  (712) 
nan

>  <Num_H_Atoms_ProtBoundConf>  (712) 
nan

>  <Num_Resolved_Atoms>  (712) 
nan

>  <Num_Not_Resolved_Atoms>  (712) 
nan

$$$$
CHEMBL4743920
     RDKit          3D

  0  0  0  0  0  0  0  0  0  0999 V3000
M  V30 BEGIN CTAB
M  V30 COUNTS 56 60 0 0 0
M  V30 BEGIN ATOM
M  V30 1 C 2.497320 4.904559 5.077117 0
M  V30 2 N 3.215279 3.743039 4.526747 0
M  V30 3 C 3.074413 2.670705 5.462439 0
M  V30 4 C 3.856040 1.459352 4.946881 0
M  V30 5 N 3.213417 1.095901 3.699080 0
M  V30 6 C 2.943752 -0.282101 3.485518 0
M  V30 7 C 2.400681 -0.752621 2.318824 0
M  V30 8 C 2.129603 -2.084059 2.093770 0
M  V30 9 C 1.554737 -2.635749 0.874572 0
M  V30 10 O 1.309401 -3.853435 0.691878 0
M  V30 11 N 1.219963 -1.815182 -0.227885 0
M  V30 12 C 0.655510 -2.176365 -1.486744 0
M  V30 13 C -0.724004 -2.173890 -1.548574 0
M  V30 14 C -1.353428 -2.508899 -2.729356 0
M  V30 15 N -2.700392 -2.512326 -2.806716 0
M  V30 16 C -3.391326 -2.826595 -3.917357 0
M  V30 17 C -4.847460 -2.805030 -3.906788 0
M  V30 18 C -5.707816 -3.090022 -4.926053 0
M  V30 19 N -6.979926 -2.940339 -4.458965 0
M  V30 20 N -6.943448 -2.577219 -3.202270 0
M  V30 21 C -8.012639 -2.294962 -2.267449 0
M  V30 22 C -5.641508 -2.489187 -2.846453 0
M  V30 23 C -2.707241 -3.176460 -5.082977 0
M  V30 24 C -1.320769 -3.187969 -5.054995 0
M  V30 25 C -0.655552 -2.858088 -3.891843 0
M  V30 26 C 0.717959 -2.837345 -3.750533 0
M  V30 27 N 1.345726 -2.512849 -2.605568 0
M  V30 28 C 2.413421 -3.026711 3.090845 0
M  V30 29 C 2.959389 -2.526608 4.254877 0
M  V30 30 N 3.209549 -1.218695 4.436453 0
M  V30 31 C 2.862758 2.077058 2.721578 0
M  V30 32 C 2.776235 3.481508 3.199279 0
M  V30 33 H 3.121038 5.461480 5.778710 0
M  V30 34 H 2.207241 5.568030 4.238978 0
M  V30 35 H 1.570907 4.499229 5.581119 0
M  V30 36 H 2.003302 2.362210 5.534478 0
M  V30 37 H 3.458604 3.027798 6.436048 0
M  V30 38 H 4.878443 1.845170 4.677357 0
M  V30 39 H 3.857232 0.637544 5.658513 0
M  V30 40 H 2.154353 -0.109828 1.505856 0
M  V30 41 H 1.364502 -0.783204 -0.235648 0
M  V30 42 H -1.330473 -1.912803 -0.684768 0
M  V30 43 H -5.365348 -3.382965 -5.924271 0
M  V30 44 H -8.900649 -2.900944 -2.527028 0
M  V30 45 H -7.708378 -2.519948 -1.221844 0
M  V30 46 H -8.323980 -1.229108 -2.324971 0
M  V30 47 H -5.241146 -2.210352 -1.868147 0
M  V30 48 H -3.211170 -3.435687 -5.996245 0
M  V30 49 H -0.696539 -3.437005 -5.878684 0
M  V30 50 H 1.317872 -3.098978 -4.618666 0
M  V30 51 H 2.236513 -4.092012 3.007511 0
M  V30 52 H 3.230443 -3.128565 5.112220 0
M  V30 53 H 3.674575 2.025025 1.937582 0
M  V30 54 H 1.942241 1.792611 2.137550 0
M  V30 55 H 3.327286 4.163791 2.489145 0
M  V30 56 H 1.686994 3.783230 3.138716 0
M  V30 END ATOM
M  V30 BEGIN BOND
M  V30 1 1 1 2
M  V30 2 1 2 3
M  V30 3 1 3 4
M  V30 4 1 4 5
M  V30 5 1 5 6
M  V30 6 2 6 7
M  V30 7 1 7 8
M  V30 8 1 8 9
M  V30 9 2 9 10
M  V30 10 1 9 11
M  V30 11 1 11 12
M  V30 12 2 12 13
M  V30 13 1 13 14
M  V30 14 2 14 15
M  V30 15 1 15 16
M  V30 16 1 16 17
M  V30 17 1 17 18
M  V30 18 2 18 19
M  V30 19 1 19 20
M  V30 20 1 20 21
M  V30 21 1 20 22
M  V30 22 2 16 23
M  V30 23 1 23 24
M  V30 24 2 24 25
M  V30 25 1 25 26
M  V30 26 2 26 27
M  V30 27 2 8 28
M  V30 28 1 28 29
M  V30 29 2 29 30
M  V30 30 1 5 31
M  V30 31 1 31 32
M  V30 32 1 32 2
M  V30 33 1 30 6
M  V30 34 1 27 12
M  V30 35 1 25 14
M  V30 36 2 22 17
M  V30 37 1 1 33
M  V30 38 1 1 34
M  V30 39 1 1 35
M  V30 40 1 3 36
M  V30 41 1 3 37
M  V30 42 1 4 38
M  V30 43 1 4 39
M  V30 44 1 7 40
M  V30 45 1 11 41
M  V30 46 1 13 42
M  V30 47 1 18 43
M  V30 48 1 21 44
M  V30 49 1 21 45
M  V30 50 1 21 46
M  V30 51 1 22 47
M  V30 52 1 23 48
M  V30 53 1 24 49
M  V30 54 1 26 50
M  V30 55 1 28 51
M  V30 56 1 29 52
M  V30 57 1 31 53
M  V30 58 1 31 54
M  V30 59 1 32 55
M  V30 60 1 32 56
M  V30 END BOND
M  V30 END CTAB
M  END
>  <Dataset>  (713) 
ChEMBL_Kinases

>  <Ligand_Instance>  (713) 
nan

>  <PDB_ID>  (713) 
nan

>  <Standardized_SMILES>  (713) 
CN1CCN(c2cc(C(=O)Nc3cc4nc(-c5cnn(C)c5)ccc4cn3)ccn2)CC1

>  <Name>  (713) 
nan

>  <Pocket>  (713) 
nan

>  <ATP_Site>  (713) 
nan

>  <Peripheral>  (713) 
nan

>  <Num_H_Atoms_ProtBoundConf>  (713) 
nan

>  <Num_Resolved_Atoms>  (713) 
nan

>  <Num_Not_Resolved_Atoms>  (713) 
nan

$$$$
CHEMBL4743901
     RDKit          3D

  0  0  0  0  0  0  0  0  0  0999 V3000
M  V30 BEGIN CTAB
M  V30 COUNTS 51 55 0 0 0
M  V30 BEGIN ATOM
M  V30 1 C -1.236182 -3.811188 -0.315647 0
M  V30 2 N 0.005421 -4.324815 0.184695 0
M  V30 3 C 0.373626 -3.902031 1.482634 0
M  V30 4 C 1.239537 -2.705388 1.601647 0
M  V30 5 N 2.021089 -2.569023 0.379840 0
M  V30 6 C 3.003542 -1.564411 0.241956 0
M  V30 7 N 4.280656 -1.913224 0.011353 0
M  V30 8 C 5.292147 -1.037481 -0.135939 0
M  V30 9 C 4.956824 0.294482 -0.037326 0
M  V30 10 C 3.635642 0.686803 0.202223 0
M  V30 11 N 3.048431 1.906651 0.340864 0
M  V30 12 C 1.723449 1.751440 0.564342 0
M  V30 13 C 0.831307 2.889072 0.752697 0
M  V30 14 N 1.235612 4.165724 0.721748 0
M  V30 15 N 0.182164 4.969880 0.927988 0
M  V30 16 C -0.931353 4.225832 1.097523 0
M  V30 17 C -0.519305 2.901353 0.986154 0
M  V30 18 C -1.375673 1.743643 1.099187 0
M  V30 19 C -2.672302 1.869444 1.326565 0
M  V30 20 C -3.618764 0.786472 1.457399 0
M  V30 21 C -4.954737 1.014226 1.694293 0
M  V30 22 N -5.859349 0.031206 1.821054 0
M  V30 23 C -5.511578 -1.261087 1.722899 0
M  V30 24 C -4.193649 -1.557346 1.487077 0
M  V30 25 F -3.900464 -2.878682 1.397523 0
M  V30 26 C -3.267736 -0.542335 1.357597 0
M  V30 27 N 1.460476 0.433541 0.569137 0
M  V30 28 C 2.620058 -0.243938 0.348545 0
M  V30 29 C 1.997352 -3.339110 -0.867593 0
M  V30 30 C 1.028419 -4.488791 -0.769396 0
M  V30 31 H -2.051355 -4.536556 -0.115993 0
M  V30 32 H -1.143933 -3.687976 -1.429395 0
M  V30 33 H -1.487114 -2.874580 0.187434 0
M  V30 34 H -0.548587 -3.718357 2.071062 0
M  V30 35 H 0.894393 -4.742436 2.015588 0
M  V30 36 H 0.687519 -1.760298 1.721492 0
M  V30 37 H 1.954648 -2.751825 2.458302 0
M  V30 38 H 6.314377 -1.337556 -0.321136 0
M  V30 39 H 5.742365 1.049221 -0.149427 0
M  V30 40 H 3.636116 2.774557 0.266323 0
M  V30 41 H 0.193346 6.023838 0.958135 0
M  V30 42 H -1.936307 4.601153 1.282373 0
M  V30 43 H -0.981649 0.751584 1.001581 0
M  V30 44 H -3.032915 2.884467 1.419097 0
M  V30 45 H -5.292843 2.053290 1.783298 0
M  V30 46 H -6.293873 -2.011317 1.835488 0
M  V30 47 H -2.255109 -0.827183 1.174766 0
M  V30 48 H 1.881709 -2.709756 -1.752451 0
M  V30 49 H 3.020330 -3.814519 -0.929902 0
M  V30 50 H 0.537045 -4.548431 -1.782884 0
M  V30 51 H 1.514883 -5.474948 -0.620132 0
M  V30 END ATOM
M  V30 BEGIN BOND
M  V30 1 1 1 2
M  V30 2 1 2 3
M  V30 3 1 3 4
M  V30 4 1 4 5
M  V30 5 1 5 6
M  V30 6 2 6 7
M  V30 7 1 7 8
M  V30 8 2 8 9
M  V30 9 1 9 10
M  V30 10 1 10 11
M  V30 11 1 11 12
M  V30 12 1 12 13
M  V30 13 2 13 14
M  V30 14 1 14 15
M  V30 15 1 15 16
M  V30 16 2 16 17
M  V30 17 1 17 18
M  V30 18 2 18 19
M  V30 19 1 19 20
M  V30 20 2 20 21
M  V30 21 1 21 22
M  V30 22 2 22 23
M  V30 23 1 23 24
M  V30 24 1 24 25
M  V30 25 2 24 26
M  V30 26 2 12 27
M  V30 27 1 27 28
M  V30 28 1 5 29
M  V30 29 1 29 30
M  V30 30 1 30 2
M  V30 31 1 28 6
M  V30 32 2 28 10
M  V30 33 1 17 13
M  V30 34 1 26 20
M  V30 35 1 1 31
M  V30 36 1 1 32
M  V30 37 1 1 33
M  V30 38 1 3 34
M  V30 39 1 3 35
M  V30 40 1 4 36
M  V30 41 1 4 37
M  V30 42 1 8 38
M  V30 43 1 9 39
M  V30 44 1 11 40
M  V30 45 1 15 41
M  V30 46 1 16 42
M  V30 47 1 18 43
M  V30 48 1 19 44
M  V30 49 1 21 45
M  V30 50 1 23 46
M  V30 51 1 26 47
M  V30 52 1 29 48
M  V30 53 1 29 49
M  V30 54 1 30 50
M  V30 55 1 30 51
M  V30 END BOND
M  V30 END CTAB
M  END
>  <Dataset>  (714) 
ChEMBL_Kinases

>  <Ligand_Instance>  (714) 
nan

>  <PDB_ID>  (714) 
nan

>  <Standardized_SMILES>  (714) 
CN1CCN(c2nccc3[nH]c(-c4n[nH]cc4/C=C/c4cncc(F)c4)nc23)CC1

>  <Name>  (714) 
nan

>  <Pocket>  (714) 
nan

>  <ATP_Site>  (714) 
nan

>  <Peripheral>  (714) 
nan

>  <Num_H_Atoms_ProtBoundConf>  (714) 
nan

>  <Num_Resolved_Atoms>  (714) 
nan

>  <Num_Not_Resolved_Atoms>  (714) 
nan

$$$$
CHEMBL4743856
     RDKit          3D

  0  0  0  0  0  0  0  0  0  0999 V3000
M  V30 BEGIN CTAB
M  V30 COUNTS 54 58 0 0 0
M  V30 BEGIN ATOM
M  V30 1 O 4.870792 0.879000 0.246260 0
M  V30 2 C 3.592875 0.829756 0.172470 0
M  V30 3 N 3.207665 -0.462901 0.536598 0
M  V30 4 C 4.134528 -1.470649 0.905939 0
M  V30 5 C 3.626115 -2.707024 1.241486 0
M  V30 6 N 4.411256 -3.755168 1.613641 0
M  V30 7 C 5.752288 -3.536697 1.644441 0
M  V30 8 C 6.303276 -2.316363 1.316809 0
M  V30 9 N 5.464420 -1.303012 0.951340 0
M  V30 10 C 2.904628 2.028672 -0.237952 0
M  V30 11 N 3.677620 3.104282 -0.519880 0
M  V30 12 N 2.875293 4.119287 -0.880830 0
M  V30 13 C 1.580459 3.764817 -0.852313 0
M  V30 14 C 0.382823 4.390696 -1.118130 0
M  V30 15 C -0.790610 3.677132 -0.971601 0
M  V30 16 C -0.720401 2.358227 -0.562733 0
M  V30 17 C -1.976104 1.627984 -0.416287 0
M  V30 18 C -3.042091 1.930887 -1.238872 0
M  V30 19 N -4.190887 1.235598 -1.076278 0
M  V30 20 C -4.326693 0.272699 -0.152756 0
M  V30 21 C -3.299490 -0.078372 0.700607 0
M  V30 22 C -3.493455 -1.146931 1.709330 0
M  V30 23 N -3.156108 -2.436819 1.172955 0
M  V30 24 C -3.370872 -3.414216 2.228612 0
M  V30 25 C -3.167248 -4.834439 1.773086 0
M  V30 26 C -2.515828 -4.915459 0.415864 0
M  V30 27 C -1.506856 -3.857461 0.164926 0
M  V30 28 C -1.763083 -2.528884 0.790188 0
M  V30 29 C -2.127492 0.638151 0.527409 0
M  V30 30 C 0.483694 1.742795 -0.299710 0
M  V30 31 C 1.631451 2.467292 -0.451225 0
M  V30 32 H 2.203794 -0.621065 0.514270 0
M  V30 33 H 2.569613 -2.876058 1.216238 0
M  V30 34 H 6.371777 -4.383170 1.943862 0
M  V30 35 H 7.385922 -2.156751 1.347065 0
M  V30 36 H 3.256512 5.056256 -1.144702 0
M  V30 37 H 0.418118 5.431888 -1.435285 0
M  V30 38 H -1.728798 4.182621 -1.184474 0
M  V30 39 H -2.943794 2.707206 -1.988657 0
M  V30 40 H -5.306211 -0.226106 -0.110561 0
M  V30 41 H -2.842127 -1.002646 2.596418 0
M  V30 42 H -4.528879 -1.082924 2.044276 0
M  V30 43 H -4.358551 -3.264207 2.716310 0
M  V30 44 H -2.592017 -3.203196 2.990365 0
M  V30 45 H -4.167210 -5.307838 1.688378 0
M  V30 46 H -2.613934 -5.425970 2.544251 0
M  V30 47 H -3.316773 -4.931032 -0.379338 0
M  V30 48 H -2.017503 -5.906055 0.349026 0
M  V30 49 H -0.466022 -4.169279 0.418829 0
M  V30 50 H -1.473565 -3.709727 -0.953520 0
M  V30 51 H -1.085187 -2.369451 1.653262 0
M  V30 52 H -1.521088 -1.705715 0.072319 0
M  V30 53 H -1.293172 0.410358 1.164319 0
M  V30 54 H 0.488088 0.726525 0.012656 0
M  V30 END ATOM
M  V30 BEGIN BOND
M  V30 1 2 1 2
M  V30 2 1 2 3
M  V30 3 1 3 4
M  V30 4 2 4 5
M  V30 5 1 5 6
M  V30 6 2 6 7
M  V30 7 1 7 8
M  V30 8 2 8 9
M  V30 9 1 2 10
M  V30 10 2 10 11
M  V30 11 1 11 12
M  V30 12 1 12 13
M  V30 13 2 13 14
M  V30 14 1 14 15
M  V30 15 2 15 16
M  V30 16 1 16 17
M  V30 17 2 17 18
M  V30 18 1 18 19
M  V30 19 2 19 20
M  V30 20 1 20 21
M  V30 21 1 21 22
M  V30 22 1 22 23
M  V30 23 1 23 24
M  V30 24 1 24 25
M  V30 25 1 25 26
M  V30 26 1 26 27
M  V30 27 1 27 28
M  V30 28 2 21 29
M  V30 29 1 16 30
M  V30 30 2 30 31
M  V30 31 1 9 4
M  V30 32 1 31 10
M  V30 33 1 31 13
M  V30 34 1 29 17
M  V30 35 1 28 23
M  V30 36 1 3 32
M  V30 37 1 5 33
M  V30 38 1 7 34
M  V30 39 1 8 35
M  V30 40 1 12 36
M  V30 41 1 14 37
M  V30 42 1 15 38
M  V30 43 1 18 39
M  V30 44 1 20 40
M  V30 45 1 22 41
M  V30 46 1 22 42
M  V30 47 1 24 43
M  V30 48 1 24 44
M  V30 49 1 25 45
M  V30 50 1 25 46
M  V30 51 1 26 47
M  V30 52 1 26 48
M  V30 53 1 27 49
M  V30 54 1 27 50
M  V30 55 1 28 51
M  V30 56 1 28 52
M  V30 57 1 29 53
M  V30 58 1 30 54
M  V30 END BOND
M  V30 END CTAB
M  END
>  <Dataset>  (715) 
ChEMBL_Kinases

>  <Ligand_Instance>  (715) 
nan

>  <PDB_ID>  (715) 
nan

>  <Standardized_SMILES>  (715) 
O=C(Nc1cnccn1)c1n[nH]c2ccc(-c3cncc(CN4CCCCC4)c3)cc12

>  <Name>  (715) 
nan

>  <Pocket>  (715) 
nan

>  <ATP_Site>  (715) 
nan

>  <Peripheral>  (715) 
nan

>  <Num_H_Atoms_ProtBoundConf>  (715) 
nan

>  <Num_Resolved_Atoms>  (715) 
nan

>  <Num_Not_Resolved_Atoms>  (715) 
nan

$$$$
CHEMBL2397315
     RDKit          3D

  0  0  0  0  0  0  0  0  0  0999 V3000
M  V30 BEGIN CTAB
M  V30 COUNTS 38 39 0 0 0
M  V30 BEGIN ATOM
M  V30 1 C -0.038407 -3.152135 2.742717 0
M  V30 2 C -0.236589 -1.813633 2.072874 0
M  V30 3 N 0.791934 -1.045097 1.835453 0
M  V30 4 C 0.673820 0.088109 1.275096 0
M  V30 5 N 1.778166 0.994304 0.981175 0
M  V30 6 C 2.437115 0.889294 -0.257471 0
M  V30 7 O 2.043551 0.007302 -1.073292 0
M  V30 8 C 3.566902 1.788431 -0.604134 0 CFG=1
M  V30 9 C 4.713257 1.655499 0.363230 0
M  V30 10 C 3.987295 1.535003 -2.017780 0
M  V30 11 C 5.142686 2.422671 -2.442130 0
M  V30 12 F 4.739284 3.749281 -2.328162 0
M  V30 13 F 5.499390 2.135237 -3.729541 0
M  V30 14 F 6.237942 2.258306 -1.630128 0
M  V30 15 S -1.153804 0.142969 1.013607 0
M  V30 16 C -1.490602 -1.424670 1.724413 0
M  V30 17 C -2.819467 -1.923037 1.793299 0
M  V30 18 C -3.857100 -1.131150 1.281388 0
M  V30 19 C -5.189697 -1.561801 1.317029 0
M  V30 20 C -5.521246 -2.782507 1.859019 0
M  V30 21 N -6.846071 -3.281934 1.928584 0
M  V30 22 N -4.518537 -3.535622 2.347888 0
M  V30 23 C -3.246371 -3.100770 2.302500 0
M  V30 24 H 1.049761 -3.325157 3.002058 0
M  V30 25 H -0.512603 -3.174586 3.755841 0
M  V30 26 H -0.277275 -3.995003 2.092825 0
M  V30 27 H 2.055716 1.708162 1.707721 0
M  V30 28 H 3.208173 2.848269 -0.561284 0
M  V30 29 H 4.314304 1.413453 1.372165 0
M  V30 30 H 5.386393 0.863845 -0.019034 0
M  V30 31 H 5.245085 2.621518 0.406342 0
M  V30 32 H 4.273402 0.467781 -2.170453 0
M  V30 33 H 3.135835 1.745693 -2.676930 0
M  V30 34 H -3.746958 -0.155492 0.828384 0
M  V30 35 H -5.995193 -0.966996 0.929202 0
M  V30 36 H -7.603210 -3.150998 1.221104 0
M  V30 37 H -7.220969 -3.852179 2.718035 0
M  V30 38 H -2.531193 -3.783493 2.720570 0
M  V30 END ATOM
M  V30 BEGIN BOND
M  V30 1 1 1 2
M  V30 2 1 2 3
M  V30 3 2 3 4
M  V30 4 1 4 5
M  V30 5 1 5 6
M  V30 6 2 6 7
M  V30 7 1 6 8
M  V30 8 1 8 9
M  V30 9 1 8 10
M  V30 10 1 10 11
M  V30 11 1 11 12
M  V30 12 1 11 13
M  V30 13 1 11 14
M  V30 14 1 4 15
M  V30 15 1 15 16
M  V30 16 1 16 17
M  V30 17 2 17 18
M  V30 18 1 18 19
M  V30 19 2 19 20
M  V30 20 1 20 21
M  V30 21 1 20 22
M  V30 22 2 22 23
M  V30 23 2 16 2
M  V30 24 1 23 17
M  V30 25 1 1 24
M  V30 26 1 1 25
M  V30 27 1 1 26
M  V30 28 1 5 27
M  V30 29 1 8 28 CFG=3
M  V30 30 1 9 29
M  V30 31 1 9 30
M  V30 32 1 9 31
M  V30 33 1 10 32
M  V30 34 1 10 33
M  V30 35 1 18 34
M  V30 36 1 19 35
M  V30 37 1 21 36
M  V30 38 1 21 37
M  V30 39 1 23 38
M  V30 END BOND
M  V30 END CTAB
M  END
>  <Dataset>  (716) 
ChEMBL_Kinases

>  <Ligand_Instance>  (716) 
nan

>  <PDB_ID>  (716) 
nan

>  <Standardized_SMILES>  (716) 
Cc1nc(NC(=O)[C@@H](C)CC(F)(F)F)sc1-c1ccc(N)nc1

>  <Name>  (716) 
nan

>  <Pocket>  (716) 
nan

>  <ATP_Site>  (716) 
nan

>  <Peripheral>  (716) 
nan

>  <Num_H_Atoms_ProtBoundConf>  (716) 
nan

>  <Num_Resolved_Atoms>  (716) 
nan

>  <Num_Not_Resolved_Atoms>  (716) 
nan

$$$$
CHEMBL4458081
     RDKit          3D

  0  0  0  0  0  0  0  0  0  0999 V3000
M  V30 BEGIN CTAB
M  V30 COUNTS 51 54 0 0 0
M  V30 BEGIN ATOM
M  V30 1 C -0.380321 -5.721434 1.062145 0
M  V30 2 N 0.230911 -4.568485 1.730783 0
M  V30 3 N 0.958917 -4.589048 2.816287 0
M  V30 4 C 1.359429 -3.350573 3.154205 0
M  V30 5 C 0.842537 -2.492962 2.208577 0
M  V30 6 N 0.967315 -1.083458 2.100577 0
M  V30 7 C 1.687499 -0.251072 2.997371 0
M  V30 8 O 2.269471 -0.780938 3.972779 0
M  V30 9 C 1.775036 1.217358 2.821066 0
M  V30 10 N 1.206773 1.897032 1.831741 0
M  V30 11 C 1.272034 3.056022 1.686148 0
M  V30 12 C 0.721116 4.039062 0.657462 0
M  V30 13 C 0.996492 5.383374 0.783960 0
M  V30 14 F 1.735098 5.870017 1.783864 0
M  V30 15 C 0.439877 6.136801 -0.206553 0
M  V30 16 C -0.333878 5.688670 -1.266880 0
M  V30 17 C -0.538304 4.307786 -1.279619 0
M  V30 18 C -0.026653 3.444876 -0.333020 0
M  V30 19 F -0.243496 2.108716 -0.373403 0
M  V30 20 S 2.272157 3.685988 3.044769 0
M  V30 21 C 2.501815 1.935388 3.753791 0
M  V30 22 N 3.224360 1.598595 4.900543 0
M  V30 23 C 0.139943 -3.288195 1.330042 0
M  V30 24 N -0.576722 -2.888072 0.181894 0
M  V30 25 C 0.207409 -2.857740 -1.038194 0
M  V30 26 C -0.693857 -2.822777 -2.265297 0
M  V30 27 C -1.678503 -3.957657 -2.260124 0
M  V30 28 N -2.811181 -3.780505 -1.417812 0
M  V30 29 C -2.862071 -2.571166 -0.661194 0
M  V30 30 C -1.942805 -2.610772 0.557609 0
M  V30 31 H -0.395803 -6.588524 1.751720 0
M  V30 32 H -1.413422 -5.479475 0.799360 0
M  V30 33 H 0.209006 -5.944336 0.155554 0
M  V30 34 H 1.969753 -3.085044 4.005596 0
M  V30 35 H 0.513209 -0.565236 1.317873 0
M  V30 36 H 0.592060 7.227365 -0.210595 0
M  V30 37 H -0.740041 6.351243 -2.013530 0
M  V30 38 H -1.145514 3.892546 -2.098248 0
M  V30 39 H 4.265798 1.658141 4.879437 0
M  V30 40 H 2.863813 1.283314 5.812687 0
M  V30 41 H 0.841290 -1.944110 -1.089690 0
M  V30 42 H 0.802541 -3.780618 -1.066779 0
M  V30 43 H -0.012393 -2.999618 -3.139606 0
M  V30 44 H -1.139776 -1.833628 -2.436306 0
M  V30 45 H -1.111020 -4.841863 -1.852586 0
M  V30 46 H -1.929012 -4.222054 -3.302994 0
M  V30 47 H -3.684239 -3.909219 -1.974653 0
M  V30 48 H -2.770218 -1.639726 -1.219753 0
M  V30 49 H -3.897888 -2.537589 -0.210482 0
M  V30 50 H -2.321951 -3.314561 1.321626 0
M  V30 51 H -1.968888 -1.608550 1.022511 0
M  V30 END ATOM
M  V30 BEGIN BOND
M  V30 1 1 1 2
M  V30 2 1 2 3
M  V30 3 2 3 4
M  V30 4 1 4 5
M  V30 5 1 5 6
M  V30 6 1 6 7
M  V30 7 2 7 8
M  V30 8 1 7 9
M  V30 9 1 9 10
M  V30 10 2 10 11
M  V30 11 1 11 12
M  V30 12 2 12 13
M  V30 13 1 13 14
M  V30 14 1 13 15
M  V30 15 2 15 16
M  V30 16 1 16 17
M  V30 17 2 17 18
M  V30 18 1 18 19
M  V30 19 1 11 20
M  V30 20 1 20 21
M  V30 21 1 21 22
M  V30 22 2 5 23
M  V30 23 1 23 24
M  V30 24 1 24 25
M  V30 25 1 25 26
M  V30 26 1 26 27
M  V30 27 1 27 28
M  V30 28 1 28 29
M  V30 29 1 29 30
M  V30 30 1 23 2
M  V30 31 1 30 24
M  V30 32 2 21 9
M  V30 33 1 18 12
M  V30 34 1 1 31
M  V30 35 1 1 32
M  V30 36 1 1 33
M  V30 37 1 4 34
M  V30 38 1 6 35
M  V30 39 1 15 36
M  V30 40 1 16 37
M  V30 41 1 17 38
M  V30 42 1 22 39
M  V30 43 1 22 40
M  V30 44 1 25 41
M  V30 45 1 25 42
M  V30 46 1 26 43
M  V30 47 1 26 44
M  V30 48 1 27 45
M  V30 49 1 27 46
M  V30 50 1 28 47
M  V30 51 1 29 48
M  V30 52 1 29 49
M  V30 53 1 30 50
M  V30 54 1 30 51
M  V30 END BOND
M  V30 END CTAB
M  END
>  <Dataset>  (717) 
ChEMBL_Kinases

>  <Ligand_Instance>  (717) 
nan

>  <PDB_ID>  (717) 
nan

>  <Standardized_SMILES>  (717) 
Cn1ncc(NC(=O)c2nc(-c3c(F)cccc3F)sc2N)c1N1CCCNCC1

>  <Name>  (717) 
nan

>  <Pocket>  (717) 
nan

>  <ATP_Site>  (717) 
nan

>  <Peripheral>  (717) 
nan

>  <Num_H_Atoms_ProtBoundConf>  (717) 
nan

>  <Num_Resolved_Atoms>  (717) 
nan

>  <Num_Not_Resolved_Atoms>  (717) 
nan

$$$$
CHEMBL4743802
     RDKit          3D

  0  0  0  0  0  0  0  0  0  0999 V3000
M  V30 BEGIN CTAB
M  V30 COUNTS 62 67 0 0 0
M  V30 BEGIN ATOM
M  V30 1 C 4.823950 0.957969 5.439025 0
M  V30 2 C 4.585146 -0.479928 5.054749 0
M  V30 3 C 5.889851 -1.202383 4.885640 0
M  V30 4 C 3.774255 -1.115756 6.175269 0
M  V30 5 C 3.765155 -0.493549 3.821479 0
M  V30 6 O 2.615006 -1.049146 3.770590 0
M  V30 7 N 4.209017 0.113095 2.613781 0
M  V30 8 C 3.249772 -0.029083 1.566275 0
M  V30 9 C 3.385755 -1.164356 0.786700 0
M  V30 10 N 2.508832 -1.372880 -0.233832 0
M  V30 11 C 1.519548 -0.471753 -0.472407 0
M  V30 12 C 1.406904 0.660131 0.327135 0
M  V30 13 C 0.315487 1.589130 0.011711 0
M  V30 14 C 0.428743 2.962102 0.237940 0
M  V30 15 C -0.620227 3.805080 -0.071858 0
M  V30 16 C -1.776983 3.285497 -0.604303 0
M  V30 17 N -2.948132 3.811650 -1.004797 0
M  V30 18 N -3.748551 2.862271 -1.450890 0
M  V30 19 C -3.187412 1.662085 -1.383836 0
M  V30 20 C -3.790283 0.413338 -1.790040 0
M  V30 21 C -3.465658 -0.902003 -1.833120 0
M  V30 22 C -4.466555 -1.684243 -2.337442 0
M  V30 23 C -4.571429 -3.035761 -2.559068 0
M  V30 24 C -3.489946 -3.941754 -2.237137 0
M  V30 25 C -3.207527 -4.849357 -3.261129 0
M  V30 26 C -2.213884 -5.798115 -3.148618 0
M  V30 27 N -1.492013 -5.842434 -1.999359 0
M  V30 28 C -1.733667 -4.985373 -0.989794 0
M  V30 29 C -2.724013 -4.038721 -1.100024 0
M  V30 30 C -5.732841 -3.573584 -3.097802 0
M  V30 31 C -6.728332 -2.663535 -3.377337 0
M  V30 32 N -6.609892 -1.342645 -3.154125 0
M  V30 33 C -5.489218 -0.804446 -2.631844 0
M  V30 34 N -5.052076 0.417820 -2.295494 0
M  V30 35 C -1.951780 1.933204 -0.852474 0
M  V30 36 C -0.873944 1.144792 -0.523928 0
M  V30 37 C 2.267783 0.921345 1.374412 0
M  V30 38 H 3.882500 1.491014 5.623397 0
M  V30 39 H 5.514042 0.973057 6.306080 0
M  V30 40 H 5.391507 1.475735 4.614484 0
M  V30 41 H 6.675087 -0.468523 4.630977 0
M  V30 42 H 5.764173 -1.961173 4.086342 0
M  V30 43 H 6.191419 -1.684964 5.828012 0
M  V30 44 H 3.058691 -0.333557 6.519903 0
M  V30 45 H 3.138601 -1.925729 5.712363 0
M  V30 46 H 4.403448 -1.522350 6.989521 0
M  V30 47 H 5.136362 0.591173 2.560782 0
M  V30 48 H 4.181399 -1.892050 0.976236 0
M  V30 49 H 0.854128 -0.694161 -1.298423 0
M  V30 50 H 1.348637 3.327671 0.655131 0
M  V30 51 H -0.549641 4.888037 0.099026 0
M  V30 52 H -3.228724 4.820333 -0.984560 0
M  V30 53 H -2.536129 -1.293706 -1.513903 0
M  V30 54 H -3.723027 -4.892409 -4.205587 0
M  V30 55 H -1.973952 -6.512853 -3.925617 0
M  V30 56 H -1.221202 -4.938237 -0.043732 0
M  V30 57 H -2.983622 -3.320720 -0.343324 0
M  V30 58 H -5.873533 -4.638590 -3.295921 0
M  V30 59 H -7.639334 -3.090069 -3.800434 0
M  V30 60 H -5.728964 1.201015 -2.463829 0
M  V30 61 H -0.935492 0.087319 -0.687795 0
M  V30 62 H 2.181607 1.792792 1.990532 0
M  V30 END ATOM
M  V30 BEGIN BOND
M  V30 1 1 1 2
M  V30 2 1 2 3
M  V30 3 1 2 4
M  V30 4 1 2 5
M  V30 5 2 5 6
M  V30 6 1 5 7
M  V30 7 1 7 8
M  V30 8 2 8 9
M  V30 9 1 9 10
M  V30 10 2 10 11
M  V30 11 1 11 12
M  V30 12 1 12 13
M  V30 13 2 13 14
M  V30 14 1 14 15
M  V30 15 2 15 16
M  V30 16 1 16 17
M  V30 17 1 17 18
M  V30 18 2 18 19
M  V30 19 1 19 20
M  V30 20 2 20 21
M  V30 21 1 21 22
M  V30 22 2 22 23
M  V30 23 1 23 24
M  V30 24 2 24 25
M  V30 25 1 25 26
M  V30 26 2 26 27
M  V30 27 1 27 28
M  V30 28 2 28 29
M  V30 29 1 23 30
M  V30 30 2 30 31
M  V30 31 1 31 32
M  V30 32 2 32 33
M  V30 33 1 33 34
M  V30 34 1 19 35
M  V30 35 2 35 36
M  V30 36 2 12 37
M  V30 37 1 37 8
M  V30 38 1 36 13
M  V30 39 1 35 16
M  V30 40 1 34 20
M  V30 41 1 33 22
M  V30 42 1 29 24
M  V30 43 1 1 38
M  V30 44 1 1 39
M  V30 45 1 1 40
M  V30 46 1 3 41
M  V30 47 1 3 42
M  V30 48 1 3 43
M  V30 49 1 4 44
M  V30 50 1 4 45
M  V30 51 1 4 46
M  V30 52 1 7 47
M  V30 53 1 9 48
M  V30 54 1 11 49
M  V30 55 1 14 50
M  V30 56 1 15 51
M  V30 57 1 17 52
M  V30 58 1 21 53
M  V30 59 1 25 54
M  V30 60 1 26 55
M  V30 61 1 28 56
M  V30 62 1 29 57
M  V30 63 1 30 58
M  V30 64 1 31 59
M  V30 65 1 34 60
M  V30 66 1 36 61
M  V30 67 1 37 62
M  V30 END BOND
M  V30 END CTAB
M  END
>  <Dataset>  (718) 
ChEMBL_Kinases

>  <Ligand_Instance>  (718) 
nan

>  <PDB_ID>  (718) 
nan

>  <Standardized_SMILES>  (718) 
CC(C)(C)C(=O)Nc1cncc(-c2ccc3[nH]nc(-c4cc5c(-c6ccncc6)ccnc5[nH]4)c3c2)c1

>  <Name>  (718) 
nan

>  <Pocket>  (718) 
nan

>  <ATP_Site>  (718) 
nan

>  <Peripheral>  (718) 
nan

>  <Num_H_Atoms_ProtBoundConf>  (718) 
nan

>  <Num_Resolved_Atoms>  (718) 
nan

>  <Num_Not_Resolved_Atoms>  (718) 
nan

$$$$
CHEMBL4743788
     RDKit          3D

  0  0  0  0  0  0  0  0  0  0999 V3000
M  V30 BEGIN CTAB
M  V30 COUNTS 57 62 0 0 0
M  V30 BEGIN ATOM
M  V30 1 C 5.714382 -0.972812 1.540865 0
M  V30 2 N 4.945925 0.250292 1.293896 0
M  V30 3 C 3.648003 0.099935 1.939931 0
M  V30 4 C 4.702418 0.331885 -0.140112 0
M  V30 5 C 3.929825 1.549044 -0.452785 0
M  V30 6 C 4.703381 2.681410 -0.724465 0
M  V30 7 N 4.043109 3.824972 -1.017331 0
M  V30 8 C 2.710936 3.866640 -1.044811 0
M  V30 9 C 1.881636 2.794301 -0.788832 0
M  V30 10 C 0.442224 2.813077 -0.812266 0
M  V30 11 C -0.259239 3.950287 -1.104718 0
M  V30 12 C -1.636162 3.881239 -1.105689 0
M  V30 13 C -2.347277 2.734081 -0.829384 0
M  V30 14 N -3.635842 2.353913 -0.751396 0
M  V30 15 N -3.695399 1.077133 -0.433993 0
M  V30 16 C -2.456173 0.548919 -0.286228 0
M  V30 17 C -2.055351 -0.812599 0.058665 0
M  V30 18 C -2.964293 -1.829873 0.301474 0
M  V30 19 C -2.166909 -2.919529 0.583803 0
M  V30 20 C -2.536181 -4.210281 0.901373 0
M  V30 21 C -3.906263 -4.698995 1.008176 0
M  V30 22 C -4.949019 -4.071481 1.656883 0
M  V30 23 C -6.211453 -4.644018 1.684341 0
M  V30 24 C -6.402695 -5.856529 1.048108 0
M  V30 25 N -5.404315 -6.484747 0.411434 0
M  V30 26 C -4.169267 -5.908648 0.393633 0
M  V30 27 C -1.543838 -5.142116 1.146174 0
M  V30 28 C -0.208858 -4.829897 1.084807 0
M  V30 29 C 0.159798 -3.521880 0.763005 0
M  V30 30 C -0.817196 -2.568074 0.512881 0
M  V30 31 N -0.778241 -1.260716 0.186690 0
M  V30 32 C -1.573141 1.605642 -0.538094 0
M  V30 33 N -0.249912 1.697116 -0.543456 0
M  V30 34 C 2.566062 1.619916 -0.487977 0
M  V30 35 H 6.443755 -0.793610 2.341473 0
M  V30 36 H 5.037092 -1.802257 1.875615 0
M  V30 37 H 6.234202 -1.264773 0.595232 0
M  V30 38 H 3.051253 -0.681141 1.419766 0
M  V30 39 H 3.833678 -0.239911 2.985748 0
M  V30 40 H 3.088833 1.048715 1.948629 0
M  V30 41 H 4.116924 -0.564318 -0.414685 0
M  V30 42 H 5.695186 0.328784 -0.641649 0
M  V30 43 H 5.785181 2.729074 -0.722467 0
M  V30 44 H 2.248824 4.812142 -1.285787 0
M  V30 45 H 0.216255 4.893432 -1.333211 0
M  V30 46 H -2.216630 4.784751 -1.338365 0
M  V30 47 H -4.442215 2.996166 -0.921841 0
M  V30 48 H -4.025085 -1.785134 0.276674 0
M  V30 49 H -4.726346 -3.133836 2.128852 0
M  V30 50 H -7.010149 -4.117575 2.207119 0
M  V30 51 H -7.422679 -6.227303 1.122492 0
M  V30 52 H -3.465363 -6.542520 -0.163760 0
M  V30 53 H -1.729630 -6.186555 1.404348 0
M  V30 54 H 0.586153 -5.556045 1.275885 0
M  V30 55 H 1.211511 -3.207596 0.697511 0
M  V30 56 H 0.066385 -0.670545 0.049903 0
M  V30 57 H 2.004203 0.718693 -0.270993 0
M  V30 END ATOM
M  V30 BEGIN BOND
M  V30 1 1 1 2
M  V30 2 1 2 3
M  V30 3 1 2 4
M  V30 4 1 4 5
M  V30 5 2 5 6
M  V30 6 1 6 7
M  V30 7 2 7 8
M  V30 8 1 8 9
M  V30 9 1 9 10
M  V30 10 2 10 11
M  V30 11 1 11 12
M  V30 12 2 12 13
M  V30 13 1 13 14
M  V30 14 1 14 15
M  V30 15 2 15 16
M  V30 16 1 16 17
M  V30 17 2 17 18
M  V30 18 1 18 19
M  V30 19 2 19 20
M  V30 20 1 20 21
M  V30 21 2 21 22
M  V30 22 1 22 23
M  V30 23 2 23 24
M  V30 24 1 24 25
M  V30 25 2 25 26
M  V30 26 1 20 27
M  V30 27 2 27 28
M  V30 28 1 28 29
M  V30 29 2 29 30
M  V30 30 1 30 31
M  V30 31 1 16 32
M  V30 32 2 32 33
M  V30 33 2 9 34
M  V30 34 1 34 5
M  V30 35 1 33 10
M  V30 36 1 32 13
M  V30 37 1 31 17
M  V30 38 1 30 19
M  V30 39 1 26 21
M  V30 40 1 1 35
M  V30 41 1 1 36
M  V30 42 1 1 37
M  V30 43 1 3 38
M  V30 44 1 3 39
M  V30 45 1 3 40
M  V30 46 1 4 41
M  V30 47 1 4 42
M  V30 48 1 6 43
M  V30 49 1 8 44
M  V30 50 1 11 45
M  V30 51 1 12 46
M  V30 52 1 14 47
M  V30 53 1 18 48
M  V30 54 1 22 49
M  V30 55 1 23 50
M  V30 56 1 24 51
M  V30 57 1 26 52
M  V30 58 1 27 53
M  V30 59 1 28 54
M  V30 60 1 29 55
M  V30 61 1 31 56
M  V30 62 1 34 57
M  V30 END BOND
M  V30 END CTAB
M  END
>  <Dataset>  (719) 
ChEMBL_Kinases

>  <Ligand_Instance>  (719) 
nan

>  <PDB_ID>  (719) 
nan

>  <Standardized_SMILES>  (719) 
CN(C)Cc1cncc(-c2ccc3[nH]nc(-c4cc5c(-c6cccnc6)cccc5[nH]4)c3n2)c1

>  <Name>  (719) 
nan

>  <Pocket>  (719) 
nan

>  <ATP_Site>  (719) 
nan

>  <Peripheral>  (719) 
nan

>  <Num_H_Atoms_ProtBoundConf>  (719) 
nan

>  <Num_Resolved_Atoms>  (719) 
nan

>  <Num_Not_Resolved_Atoms>  (719) 
nan

$$$$
CHEMBL4743755
     RDKit          3D

  0  0  0  0  0  0  0  0  0  0999 V3000
M  V30 BEGIN CTAB
M  V30 COUNTS 60 64 0 0 0
M  V30 BEGIN ATOM
M  V30 1 C 4.950717 -3.364668 4.346127 0
M  V30 2 N 5.062787 -2.002532 3.853125 0
M  V30 3 C 4.878687 -1.075192 4.971459 0
M  V30 4 C 5.229200 0.323157 4.478233 0
M  V30 5 C 5.321692 0.319101 2.946088 0
M  V30 6 N 4.055173 -0.086291 2.414843 0
M  V30 7 C 3.801532 -0.188172 1.030421 0
M  V30 8 C 2.582433 -0.579342 0.515460 0
M  V30 9 C 2.298140 -0.689873 -0.829108 0
M  V30 10 C 0.997089 -1.106745 -1.337062 0
M  V30 11 O 0.780758 -1.194893 -2.569836 0
M  V30 12 N -0.082101 -1.431659 -0.482695 0
M  V30 13 C -1.386636 -1.846411 -0.789223 0
M  V30 14 C -2.433660 -0.949691 -0.972261 0
M  V30 15 C -3.729895 -1.363403 -1.276764 0
M  V30 16 C -4.767307 -0.472185 -1.457981 0
M  V30 17 C -6.044005 -0.914071 -1.759645 0
M  V30 18 C -7.142664 0.037773 -1.951357 0
M  V30 19 C -8.478084 -0.207572 -1.655155 0
M  V30 20 N -9.129088 0.922947 -1.982739 0
M  V30 21 N -8.291097 1.831436 -2.453479 0
M  V30 22 C -8.585554 3.183472 -2.919156 0
M  V30 23 C -7.026204 1.319970 -2.453168 0
M  V30 24 C -6.307676 -2.269776 -1.886573 0
M  V30 25 C -5.240062 -3.124085 -1.696869 0
M  V30 26 C -3.972838 -2.731423 -1.399810 0
M  V30 27 C -2.915200 -3.598541 -1.212934 0
M  V30 28 N -1.678146 -3.155957 -0.919902 0
M  V30 29 C 3.300846 -0.388990 -1.729267 0
M  V30 30 C 4.501540 -0.003383 -1.199995 0
M  V30 31 N 4.768325 0.101245 0.120214 0
M  V30 32 C 6.475419 -0.571640 2.536290 0
M  V30 33 C 6.429351 -1.839040 3.362129 0
M  V30 34 H 5.367805 -4.073515 3.596822 0
M  V30 35 H 5.542208 -3.398505 5.305861 0
M  V30 36 H 3.879616 -3.612613 4.562782 0
M  V30 37 H 5.524776 -1.314817 5.833871 0
M  V30 38 H 3.802580 -1.120381 5.233173 0
M  V30 39 H 6.158650 0.697188 4.925392 0
M  V30 40 H 4.371794 0.996742 4.708094 0
M  V30 41 H 5.524803 1.375099 2.660874 0
M  V30 42 H 3.245069 -0.329869 3.059647 0
M  V30 43 H 1.831675 -0.803546 1.248127 0
M  V30 44 H 0.010500 -1.385428 0.555399 0
M  V30 45 H -2.225741 0.125651 -0.871760 0
M  V30 46 H -4.538406 0.563254 -1.355022 0
M  V30 47 H -8.916560 -1.108014 -1.248396 0
M  V30 48 H -9.413802 3.581149 -2.268958 0
M  V30 49 H -8.894125 3.075963 -3.981219 0
M  V30 50 H -7.696773 3.823190 -2.860457 0
M  V30 51 H -6.143000 1.845577 -2.786234 0
M  V30 52 H -7.274822 -2.678659 -2.118819 0
M  V30 53 H -5.396997 -4.193984 -1.785914 0
M  V30 54 H -3.131177 -4.653266 -1.314080 0
M  V30 55 H 3.147084 -0.454327 -2.807427 0
M  V30 56 H 5.295048 0.234623 -1.914332 0
M  V30 57 H 6.447299 -0.874941 1.488991 0
M  V30 58 H 7.405808 -0.031257 2.814189 0
M  V30 59 H 6.669651 -2.739055 2.738057 0
M  V30 60 H 7.140238 -1.774788 4.206802 0
M  V30 END ATOM
M  V30 BEGIN BOND
M  V30 1 1 1 2
M  V30 2 1 2 3
M  V30 3 1 3 4
M  V30 4 1 4 5
M  V30 5 1 5 6
M  V30 6 1 6 7
M  V30 7 2 7 8
M  V30 8 1 8 9
M  V30 9 1 9 10
M  V30 10 2 10 11
M  V30 11 1 10 12
M  V30 12 1 12 13
M  V30 13 2 13 14
M  V30 14 1 14 15
M  V30 15 2 15 16
M  V30 16 1 16 17
M  V30 17 1 17 18
M  V30 18 1 18 19
M  V30 19 2 19 20
M  V30 20 1 20 21
M  V30 21 1 21 22
M  V30 22 1 21 23
M  V30 23 2 17 24
M  V30 24 1 24 25
M  V30 25 2 25 26
M  V30 26 1 26 27
M  V30 27 2 27 28
M  V30 28 2 9 29
M  V30 29 1 29 30
M  V30 30 2 30 31
M  V30 31 1 5 32
M  V30 32 1 32 33
M  V30 33 1 33 2
M  V30 34 1 31 7
M  V30 35 1 28 13
M  V30 36 1 26 15
M  V30 37 2 23 18
M  V30 38 1 1 34
M  V30 39 1 1 35
M  V30 40 1 1 36
M  V30 41 1 3 37
M  V30 42 1 3 38
M  V30 43 1 4 39
M  V30 44 1 4 40
M  V30 45 1 5 41
M  V30 46 1 6 42
M  V30 47 1 8 43
M  V30 48 1 12 44
M  V30 49 1 14 45
M  V30 50 1 16 46
M  V30 51 1 19 47
M  V30 52 1 22 48
M  V30 53 1 22 49
M  V30 54 1 22 50
M  V30 55 1 23 51
M  V30 56 1 24 52
M  V30 57 1 25 53
M  V30 58 1 27 54
M  V30 59 1 29 55
M  V30 60 1 30 56
M  V30 61 1 32 57
M  V30 62 1 32 58
M  V30 63 1 33 59
M  V30 64 1 33 60
M  V30 END BOND
M  V30 END CTAB
M  END
>  <Dataset>  (720) 
ChEMBL_Kinases

>  <Ligand_Instance>  (720) 
nan

>  <PDB_ID>  (720) 
nan

>  <Standardized_SMILES>  (720) 
CN1CCC(Nc2cc(C(=O)Nc3cc4cc(-c5cnn(C)c5)ccc4cn3)ccn2)CC1

>  <Name>  (720) 
nan

>  <Pocket>  (720) 
nan

>  <ATP_Site>  (720) 
nan

>  <Peripheral>  (720) 
nan

>  <Num_H_Atoms_ProtBoundConf>  (720) 
nan

>  <Num_Resolved_Atoms>  (720) 
nan

>  <Num_Not_Resolved_Atoms>  (720) 
nan

$$$$
CHEMBL239698
     RDKit          3D

  0  0  0  0  0  0  0  0  0  0999 V3000
M  V30 BEGIN CTAB
M  V30 COUNTS 31 35 0 0 0
M  V30 BEGIN ATOM
M  V30 1 O 2.248252 -3.289905 0.056785 0
M  V30 2 C 1.369647 -3.023814 0.887553 0
M  V30 3 N 1.129021 -4.048496 1.836835 0
M  V30 4 C 0.095014 -3.614103 2.734817 0
M  V30 5 O -0.431177 -4.194192 3.718621 0
M  V30 6 C -0.232567 -2.271511 2.226910 0
M  V30 7 C 0.517624 -1.914798 1.133582 0
M  V30 8 C 0.327169 -0.711200 0.560101 0
M  V30 9 C 0.940752 -0.143298 -0.515729 0
M  V30 10 C 1.903872 -0.412272 -1.441323 0
M  V30 11 C 2.304678 0.429925 -2.453946 0
M  V30 12 O 3.294270 0.099988 -3.369747 0
M  V30 13 C 1.678165 1.677431 -2.557145 0
M  V30 14 C 0.695680 1.991383 -1.638961 0
M  V30 15 C 0.356907 1.095443 -0.662006 0
M  V30 16 N -0.585602 1.259475 0.309023 0
M  V30 17 C -0.615011 0.151689 1.071180 0
M  V30 18 C -1.364904 -0.214391 2.170327 0
M  V30 19 C -2.346217 0.504966 2.820590 0
M  V30 20 C -2.773926 -0.312225 3.847588 0
M  V30 21 C -2.029161 -1.470737 3.756897 0
M  V30 22 N -1.162253 -1.418517 2.730197 0
M  V30 23 H 1.540855 -5.011998 1.999007 0
M  V30 24 H 2.420360 -1.332903 -1.427125 0
M  V30 25 H 3.260768 -0.774652 -3.912090 0
M  V30 26 H 1.974563 2.357337 -3.343527 0
M  V30 27 H 0.214590 2.950592 -1.719038 0
M  V30 28 H -1.201569 2.096509 0.463691 0
M  V30 29 H -2.714515 1.478506 2.601983 0
M  V30 30 H -3.542392 -0.137592 4.612416 0
M  V30 31 H -2.118255 -2.320954 4.417994 0
M  V30 END ATOM
M  V30 BEGIN BOND
M  V30 1 2 1 2
M  V30 2 1 2 3
M  V30 3 1 3 4
M  V30 4 2 4 5
M  V30 5 1 4 6
M  V30 6 2 6 7
M  V30 7 1 7 8
M  V30 8 1 8 9
M  V30 9 2 9 10
M  V30 10 1 10 11
M  V30 11 1 11 12
M  V30 12 2 11 13
M  V30 13 1 13 14
M  V30 14 2 14 15
M  V30 15 1 15 16
M  V30 16 1 16 17
M  V30 17 1 17 18
M  V30 18 2 18 19
M  V30 19 1 19 20
M  V30 20 2 20 21
M  V30 21 1 21 22
M  V30 22 1 7 2
M  V30 23 2 17 8
M  V30 24 1 22 18
M  V30 25 1 22 6
M  V30 26 1 15 9
M  V30 27 1 3 23
M  V30 28 1 10 24
M  V30 29 1 12 25
M  V30 30 1 13 26
M  V30 31 1 14 27
M  V30 32 1 16 28
M  V30 33 1 19 29
M  V30 34 1 20 30
M  V30 35 1 21 31
M  V30 END BOND
M  V30 END CTAB
M  END
>  <Dataset>  (721) 
ChEMBL_Kinases

>  <Ligand_Instance>  (721) 
nan

>  <PDB_ID>  (721) 
nan

>  <Standardized_SMILES>  (721) 
O=C1NC(=O)c2c1c1c3cc(O)ccc3[nH]c1c1cccn21

>  <Name>  (721) 
nan

>  <Pocket>  (721) 
nan

>  <ATP_Site>  (721) 
nan

>  <Peripheral>  (721) 
nan

>  <Num_H_Atoms_ProtBoundConf>  (721) 
nan

>  <Num_Resolved_Atoms>  (721) 
nan

>  <Num_Not_Resolved_Atoms>  (721) 
nan

$$$$
CHEMBL4458460
     RDKit          3D

  0  0  0  0  0  0  0  0  0  0999 V3000
M  V30 BEGIN CTAB
M  V30 COUNTS 76 80 0 0 0
M  V30 BEGIN ATOM
M  V30 1 C -2.049058 5.589091 -5.014657 0
M  V30 2 C -2.305191 4.453761 -4.046067 0
M  V30 3 C -1.264716 4.461670 -2.926772 0 CFG=2
M  V30 4 C 0.054024 4.299664 -3.612057 0
M  V30 5 O 0.755966 5.336293 -3.778569 0
M  V30 6 N 0.561639 3.058643 -4.084066 0
M  V30 7 C 1.572504 2.977035 -5.107086 0
M  V30 8 C 0.012874 1.867165 -3.482848 0
M  V30 9 C 0.450798 0.646625 -3.889337 0
M  V30 10 N -0.123411 -0.418898 -3.271782 0
M  V30 11 C -1.071168 -0.236985 -2.313454 0
M  V30 12 N -1.612493 -1.437784 -1.732174 0
M  V30 13 C -1.066402 -2.266974 -0.675844 0
M  V30 14 C 0.179430 -1.744418 -0.305021 0
M  V30 15 C 0.882618 -2.400654 0.679902 0
M  V30 16 F 2.086594 -1.973997 1.110158 0
M  V30 17 C 0.410002 -3.526925 1.295585 0
M  V30 18 C 1.005872 -4.356397 2.324047 0
M  V30 19 O 0.425667 -5.313223 2.945414 0
M  V30 20 N 2.327753 -4.253421 2.816093 0
M  V30 21 C 2.988323 -5.033242 3.832101 0
M  V30 22 C 3.819004 -4.187512 4.759859 0
M  V30 23 C 5.168088 -4.038735 4.128418 0
M  V30 24 C 5.136116 -4.859964 2.881037 0
M  V30 25 C 4.062756 -5.885645 3.146658 0
M  V30 26 C -0.823379 -3.996372 0.890195 0
M  V30 27 C -1.611627 -3.425934 -0.078120 0
M  V30 28 O -2.780023 -3.603739 -0.681388 0
M  V30 29 C -3.814314 -4.489441 -0.599016 0
M  V30 30 C -4.570822 -4.522342 0.697478 0
M  V30 31 O -3.826765 -4.846458 1.800322 0
M  V30 32 N -1.499263 0.973861 -1.916941 0
M  V30 33 C -0.945470 2.058242 -2.515301 0
M  V30 34 N -1.436825 3.310410 -2.061160 0
M  V30 35 C -2.108124 3.610212 -0.832750 0
M  V30 36 C -1.437847 4.665333 0.010878 0
M  V30 37 C -1.288427 4.032842 1.375061 0
M  V30 38 C -2.496425 3.117401 1.420141 0
M  V30 39 C -2.268693 2.403350 0.067008 0
M  V30 40 H -3.003409 5.772841 -5.553331 0
M  V30 41 H -1.321382 5.302603 -5.814356 0
M  V30 42 H -1.662855 6.503100 -4.546263 0
M  V30 43 H -2.183441 3.507767 -4.615214 0
M  V30 44 H -3.345130 4.584486 -3.648885 0
M  V30 45 H -1.321680 5.426192 -2.433064 0
M  V30 46 H 1.177449 2.720760 -6.099839 0
M  V30 47 H 2.396488 2.282610 -4.790848 0
M  V30 48 H 2.056634 3.973297 -5.200225 0
M  V30 49 H 1.203874 0.625317 -4.654223 0
M  V30 50 H -2.525222 -1.729291 -2.147547 0
M  V30 51 H 0.680972 -0.872741 -0.694042 0
M  V30 52 H 2.953764 -3.524977 2.417877 0
M  V30 53 H 2.323919 -5.734908 4.346420 0
M  V30 54 H 3.983133 -4.785572 5.700493 0
M  V30 55 H 3.396081 -3.206598 4.990871 0
M  V30 56 H 6.005060 -4.434460 4.769646 0
M  V30 57 H 5.442668 -2.976368 3.941903 0
M  V30 58 H 4.811243 -4.218620 2.024595 0
M  V30 59 H 6.114230 -5.338902 2.650784 0
M  V30 60 H 4.441139 -6.644443 3.865330 0
M  V30 61 H 3.681056 -6.352979 2.231058 0
M  V30 62 H -1.280992 -4.865192 1.279762 0
M  V30 63 H -3.432389 -5.542458 -0.751280 0
M  V30 64 H -4.593351 -4.285504 -1.387908 0
M  V30 65 H -5.111833 -3.559776 0.883091 0
M  V30 66 H -5.371659 -5.313137 0.618264 0
M  V30 67 H -3.772421 -4.185924 2.509610 0
M  V30 68 H -3.111661 4.020784 -1.089121 0
M  V30 69 H -2.063023 5.579885 0.148849 0
M  V30 70 H -0.414061 4.921433 -0.327390 0
M  V30 71 H -1.301815 4.778512 2.191515 0
M  V30 72 H -0.407465 3.373637 1.392842 0
M  V30 73 H -3.413670 3.737905 1.381473 0
M  V30 74 H -2.473390 2.398413 2.259110 0
M  V30 75 H -3.103115 1.753222 -0.170905 0
M  V30 76 H -1.297851 1.881701 0.225096 0
M  V30 END ATOM
M  V30 BEGIN BOND
M  V30 1 1 1 2
M  V30 2 1 2 3
M  V30 3 1 3 4
M  V30 4 2 4 5
M  V30 5 1 4 6
M  V30 6 1 6 7
M  V30 7 1 6 8
M  V30 8 2 8 9
M  V30 9 1 9 10
M  V30 10 2 10 11
M  V30 11 1 11 12
M  V30 12 1 12 13
M  V30 13 2 13 14
M  V30 14 1 14 15
M  V30 15 1 15 16
M  V30 16 2 15 17
M  V30 17 1 17 18
M  V30 18 2 18 19
M  V30 19 1 18 20
M  V30 20 1 20 21
M  V30 21 1 21 22
M  V30 22 1 22 23
M  V30 23 1 23 24
M  V30 24 1 24 25
M  V30 25 1 17 26
M  V30 26 2 26 27
M  V30 27 1 27 28
M  V30 28 1 28 29
M  V30 29 1 29 30
M  V30 30 1 30 31
M  V30 31 1 11 32
M  V30 32 2 32 33
M  V30 33 1 33 34
M  V30 34 1 34 35
M  V30 35 1 35 36
M  V30 36 1 36 37
M  V30 37 1 37 38
M  V30 38 1 38 39
M  V30 39 1 34 3
M  V30 40 1 39 35
M  V30 41 1 33 8
M  V30 42 1 27 13
M  V30 43 1 25 21
M  V30 44 1 1 40
M  V30 45 1 1 41
M  V30 46 1 1 42
M  V30 47 1 2 43
M  V30 48 1 2 44
M  V30 49 1 3 45 CFG=1
M  V30 50 1 7 46
M  V30 51 1 7 47
M  V30 52 1 7 48
M  V30 53 1 9 49
M  V30 54 1 12 50
M  V30 55 1 14 51
M  V30 56 1 20 52
M  V30 57 1 21 53
M  V30 58 1 22 54
M  V30 59 1 22 55
M  V30 60 1 23 56
M  V30 61 1 23 57
M  V30 62 1 24 58
M  V30 63 1 24 59
M  V30 64 1 25 60
M  V30 65 1 25 61
M  V30 66 1 26 62
M  V30 67 1 29 63
M  V30 68 1 29 64
M  V30 69 1 30 65
M  V30 70 1 30 66
M  V30 71 1 31 67
M  V30 72 1 35 68
M  V30 73 1 36 69
M  V30 74 1 36 70
M  V30 75 1 37 71
M  V30 76 1 37 72
M  V30 77 1 38 73
M  V30 78 1 38 74
M  V30 79 1 39 75
M  V30 80 1 39 76
M  V30 END BOND
M  V30 END CTAB
M  END
>  <Dataset>  (722) 
ChEMBL_Kinases

>  <Ligand_Instance>  (722) 
nan

>  <PDB_ID>  (722) 
nan

>  <Standardized_SMILES>  (722) 
CC[C@@H]1C(=O)N(C)c2cnc(Nc3cc(F)c(C(=O)NC4CCCC4)cc3OCCO)nc2N1C1CCCC1

>  <Name>  (722) 
nan

>  <Pocket>  (722) 
nan

>  <ATP_Site>  (722) 
nan

>  <Peripheral>  (722) 
nan

>  <Num_H_Atoms_ProtBoundConf>  (722) 
nan

>  <Num_Resolved_Atoms>  (722) 
nan

>  <Num_Not_Resolved_Atoms>  (722) 
nan

$$$$
CHEMBL4743693
     RDKit          3D

  0  0  0  0  0  0  0  0  0  0999 V3000
M  V30 BEGIN CTAB
M  V30 COUNTS 52 55 0 0 0
M  V30 BEGIN ATOM
M  V30 1 C 2.071441 1.191043 5.831125 0
M  V30 2 O 2.976468 0.193047 5.497396 0
M  V30 3 C 3.457146 -0.138379 4.260192 0
M  V30 4 C 4.366828 -1.180434 4.132380 0
M  V30 5 N 4.868084 -1.543168 2.933583 0
M  V30 6 C 4.468390 -0.866240 1.820748 0
M  V30 7 C 3.566580 0.183058 1.860679 0
M  V30 8 C 3.197294 0.848874 0.616929 0
M  V30 9 O 3.736082 0.411505 -0.419463 0
M  V30 10 N 2.279686 1.926171 0.607436 0
M  V30 11 C 1.822950 2.671655 -0.514478 0
M  V30 12 C 2.407816 3.825804 -1.026397 0
M  V30 13 N 1.676322 4.239094 -2.101857 0
M  V30 14 N 0.666521 3.381899 -2.267235 0
M  V30 15 C 0.741151 2.431741 -1.318504 0
M  V30 16 C -0.153481 1.307935 -1.128335 0
M  V30 17 O 0.071314 0.505041 -0.173358 0
M  V30 18 N -1.282789 1.013067 -1.926576 0
M  V30 19 C -1.928731 -0.179708 -1.436909 0
M  V30 20 C -2.894306 0.091526 -0.488939 0
M  V30 21 C -3.617673 -0.932884 0.092156 0
M  V30 22 C -3.334944 -2.241386 -0.314659 0
M  V30 23 C -2.366754 -2.498689 -1.263656 0
M  V30 24 C -1.648837 -1.470492 -1.839161 0
M  V30 25 C -2.059972 -3.895553 -1.702680 0
M  V30 26 C -3.355386 -4.682756 -1.477429 0
M  V30 27 N -3.766157 -4.611405 -0.091829 0
M  V30 28 C -2.810695 -5.244727 0.791131 0
M  V30 29 C -4.141596 -3.304365 0.341697 0
M  V30 30 C 3.093778 0.501669 3.117000 0
M  V30 31 H 2.619340 1.985019 6.409227 0
M  V30 32 H 1.555023 1.689617 5.006004 0
M  V30 33 H 1.327566 0.777393 6.572524 0
M  V30 34 H 4.661651 -1.699018 5.056039 0
M  V30 35 H 4.929029 -1.237430 0.921082 0
M  V30 36 H 1.830315 2.290107 1.476433 0
M  V30 37 H 3.279201 4.342302 -0.677446 0
M  V30 38 H 1.893378 5.097148 -2.688915 0
M  V30 39 H -1.465811 1.680544 -2.716816 0
M  V30 40 H -3.151524 1.099534 -0.138015 0
M  V30 41 H -4.376250 -0.725051 0.836358 0
M  V30 42 H -0.888698 -1.584006 -2.574923 0
M  V30 43 H -1.259657 -4.326442 -1.102805 0
M  V30 44 H -1.882127 -3.968637 -2.799111 0
M  V30 45 H -3.209837 -5.755029 -1.720602 0
M  V30 46 H -4.159682 -4.254527 -2.082525 0
M  V30 47 H -3.307475 -6.000698 1.412452 0
M  V30 48 H -2.270178 -4.469673 1.392509 0
M  V30 49 H -2.076742 -5.774981 0.147915 0
M  V30 50 H -3.961861 -3.252031 1.454946 0
M  V30 51 H -5.215203 -3.061187 0.207681 0
M  V30 52 H 2.387354 1.317558 3.180691 0
M  V30 END ATOM
M  V30 BEGIN BOND
M  V30 1 1 1 2
M  V30 2 1 2 3
M  V30 3 2 3 4
M  V30 4 1 4 5
M  V30 5 2 5 6
M  V30 6 1 6 7
M  V30 7 1 7 8
M  V30 8 2 8 9
M  V30 9 1 8 10
M  V30 10 1 10 11
M  V30 11 2 11 12
M  V30 12 1 12 13
M  V30 13 1 13 14
M  V30 14 2 14 15
M  V30 15 1 15 16
M  V30 16 2 16 17
M  V30 17 1 16 18
M  V30 18 1 18 19
M  V30 19 2 19 20
M  V30 20 1 20 21
M  V30 21 2 21 22
M  V30 22 1 22 23
M  V30 23 2 23 24
M  V30 24 1 23 25
M  V30 25 1 25 26
M  V30 26 1 26 27
M  V30 27 1 27 28
M  V30 28 1 27 29
M  V30 29 2 7 30
M  V30 30 1 30 3
M  V30 31 1 15 11
M  V30 32 1 24 19
M  V30 33 1 29 22
M  V30 34 1 1 31
M  V30 35 1 1 32
M  V30 36 1 1 33
M  V30 37 1 4 34
M  V30 38 1 6 35
M  V30 39 1 10 36
M  V30 40 1 12 37
M  V30 41 1 13 38
M  V30 42 1 18 39
M  V30 43 1 20 40
M  V30 44 1 21 41
M  V30 45 1 24 42
M  V30 46 1 25 43
M  V30 47 1 25 44
M  V30 48 1 26 45
M  V30 49 1 26 46
M  V30 50 1 28 47
M  V30 51 1 28 48
M  V30 52 1 28 49
M  V30 53 1 29 50
M  V30 54 1 29 51
M  V30 55 1 30 52
M  V30 END BOND
M  V30 END CTAB
M  END
>  <Dataset>  (723) 
ChEMBL_Kinases

>  <Ligand_Instance>  (723) 
nan

>  <PDB_ID>  (723) 
nan

>  <Standardized_SMILES>  (723) 
COc1cncc(C(=O)Nc2c[nH]nc2C(=O)Nc2ccc3c(c2)CCN(C)C3)c1

>  <Name>  (723) 
nan

>  <Pocket>  (723) 
nan

>  <ATP_Site>  (723) 
nan

>  <Peripheral>  (723) 
nan

>  <Num_H_Atoms_ProtBoundConf>  (723) 
nan

>  <Num_Resolved_Atoms>  (723) 
nan

>  <Num_Not_Resolved_Atoms>  (723) 
nan

$$$$
CHEMBL4743606
     RDKit          3D

  0  0  0  0  0  0  0  0  0  0999 V3000
M  V30 BEGIN CTAB
M  V30 COUNTS 57 60 0 0 0
M  V30 BEGIN ATOM
M  V30 1 C 5.599626 -2.647031 6.087459 0
M  V30 2 C 5.325544 -1.899705 4.850651 0
M  V30 3 C 5.168311 -0.533645 4.856469 0
M  V30 4 C 4.910260 0.189714 3.712357 0
M  V30 5 C 4.814604 -0.529709 2.536429 0
M  V30 6 C 4.548245 -0.039928 1.164925 0
M  V30 7 O 4.464592 -0.710869 0.101073 0
M  V30 8 N 4.333110 1.346699 0.822899 0
M  V30 9 C 4.120259 1.341139 -0.585209 0
M  V30 10 C 5.130882 1.470645 -1.537136 0
M  V30 11 N 4.519887 1.410403 -2.746607 0
M  V30 12 N 3.196800 1.252028 -2.584994 0
M  V30 13 C 2.942167 1.209007 -1.285000 0
M  V30 14 C 1.640179 1.053330 -0.654425 0
M  V30 15 O 1.593798 1.068846 0.595770 0
M  V30 16 N 0.428753 0.886276 -1.360100 0
M  V30 17 C -0.898255 0.726614 -0.902145 0
M  V30 18 C -1.318592 0.681297 0.405853 0
M  V30 19 C -2.655809 0.519114 0.749079 0
M  V30 20 C -3.614653 0.396838 -0.255609 0
M  V30 21 O -4.882345 0.244504 0.299390 0
M  V30 22 C -6.037116 0.093460 -0.463437 0
M  V30 23 C -6.120944 -1.137236 -1.324312 0
M  V30 24 N -6.127960 -2.380395 -0.640928 0
M  V30 25 C -6.318997 -3.474228 -1.613238 0
M  V30 26 C -4.999326 -3.487973 -2.351617 0
M  V30 27 C -4.028630 -3.097765 -1.236468 0
M  V30 28 C -4.891173 -2.797162 -0.041590 0
M  V30 29 N -3.172756 0.445247 -1.518570 0
M  V30 30 C -1.891386 0.600468 -1.840705 0
M  V30 31 C 4.975512 -1.917126 2.536674 0
M  V30 32 N 5.228525 -2.595716 3.682786 0
M  V30 33 H 4.809989 -3.408960 6.312247 0
M  V30 34 H 5.721505 -1.999222 6.954387 0
M  V30 35 H 6.533083 -3.242936 5.921217 0
M  V30 36 H 5.238360 0.060998 5.760903 0
M  V30 37 H 4.767591 1.245941 3.577101 0
M  V30 38 H 4.370513 2.054939 1.619350 0
M  V30 39 H 6.174878 1.591597 -1.275522 0
M  V30 40 H 5.155672 1.494467 -3.591680 0
M  V30 41 H 0.608554 0.888669 -2.406676 0
M  V30 42 H -0.574493 0.775420 1.180229 0
M  V30 43 H -2.854060 0.500782 1.821063 0
M  V30 44 H -6.916337 0.141428 0.249637 0
M  V30 45 H -6.144898 1.020825 -1.114726 0
M  V30 46 H -7.065705 -1.051720 -1.924013 0
M  V30 47 H -5.320749 -1.103374 -2.118890 0
M  V30 48 H -7.170669 -3.319733 -2.272157 0
M  V30 49 H -6.380865 -4.403930 -0.991902 0
M  V30 50 H -4.775227 -4.538096 -2.681319 0
M  V30 51 H -4.950574 -2.788609 -3.184151 0
M  V30 52 H -3.385638 -3.992065 -0.995102 0
M  V30 53 H -3.352719 -2.293510 -1.495464 0
M  V30 54 H -5.105018 -3.784050 0.469367 0
M  V30 55 H -4.454267 -2.091689 0.675065 0
M  V30 56 H -1.768147 0.611156 -2.920737 0
M  V30 57 H 4.918126 -2.569224 1.663142 0
M  V30 END ATOM
M  V30 BEGIN BOND
M  V30 1 1 1 2
M  V30 2 2 2 3
M  V30 3 1 3 4
M  V30 4 2 4 5
M  V30 5 1 5 6
M  V30 6 2 6 7
M  V30 7 1 6 8
M  V30 8 1 8 9
M  V30 9 2 9 10
M  V30 10 1 10 11
M  V30 11 1 11 12
M  V30 12 2 12 13
M  V30 13 1 13 14
M  V30 14 2 14 15
M  V30 15 1 14 16
M  V30 16 1 16 17
M  V30 17 2 17 18
M  V30 18 1 18 19
M  V30 19 2 19 20
M  V30 20 1 20 21
M  V30 21 1 21 22
M  V30 22 1 22 23
M  V30 23 1 23 24
M  V30 24 1 24 25
M  V30 25 1 25 26
M  V30 26 1 26 27
M  V30 27 1 27 28
M  V30 28 1 20 29
M  V30 29 2 29 30
M  V30 30 1 5 31
M  V30 31 2 31 32
M  V30 32 1 32 2
M  V30 33 1 13 9
M  V30 34 1 30 17
M  V30 35 1 28 24
M  V30 36 1 1 33
M  V30 37 1 1 34
M  V30 38 1 1 35
M  V30 39 1 3 36
M  V30 40 1 4 37
M  V30 41 1 8 38
M  V30 42 1 10 39
M  V30 43 1 11 40
M  V30 44 1 16 41
M  V30 45 1 18 42
M  V30 46 1 19 43
M  V30 47 1 22 44
M  V30 48 1 22 45
M  V30 49 1 23 46
M  V30 50 1 23 47
M  V30 51 1 25 48
M  V30 52 1 25 49
M  V30 53 1 26 50
M  V30 54 1 26 51
M  V30 55 1 27 52
M  V30 56 1 27 53
M  V30 57 1 28 54
M  V30 58 1 28 55
M  V30 59 1 30 56
M  V30 60 1 31 57
M  V30 END BOND
M  V30 END CTAB
M  END
>  <Dataset>  (724) 
ChEMBL_Kinases

>  <Ligand_Instance>  (724) 
nan

>  <PDB_ID>  (724) 
nan

>  <Standardized_SMILES>  (724) 
Cc1ccc(C(=O)Nc2c[nH]nc2C(=O)Nc2ccc(OCCN3CCCC3)nc2)cn1

>  <Name>  (724) 
nan

>  <Pocket>  (724) 
nan

>  <ATP_Site>  (724) 
nan

>  <Peripheral>  (724) 
nan

>  <Num_H_Atoms_ProtBoundConf>  (724) 
nan

>  <Num_Resolved_Atoms>  (724) 
nan

>  <Num_Not_Resolved_Atoms>  (724) 
nan

$$$$
CHEMBL2392362
     RDKit          3D

  0  0  0  0  0  0  0  0  0  0999 V3000
M  V30 BEGIN CTAB
M  V30 COUNTS 39 41 0 0 0
M  V30 BEGIN ATOM
M  V30 1 C 0.007372 -5.883800 0.577309 0
M  V30 2 O 0.933502 -5.356805 1.486188 0
M  V30 3 C 1.351431 -4.054949 1.547624 0
M  V30 4 C 2.275779 -3.627495 2.493700 0
M  V30 5 C 2.658765 -2.310183 2.511786 0
M  V30 6 C 2.094569 -1.474938 1.573355 0
M  V30 7 C 1.183638 -1.822543 0.616548 0
M  V30 8 C 0.659914 -0.832387 -0.300177 0
M  V30 9 C -0.253480 -1.069200 -1.297063 0
M  V30 10 C -0.668994 -0.029575 -2.090673 0
M  V30 11 N -0.154707 1.193016 -1.851921 0
M  V30 12 C 0.742106 1.459800 -0.882080 0
M  V30 13 N 1.028634 2.834776 -0.907450 0
M  V30 14 C 1.027047 3.438732 0.432364 0
M  V30 15 C -0.164776 2.804466 1.123851 0
M  V30 16 C 0.078647 1.780714 2.056272 0
M  V30 17 C -0.906116 1.060360 2.706949 0
M  V30 18 C -2.207600 1.376609 2.414447 0
M  V30 19 Cl -3.457976 0.449448 3.244613 0
M  V30 20 C -2.484474 2.383336 1.500770 0
M  V30 21 Cl -4.162898 2.744539 1.156372 0
M  V30 22 C -1.483468 3.084878 0.867484 0
M  V30 23 N 1.114465 0.417631 -0.140095 0
M  V30 24 C 0.819661 -3.146602 0.625363 0
M  V30 25 H -0.200195 -6.925727 0.901005 0
M  V30 26 H -0.983602 -5.351298 0.683242 0
M  V30 27 H 0.350259 -5.908765 -0.462218 0
M  V30 28 H 2.677072 -4.347106 3.200794 0
M  V30 29 H 3.377425 -1.991999 3.245146 0
M  V30 30 H 2.455520 -0.436515 1.654405 0
M  V30 31 H -0.621252 -2.062121 -1.427540 0
M  V30 32 H -1.390420 -0.268875 -2.863076 0
M  V30 33 H 1.225852 3.369415 -1.777967 0
M  V30 34 H 0.910526 4.519467 0.350468 0
M  V30 35 H 1.918121 3.161913 0.999419 0
M  V30 36 H 1.094376 1.501992 2.339786 0
M  V30 37 H -0.672740 0.286815 3.408417 0
M  V30 38 H -1.662803 3.862627 0.159559 0
M  V30 39 H 0.077785 -3.470454 -0.130864 0
M  V30 END ATOM
M  V30 BEGIN BOND
M  V30 1 1 1 2
M  V30 2 1 2 3
M  V30 3 2 3 4
M  V30 4 1 4 5
M  V30 5 2 5 6
M  V30 6 1 6 7
M  V30 7 1 7 8
M  V30 8 2 8 9
M  V30 9 1 9 10
M  V30 10 2 10 11
M  V30 11 1 11 12
M  V30 12 1 12 13
M  V30 13 1 13 14
M  V30 14 1 14 15
M  V30 15 2 15 16
M  V30 16 1 16 17
M  V30 17 2 17 18
M  V30 18 1 18 19
M  V30 19 1 18 20
M  V30 20 1 20 21
M  V30 21 2 20 22
M  V30 22 2 12 23
M  V30 23 2 7 24
M  V30 24 1 24 3
M  V30 25 1 23 8
M  V30 26 1 22 15
M  V30 27 1 1 25
M  V30 28 1 1 26
M  V30 29 1 1 27
M  V30 30 1 4 28
M  V30 31 1 5 29
M  V30 32 1 6 30
M  V30 33 1 9 31
M  V30 34 1 10 32
M  V30 35 1 13 33
M  V30 36 1 14 34
M  V30 37 1 14 35
M  V30 38 1 16 36
M  V30 39 1 17 37
M  V30 40 1 22 38
M  V30 41 1 24 39
M  V30 END BOND
M  V30 END CTAB
M  END
>  <Dataset>  (725) 
ChEMBL_Kinases

>  <Ligand_Instance>  (725) 
nan

>  <PDB_ID>  (725) 
nan

>  <Standardized_SMILES>  (725) 
COc1cccc(-c2ccnc(NCc3ccc(Cl)c(Cl)c3)n2)c1

>  <Name>  (725) 
nan

>  <Pocket>  (725) 
nan

>  <ATP_Site>  (725) 
nan

>  <Peripheral>  (725) 
nan

>  <Num_H_Atoms_ProtBoundConf>  (725) 
nan

>  <Num_Resolved_Atoms>  (725) 
nan

>  <Num_Not_Resolved_Atoms>  (725) 
nan

$$$$
CHEMBL2011933
     RDKit          3D

  0  0  0  0  0  0  0  0  0  0999 V3000
M  V30 BEGIN CTAB
M  V30 COUNTS 53 56 0 0 0
M  V30 BEGIN ATOM
M  V30 1 C -2.236482 -2.689571 6.299730 0
M  V30 2 O -1.756449 -3.659182 5.415751 0
M  V30 3 C -1.070459 -3.445178 4.249797 0
M  V30 4 C -0.747158 -2.181333 3.771033 0
M  V30 5 C -0.061577 -2.127554 2.596034 0
M  V30 6 C 0.326874 -3.243845 1.860524 0
M  V30 7 C 1.061798 -3.102169 0.606087 0
M  V30 8 N 1.418875 -1.913214 0.064810 0
M  V30 9 C 2.085260 -2.125951 -1.093415 0
M  V30 10 C 2.618961 -1.187617 -1.953496 0
M  V30 11 N 2.533981 0.198055 -1.723051 0
M  V30 12 C 1.855315 0.670644 -0.527894 0
M  V30 13 C 1.867424 2.182575 -0.456520 0
M  V30 14 C 1.154987 2.604641 0.793581 0
M  V30 15 N -0.222178 2.167152 0.850478 0
M  V30 16 C -1.100509 2.614324 -0.177267 0
M  V30 17 O -0.714486 3.370023 -1.120805 0
M  V30 18 C -2.499156 2.157150 -0.100624 0
M  V30 19 C -3.408262 2.647293 -1.204312 0
M  V30 20 C -4.174334 1.349934 -0.949497 0
M  V30 21 C -2.783123 0.768148 -0.652766 0
M  V30 22 C 3.253495 -1.697289 -3.075058 0
M  V30 23 Br 4.042553 -0.554251 -4.361529 0
M  V30 24 C 3.289624 -3.061823 -3.220246 0
M  V30 25 N 2.754550 -3.971170 -2.356037 0
M  V30 26 C 2.127149 -3.496580 -1.248877 0
M  V30 27 N 1.504726 -4.090158 -0.215312 0
M  V30 28 C 0.004455 -4.490011 2.338850 0
M  V30 29 C -0.697286 -4.587480 3.538963 0
M  V30 30 H -1.649638 -1.764614 6.278098 0
M  V30 31 H -3.294420 -2.411865 6.102785 0
M  V30 32 H -2.231962 -3.120280 7.330144 0
M  V30 33 H -1.037313 -1.311819 4.322608 0
M  V30 34 H 0.191203 -1.151291 2.220980 0
M  V30 35 H 2.950978 0.849983 -2.400001 0
M  V30 36 H 0.810047 0.343144 -0.476128 0
M  V30 37 H 2.415294 0.260238 0.337288 0
M  V30 38 H 1.538021 2.658721 -1.377780 0
M  V30 39 H 2.935677 2.464573 -0.320140 0
M  V30 40 H 1.254645 3.704170 0.974301 0
M  V30 41 H 1.687622 2.122894 1.639885 0
M  V30 42 H -0.582992 1.533457 1.625948 0
M  V30 43 H -3.002230 2.253118 0.874152 0
M  V30 44 H -3.978673 3.566860 -0.986408 0
M  V30 45 H -2.919615 2.571457 -2.193032 0
M  V30 46 H -4.705690 1.440123 0.018627 0
M  V30 47 H -4.695723 0.921925 -1.798538 0
M  V30 48 H -2.292304 0.581400 -1.631504 0
M  V30 49 H -2.768663 -0.041331 0.081611 0
M  V30 50 H 3.785654 -3.480730 -4.098234 0
M  V30 51 H 1.379611 -5.122434 -0.063158 0
M  V30 52 H 0.293518 -5.385107 1.787614 0
M  V30 53 H -0.925550 -5.602134 3.869552 0
M  V30 END ATOM
M  V30 BEGIN BOND
M  V30 1 1 1 2
M  V30 2 1 2 3
M  V30 3 2 3 4
M  V30 4 1 4 5
M  V30 5 2 5 6
M  V30 6 1 6 7
M  V30 7 2 7 8
M  V30 8 1 8 9
M  V30 9 2 9 10
M  V30 10 1 10 11
M  V30 11 1 11 12
M  V30 12 1 12 13
M  V30 13 1 13 14
M  V30 14 1 14 15
M  V30 15 1 15 16
M  V30 16 2 16 17
M  V30 17 1 16 18
M  V30 18 1 18 19
M  V30 19 1 19 20
M  V30 20 1 20 21
M  V30 21 1 10 22
M  V30 22 1 22 23
M  V30 23 2 22 24
M  V30 24 1 24 25
M  V30 25 2 25 26
M  V30 26 1 26 27
M  V30 27 1 6 28
M  V30 28 2 28 29
M  V30 29 1 29 3
M  V30 30 1 27 7
M  V30 31 1 26 9
M  V30 32 1 21 18
M  V30 33 1 1 30
M  V30 34 1 1 31
M  V30 35 1 1 32
M  V30 36 1 4 33
M  V30 37 1 5 34
M  V30 38 1 11 35
M  V30 39 1 12 36
M  V30 40 1 12 37
M  V30 41 1 13 38
M  V30 42 1 13 39
M  V30 43 1 14 40
M  V30 44 1 14 41
M  V30 45 1 15 42
M  V30 46 1 18 43
M  V30 47 1 19 44
M  V30 48 1 19 45
M  V30 49 1 20 46
M  V30 50 1 20 47
M  V30 51 1 21 48
M  V30 52 1 21 49
M  V30 53 1 24 50
M  V30 54 1 27 51
M  V30 55 1 28 52
M  V30 56 1 29 53
M  V30 END BOND
M  V30 END CTAB
M  END
>  <Dataset>  (726) 
ChEMBL_Kinases

>  <Ligand_Instance>  (726) 
nan

>  <PDB_ID>  (726) 
nan

>  <Standardized_SMILES>  (726) 
COc1ccc(-c2nc3c(NCCCNC(=O)C4CCC4)c(Br)cnc3[nH]2)cc1

>  <Name>  (726) 
nan

>  <Pocket>  (726) 
nan

>  <ATP_Site>  (726) 
nan

>  <Peripheral>  (726) 
nan

>  <Num_H_Atoms_ProtBoundConf>  (726) 
nan

>  <Num_Resolved_Atoms>  (726) 
nan

>  <Num_Not_Resolved_Atoms>  (726) 
nan

$$$$
CHEMBL2386716
     RDKit          3D

  0  0  0  0  0  0  0  0  0  0999 V3000
M  V30 BEGIN CTAB
M  V30 COUNTS 51 55 0 0 0
M  V30 BEGIN ATOM
M  V30 1 C -0.368488 -0.883559 2.509498 0
M  V30 2 C -0.497158 -2.387287 2.621768 0 CFG=2
M  V30 3 N 0.789746 -3.024490 2.644639 0
M  V30 4 C 1.722714 -2.687430 1.594046 0
M  V30 5 N 2.955693 -3.234853 1.559304 0
M  V30 6 C 3.835352 -2.928847 0.610212 0
M  V30 7 C 3.522759 -2.031842 -0.387486 0
M  V30 8 C 2.259025 -1.453181 -0.376708 0
M  V30 9 N 1.607652 -0.516671 -1.214840 0
M  V30 10 C 1.284899 0.845985 -1.050490 0
M  V30 11 C 1.505420 1.704012 -0.000928 0
M  V30 12 C 0.915089 2.883228 -0.473350 0
M  V30 13 C 0.863609 4.165684 0.306728 0
M  V30 14 C 0.584728 3.887525 1.768509 0
M  V30 15 C 1.619462 4.958567 2.106571 0
M  V30 16 C 2.248936 4.662448 0.741901 0
M  V30 17 N 0.394325 2.729134 -1.696769 0
M  V30 18 N 0.625646 1.473984 -2.044633 0
M  V30 19 N 1.438742 -1.820482 0.617767 0
M  V30 20 C -1.509789 -2.973113 1.758855 0
M  V30 21 C -2.846887 -2.883259 2.174837 0
M  V30 22 C -3.924541 -3.389257 1.486433 0
M  V30 23 C -3.743287 -4.040865 0.300354 0
M  V30 24 N -4.515715 -4.643423 -0.616931 0
M  V30 25 C -3.788900 -5.144398 -1.640679 0
M  V30 26 C -2.486149 -4.843066 -1.356875 0
M  V30 27 C -2.448100 -4.160291 -0.158306 0
M  V30 28 C -1.406069 -3.634403 0.571422 0
M  V30 29 H -1.024787 -0.352231 3.221862 0
M  V30 30 H 0.683614 -0.551712 2.686860 0
M  V30 31 H -0.646401 -0.580787 1.481702 0
M  V30 32 H -0.895746 -2.541563 3.696942 0
M  V30 33 H 1.111652 -3.712202 3.357740 0
M  V30 34 H 4.838305 -3.316345 0.504520 0
M  V30 35 H 4.090713 -1.651982 -1.240497 0
M  V30 36 H 1.429702 -1.130216 -2.008416 0
M  V30 37 H 2.002240 1.473893 0.908922 0
M  V30 38 H 0.254350 4.965131 -0.150344 0
M  V30 39 H -0.440022 4.112447 2.122288 0
M  V30 40 H 0.957437 2.883806 2.062685 0
M  V30 41 H 1.211258 5.979656 2.093765 0
M  V30 42 H 2.300439 4.678822 2.927213 0
M  V30 43 H 3.021166 3.891475 0.735112 0
M  V30 44 H 2.513032 5.599578 0.179761 0
M  V30 45 H -0.101833 3.420328 -2.296314 0
M  V30 46 H -3.091181 -2.377472 3.115395 0
M  V30 47 H -4.926061 -3.287425 1.857667 0
M  V30 48 H -5.553660 -4.724134 -0.563782 0
M  V30 49 H -4.078439 -5.682716 -2.533127 0
M  V30 50 H -1.627690 -5.088526 -1.955798 0
M  V30 51 H -0.419101 -3.764380 0.165652 0
M  V30 END ATOM
M  V30 BEGIN BOND
M  V30 1 1 1 2
M  V30 2 1 2 3
M  V30 3 1 3 4
M  V30 4 2 4 5
M  V30 5 1 5 6
M  V30 6 2 6 7
M  V30 7 1 7 8
M  V30 8 1 8 9
M  V30 9 1 9 10
M  V30 10 1 10 11
M  V30 11 2 11 12
M  V30 12 1 12 13
M  V30 13 1 13 14
M  V30 14 1 14 15
M  V30 15 1 15 16
M  V30 16 1 12 17
M  V30 17 1 17 18
M  V30 18 2 8 19
M  V30 19 1 2 20
M  V30 20 2 20 21
M  V30 21 1 21 22
M  V30 22 2 22 23
M  V30 23 1 23 24
M  V30 24 1 24 25
M  V30 25 2 25 26
M  V30 26 1 26 27
M  V30 27 2 27 28
M  V30 28 1 19 4
M  V30 29 1 28 20
M  V30 30 2 18 10
M  V30 31 1 27 23
M  V30 32 1 16 13
M  V30 33 1 1 29
M  V30 34 1 1 30
M  V30 35 1 1 31
M  V30 36 1 2 32 CFG=1
M  V30 37 1 3 33
M  V30 38 1 6 34
M  V30 39 1 7 35
M  V30 40 1 9 36
M  V30 41 1 11 37
M  V30 42 1 13 38
M  V30 43 1 14 39
M  V30 44 1 14 40
M  V30 45 1 15 41
M  V30 46 1 15 42
M  V30 47 1 16 43
M  V30 48 1 16 44
M  V30 49 1 17 45
M  V30 50 1 21 46
M  V30 51 1 22 47
M  V30 52 1 24 48
M  V30 53 1 25 49
M  V30 54 1 26 50
M  V30 55 1 28 51
M  V30 END BOND
M  V30 END CTAB
M  END
>  <Dataset>  (727) 
ChEMBL_Kinases

>  <Ligand_Instance>  (727) 
nan

>  <PDB_ID>  (727) 
nan

>  <Standardized_SMILES>  (727) 
C[C@H](Nc1nccc(Nc2cc(C3CCC3)[nH]n2)n1)c1ccc2[nH]ccc2c1

>  <Name>  (727) 
nan

>  <Pocket>  (727) 
nan

>  <ATP_Site>  (727) 
nan

>  <Peripheral>  (727) 
nan

>  <Num_H_Atoms_ProtBoundConf>  (727) 
nan

>  <Num_Resolved_Atoms>  (727) 
nan

>  <Num_Not_Resolved_Atoms>  (727) 
nan

$$$$
CHEMBL2386715
     RDKit          3D

  0  0  0  0  0  0  0  0  0  0999 V3000
M  V30 BEGIN CTAB
M  V30 COUNTS 54 58 0 0 0
M  V30 BEGIN ATOM
M  V30 1 C -0.151721 1.133093 5.614306 0
M  V30 2 O -0.568718 -0.077295 5.130537 0
M  V30 3 C 0.422294 -0.981777 4.882272 0
M  V30 4 C 1.461180 -0.605236 3.896669 0
M  V30 5 N 1.001980 -0.333559 2.554435 0
M  V30 6 C 2.135546 0.092137 1.762452 0
M  V30 7 C 1.821538 0.500303 0.392667 0
M  V30 8 C 2.013703 -0.241842 -0.760468 0
M  V30 9 C 1.657910 0.309366 -1.977872 0
M  V30 10 F 1.864430 -0.454204 -3.091537 0
M  V30 11 C 1.120650 1.554361 -2.131693 0
M  V30 12 C 0.931754 2.285476 -0.989435 0
M  V30 13 N 0.428366 3.532439 -0.800206 0
M  V30 14 N 0.439592 3.820681 0.485146 0
M  V30 15 C 0.948584 2.776966 1.180372 0
M  V30 16 C 1.270197 1.782348 0.252310 0
M  V30 17 C -0.320377 -0.481221 2.060540 0
M  V30 18 N -1.348122 -0.913600 2.796147 0
M  V30 19 C -2.556825 -1.028367 2.232792 0
M  V30 20 C -2.857992 -0.733849 0.919586 0
M  V30 21 C -1.772355 -0.290651 0.191554 0
M  V30 22 N -1.991795 0.036880 -1.177163 0
M  V30 23 C -1.795617 -1.014775 -2.118766 0
M  V30 24 C -1.396583 -2.296610 -1.795941 0
M  V30 25 C -1.304806 -3.064190 -2.939266 0
M  V30 26 C -0.902016 -4.509281 -3.023190 0
M  V30 27 C 0.269471 -4.903716 -2.063823 0
M  V30 28 C -1.112632 -5.358710 -1.774404 0
M  V30 29 N -1.649841 -2.237810 -3.941074 0
M  V30 30 N -1.939533 -1.031392 -3.465208 0
M  V30 31 N -0.570852 -0.183963 0.778525 0
M  V30 32 H -1.088030 1.745368 5.758050 0
M  V30 33 H 0.279722 1.049826 6.643879 0
M  V30 34 H 0.489147 1.710814 4.934324 0
M  V30 35 H 0.957217 -1.241172 5.834185 0
M  V30 36 H -0.032799 -1.939414 4.555300 0
M  V30 37 H 2.177168 0.164815 4.280047 0
M  V30 38 H 2.122717 -1.520013 3.785020 0
M  V30 39 H 2.638181 0.937193 2.327421 0
M  V30 40 H 2.886948 -0.740196 1.801673 0
M  V30 41 H 2.437487 -1.221674 -0.625178 0
M  V30 42 H 0.842249 1.990441 -3.066233 0
M  V30 43 H 0.065712 4.229978 -1.486762 0
M  V30 44 H 1.092127 2.698511 2.262086 0
M  V30 45 H -3.351719 -1.385941 2.887140 0
M  V30 46 H -3.847953 -0.848158 0.530362 0
M  V30 47 H -2.278444 0.961771 -1.554663 0
M  V30 48 H -1.172510 -2.707630 -0.820673 0
M  V30 49 H -0.890311 -5.000643 -4.003454 0
M  V30 50 H 1.017086 -5.583964 -2.490098 0
M  V30 51 H 0.651250 -4.076848 -1.429642 0
M  V30 52 H -1.308133 -6.435907 -1.888785 0
M  V30 53 H -1.661890 -4.871088 -0.946638 0
M  V30 54 H -1.681677 -2.521527 -4.958925 0
M  V30 END ATOM
M  V30 BEGIN BOND
M  V30 1 1 1 2
M  V30 2 1 2 3
M  V30 3 1 3 4
M  V30 4 1 4 5
M  V30 5 1 5 6
M  V30 6 1 6 7
M  V30 7 2 7 8
M  V30 8 1 8 9
M  V30 9 1 9 10
M  V30 10 2 9 11
M  V30 11 1 11 12
M  V30 12 1 12 13
M  V30 13 1 13 14
M  V30 14 2 14 15
M  V30 15 1 15 16
M  V30 16 1 5 17
M  V30 17 2 17 18
M  V30 18 1 18 19
M  V30 19 2 19 20
M  V30 20 1 20 21
M  V30 21 1 21 22
M  V30 22 1 22 23
M  V30 23 1 23 24
M  V30 24 2 24 25
M  V30 25 1 25 26
M  V30 26 1 26 27
M  V30 27 1 27 28
M  V30 28 1 25 29
M  V30 29 1 29 30
M  V30 30 2 21 31
M  V30 31 1 16 7
M  V30 32 1 31 17
M  V30 33 2 16 12
M  V30 34 2 30 23
M  V30 35 1 28 26
M  V30 36 1 1 32
M  V30 37 1 1 33
M  V30 38 1 1 34
M  V30 39 1 3 35
M  V30 40 1 3 36
M  V30 41 1 4 37
M  V30 42 1 4 38
M  V30 43 1 6 39
M  V30 44 1 6 40
M  V30 45 1 8 41
M  V30 46 1 11 42
M  V30 47 1 13 43
M  V30 48 1 15 44
M  V30 49 1 19 45
M  V30 50 1 20 46
M  V30 51 1 22 47
M  V30 52 1 24 48
M  V30 53 1 26 49
M  V30 54 1 27 50
M  V30 55 1 27 51
M  V30 56 1 28 52
M  V30 57 1 28 53
M  V30 58 1 29 54
M  V30 END BOND
M  V30 END CTAB
M  END
>  <Dataset>  (728) 
ChEMBL_Kinases

>  <Ligand_Instance>  (728) 
nan

>  <PDB_ID>  (728) 
nan

>  <Standardized_SMILES>  (728) 
COCCN(Cc1cc(F)cc2[nH]ncc12)c1nccc(Nc2cc(C3CC3)[nH]n2)n1

>  <Name>  (728) 
nan

>  <Pocket>  (728) 
nan

>  <ATP_Site>  (728) 
nan

>  <Peripheral>  (728) 
nan

>  <Num_H_Atoms_ProtBoundConf>  (728) 
nan

>  <Num_Resolved_Atoms>  (728) 
nan

>  <Num_Not_Resolved_Atoms>  (728) 
nan

$$$$
CHEMBL4461326
     RDKit          3D

  0  0  0  0  0  0  0  0  0  0999 V3000
M  V30 BEGIN CTAB
M  V30 COUNTS 54 59 0 0 0
M  V30 BEGIN ATOM
M  V30 1 C 1.985154 -3.876189 3.720147 0
M  V30 2 N 3.007376 -3.147917 2.958267 0
M  V30 3 C 4.378127 -3.626562 3.019496 0
M  V30 4 C 5.306201 -2.514765 2.630554 0
M  V30 5 O 4.684057 -1.240678 2.686025 0
M  V30 6 C 3.473166 -0.994213 2.055846 0
M  V30 7 C 2.587377 -2.020192 2.208536 0
M  V30 8 C 1.305260 -1.929663 1.627120 0
M  V30 9 N 1.045327 -0.800221 0.944186 0
M  V30 10 N 1.923131 0.181462 0.811645 0
M  V30 11 C 1.850274 1.389895 0.166651 0
M  V30 12 C 0.722465 1.935468 -0.588792 0
M  V30 13 C 0.866795 3.177876 -1.200753 0
M  V30 14 C -0.160549 3.740934 -1.944261 0
M  V30 15 C -1.358928 3.081317 -2.098249 0
M  V30 16 C -2.467583 3.493898 -2.814449 0
M  V30 17 C -3.638200 2.787725 -2.949734 0
M  V30 18 C -3.696861 1.554874 -2.304905 0
M  V30 19 C -2.586390 1.115323 -1.572677 0
M  V30 20 N -2.947291 -0.144107 -1.062956 0
M  V30 21 C -3.307999 -1.404360 -0.552675 0
M  V30 22 C -2.352906 -2.547912 -0.785420 0
M  V30 23 C -2.444945 -3.578067 0.313422 0
M  V30 24 O -2.094350 -3.068856 1.547486 0
M  V30 25 C -2.644366 -1.842556 1.849734 0
M  V30 26 C -3.708366 -1.379047 0.894169 0
M  V30 27 C -1.458746 1.868207 -1.482342 0
M  V30 28 N -0.459762 1.294561 -0.745091 0
M  V30 29 N 3.050127 2.049528 0.332005 0
M  V30 30 N 3.834591 1.262262 1.059595 0
M  V30 31 C 3.180071 0.145984 1.354379 0
M  V30 32 H 0.998915 -3.388262 3.632954 0
M  V30 33 H 1.934480 -4.911609 3.360214 0
M  V30 34 H 2.281036 -3.809889 4.790235 0
M  V30 35 H 4.517929 -4.440850 2.244144 0
M  V30 36 H 4.625555 -4.017352 4.029540 0
M  V30 37 H 6.146634 -2.504441 3.382061 0
M  V30 38 H 5.713290 -2.644720 1.604015 0
M  V30 39 H 0.642584 -2.766800 1.773863 0
M  V30 40 H 1.797584 3.721193 -1.099624 0
M  V30 41 H -0.092695 4.700496 -2.435035 0
M  V30 42 H -2.377146 4.446487 -3.289563 0
M  V30 43 H -4.440933 3.241051 -3.553893 0
M  V30 44 H -4.672987 1.078378 -2.478204 0
M  V30 45 H -2.077554 -0.308358 -0.465467 0
M  V30 46 H -4.273029 -1.718673 -1.099826 0
M  V30 47 H -2.615368 -3.050024 -1.736247 0
M  V30 48 H -1.293225 -2.189709 -0.915580 0
M  V30 49 H -3.463631 -4.013387 0.364819 0
M  V30 50 H -1.773201 -4.432251 0.087844 0
M  V30 51 H -1.860180 -1.085876 2.024612 0
M  V30 52 H -3.114227 -1.981709 2.878474 0
M  V30 53 H -4.016491 -0.343029 1.196706 0
M  V30 54 H -4.568636 -2.068128 1.035699 0
M  V30 END ATOM
M  V30 BEGIN BOND
M  V30 1 1 1 2
M  V30 2 1 2 3
M  V30 3 1 3 4
M  V30 4 1 4 5
M  V30 5 1 5 6
M  V30 6 2 6 7
M  V30 7 1 7 8
M  V30 8 2 8 9
M  V30 9 1 9 10
M  V30 10 1 10 11
M  V30 11 1 11 12
M  V30 12 2 12 13
M  V30 13 1 13 14
M  V30 14 2 14 15
M  V30 15 1 15 16
M  V30 16 2 16 17
M  V30 17 1 17 18
M  V30 18 2 18 19
M  V30 19 1 19 20
M  V30 20 1 20 21
M  V30 21 1 21 22
M  V30 22 1 22 23
M  V30 23 1 23 24
M  V30 24 1 24 25
M  V30 25 1 25 26
M  V30 26 1 19 27
M  V30 27 2 27 28
M  V30 28 2 11 29
M  V30 29 1 29 30
M  V30 30 2 30 31
M  V30 31 1 7 2
M  V30 32 1 31 10
M  V30 33 1 31 6
M  V30 34 1 28 12
M  V30 35 1 27 15
M  V30 36 1 26 21
M  V30 37 1 1 32
M  V30 38 1 1 33
M  V30 39 1 1 34
M  V30 40 1 3 35
M  V30 41 1 3 36
M  V30 42 1 4 37
M  V30 43 1 4 38
M  V30 44 1 8 39
M  V30 45 1 13 40
M  V30 46 1 14 41
M  V30 47 1 16 42
M  V30 48 1 17 43
M  V30 49 1 18 44
M  V30 50 1 20 45
M  V30 51 1 21 46
M  V30 52 1 22 47
M  V30 53 1 22 48
M  V30 54 1 23 49
M  V30 55 1 23 50
M  V30 56 1 25 51
M  V30 57 1 25 52
M  V30 58 1 26 53
M  V30 59 1 26 54
M  V30 END BOND
M  V30 END CTAB
M  END
>  <Dataset>  (729) 
ChEMBL_Kinases

>  <Ligand_Instance>  (729) 
nan

>  <PDB_ID>  (729) 
nan

>  <Standardized_SMILES>  (729) 
CN1CCOc2c1cnn1c(-c3ccc4cccc(NC5CCOCC5)c4n3)nnc21

>  <Name>  (729) 
nan

>  <Pocket>  (729) 
nan

>  <ATP_Site>  (729) 
nan

>  <Peripheral>  (729) 
nan

>  <Num_H_Atoms_ProtBoundConf>  (729) 
nan

>  <Num_Resolved_Atoms>  (729) 
nan

>  <Num_Not_Resolved_Atoms>  (729) 
nan

$$$$
CHEMBL4740574
     RDKit          3D

  0  0  0  0  0  0  0  0  0  0999 V3000
M  V30 BEGIN CTAB
M  V30 COUNTS 63 68 0 0 0
M  V30 BEGIN ATOM
M  V30 1 C 5.262880 -0.264311 0.733947 0
M  V30 2 N 4.473789 0.950700 0.749958 0
M  V30 3 C 3.758819 1.004365 2.014137 0
M  V30 4 C 3.587252 0.984156 -0.377455 0
M  V30 5 C 2.739444 2.186234 -0.451438 0
M  V30 6 C 2.984743 3.391055 -1.076214 0
M  V30 7 N 2.086372 4.389117 -1.038600 0
M  V30 8 C 0.918807 4.274921 -0.402656 0
M  V30 9 C 0.596240 3.113439 0.243012 0
M  V30 10 C -0.684904 2.936571 0.962062 0
M  V30 11 C -1.199544 4.090931 1.532784 0
M  V30 12 C -2.389054 4.005460 2.220104 0
M  V30 13 C -3.026099 2.786913 2.319128 0
M  V30 14 N -4.167782 2.391761 2.907646 0
M  V30 15 N -4.345810 1.101004 2.717829 0
M  V30 16 C -3.349761 0.556602 2.000682 0
M  V30 17 C -3.268065 -0.842086 1.634002 0
M  V30 18 C -2.403715 -1.632009 0.941684 0
M  V30 19 C -2.802267 -2.948057 0.881387 0
M  V30 20 C -2.250576 -4.072221 0.300749 0
M  V30 21 N -1.023573 -3.975913 -0.410648 0
M  V30 22 C -0.961050 -3.116265 -1.580348 0
M  V30 23 C -0.677491 -3.967076 -2.799323 0
M  V30 24 C 0.494213 -4.894713 -2.570742 0
M  V30 25 C 1.148672 -4.654534 -1.228999 0
M  V30 26 C 0.203107 -4.669493 -0.073764 0
M  V30 27 N -2.920547 -5.222966 0.440387 0
M  V30 28 C -4.093388 -5.326455 1.114220 0
M  V30 29 C -4.623255 -4.188541 1.684886 0
M  V30 30 C -4.000134 -2.958462 1.591061 0
M  V30 31 N -4.219887 -1.718379 2.001801 0
M  V30 32 C -2.527489 1.629547 1.757341 0
M  V30 33 C -1.350289 1.744647 1.084135 0
M  V30 34 C 1.516281 2.067336 0.214475 0
M  V30 35 H 6.030412 -0.208065 1.531419 0
M  V30 36 H 5.735744 -0.431068 -0.264047 0
M  V30 37 H 4.596200 -1.133376 0.953274 0
M  V30 38 H 2.997801 0.175737 2.004885 0
M  V30 39 H 4.426681 0.777517 2.865368 0
M  V30 40 H 3.285581 1.990671 2.170910 0
M  V30 41 H 4.233984 0.976389 -1.296201 0
M  V30 42 H 2.983553 0.064739 -0.408958 0
M  V30 43 H 3.949846 3.424354 -1.576179 0
M  V30 44 H 0.204752 5.076008 -0.375892 0
M  V30 45 H -0.764740 5.074019 1.500235 0
M  V30 46 H -2.882052 4.825485 2.701145 0
M  V30 47 H -4.837963 2.975431 3.440021 0
M  V30 48 H -1.496826 -1.295190 0.478764 0
M  V30 49 H -0.183211 -2.339635 -1.454387 0
M  V30 50 H -1.935848 -2.616450 -1.753840 0
M  V30 51 H -1.577230 -4.595153 -2.952861 0
M  V30 52 H -0.562237 -3.301896 -3.664916 0
M  V30 53 H 1.250595 -4.682153 -3.351584 0
M  V30 54 H 0.195925 -5.949120 -2.637006 0
M  V30 55 H 1.626569 -3.640840 -1.267827 0
M  V30 56 H 1.915868 -5.449053 -1.092842 0
M  V30 57 H -0.034919 -5.696031 0.296347 0
M  V30 58 H 0.681487 -4.078618 0.761815 0
M  V30 59 H -4.621459 -6.283620 1.212882 0
M  V30 60 H -5.555877 -4.232250 2.229356 0
M  V30 61 H -5.104995 -1.563385 2.562860 0
M  V30 62 H -0.913650 0.886639 0.627795 0
M  V30 63 H 1.214603 1.163068 0.742524 0
M  V30 END ATOM
M  V30 BEGIN BOND
M  V30 1 1 1 2
M  V30 2 1 2 3
M  V30 3 1 2 4
M  V30 4 1 4 5
M  V30 5 2 5 6
M  V30 6 1 6 7
M  V30 7 2 7 8
M  V30 8 1 8 9
M  V30 9 1 9 10
M  V30 10 2 10 11
M  V30 11 1 11 12
M  V30 12 2 12 13
M  V30 13 1 13 14
M  V30 14 1 14 15
M  V30 15 2 15 16
M  V30 16 1 16 17
M  V30 17 2 17 18
M  V30 18 1 18 19
M  V30 19 2 19 20
M  V30 20 1 20 21
M  V30 21 1 21 22
M  V30 22 1 22 23
M  V30 23 1 23 24
M  V30 24 1 24 25
M  V30 25 1 25 26
M  V30 26 1 20 27
M  V30 27 2 27 28
M  V30 28 1 28 29
M  V30 29 2 29 30
M  V30 30 1 30 31
M  V30 31 1 16 32
M  V30 32 2 32 33
M  V30 33 2 9 34
M  V30 34 1 34 5
M  V30 35 1 33 10
M  V30 36 1 32 13
M  V30 37 1 31 17
M  V30 38 1 30 19
M  V30 39 1 26 21
M  V30 40 1 1 35
M  V30 41 1 1 36
M  V30 42 1 1 37
M  V30 43 1 3 38
M  V30 44 1 3 39
M  V30 45 1 3 40
M  V30 46 1 4 41
M  V30 47 1 4 42
M  V30 48 1 6 43
M  V30 49 1 8 44
M  V30 50 1 11 45
M  V30 51 1 12 46
M  V30 52 1 14 47
M  V30 53 1 18 48
M  V30 54 1 22 49
M  V30 55 1 22 50
M  V30 56 1 23 51
M  V30 57 1 23 52
M  V30 58 1 24 53
M  V30 59 1 24 54
M  V30 60 1 25 55
M  V30 61 1 25 56
M  V30 62 1 26 57
M  V30 63 1 26 58
M  V30 64 1 28 59
M  V30 65 1 29 60
M  V30 66 1 31 61
M  V30 67 1 33 62
M  V30 68 1 34 63
M  V30 END BOND
M  V30 END CTAB
M  END
>  <Dataset>  (730) 
ChEMBL_Kinases

>  <Ligand_Instance>  (730) 
nan

>  <PDB_ID>  (730) 
nan

>  <Standardized_SMILES>  (730) 
CN(C)Cc1cncc(-c2ccc3[nH]nc(-c4cc5c(N6CCCCC6)nccc5[nH]4)c3c2)c1

>  <Name>  (730) 
nan

>  <Pocket>  (730) 
nan

>  <ATP_Site>  (730) 
nan

>  <Peripheral>  (730) 
nan

>  <Num_H_Atoms_ProtBoundConf>  (730) 
nan

>  <Num_Resolved_Atoms>  (730) 
nan

>  <Num_Not_Resolved_Atoms>  (730) 
nan

$$$$
CHEMBL4740518
     RDKit          3D

  0  0  0  0  0  0  0  0  0  0999 V3000
M  V30 BEGIN CTAB
M  V30 COUNTS 74 79 0 0 0
M  V30 BEGIN ATOM
M  V30 1 C 6.310427 0.272946 3.839044 0
M  V30 2 N 5.263738 1.244043 3.586845 0
M  V30 3 N 5.228393 2.498603 3.986667 0
M  V30 4 C 4.109296 3.103059 3.572378 0
M  V30 5 C 3.358149 2.171182 2.847555 0
M  V30 6 C 2.068282 2.485075 2.249898 0
M  V30 7 C 2.076716 3.676149 1.511163 0
M  V30 8 C 0.969052 4.176602 0.860173 0
M  V30 9 C -0.223878 3.490691 0.921518 0
M  V30 10 C -1.398108 3.884471 0.315361 0
M  V30 11 N -2.534392 3.166846 0.412642 0
M  V30 12 C -2.567599 2.003037 1.126830 0
M  V30 13 N -3.780474 1.249144 1.220723 0
M  V30 14 C -3.816586 0.326778 0.148063 0
M  V30 15 O -2.779504 0.420152 -0.591054 0
M  V30 16 C -4.918941 -0.624430 -0.084469 0
M  V30 17 C -6.041130 -0.728252 0.710942 0
M  V30 18 C -7.000336 -1.659087 0.386158 0
M  V30 19 C -6.818001 -2.463646 -0.723205 0
M  V30 20 C -5.693563 -2.378770 -1.542887 0
M  V30 21 C -5.655141 -3.305082 -2.687380 0
M  V30 22 N -5.046442 -4.544951 -2.281953 0
M  V30 23 C -4.960097 -5.543642 -3.296628 0
M  V30 24 C -3.626285 -6.224526 -3.220587 0
M  V30 25 C -3.039187 -5.732130 -1.932122 0
M  V30 26 C -3.738939 -4.400949 -1.695729 0
M  V30 27 C -4.754574 -1.435785 -1.187199 0
M  V30 28 C -1.405333 1.562991 1.758241 0
M  V30 29 C -0.234217 2.320798 1.646662 0
M  V30 30 C 0.865095 1.814221 2.298992 0
M  V30 31 C 4.130867 1.030185 2.891459 0
M  V30 32 C 3.772013 -0.241227 2.262804 0
M  V30 33 N 3.950752 -0.245071 0.826826 0
M  V30 34 C 5.318326 0.008289 0.456501 0
M  V30 35 C 5.428953 0.007888 -1.051811 0
M  V30 36 C 4.075200 -0.303904 -1.690853 0
M  V30 37 C 3.658372 -1.667449 -1.151035 0
M  V30 38 C 3.523557 -1.553509 0.333531 0
M  V30 39 H 5.874929 -0.717262 4.061871 0
M  V30 40 H 6.843551 0.574018 4.774831 0
M  V30 41 H 7.012618 0.153781 2.991937 0
M  V30 42 H 3.857803 4.151133 3.784212 0
M  V30 43 H 2.974297 4.303062 1.396048 0
M  V30 44 H 0.995358 5.096574 0.295898 0
M  V30 45 H -1.350504 4.804348 -0.242326 0
M  V30 46 H -4.588593 1.262855 1.899705 0
M  V30 47 H -6.112711 -0.062310 1.564342 0
M  V30 48 H -7.855364 -1.701967 1.035667 0
M  V30 49 H -7.654852 -3.155957 -0.863631 0
M  V30 50 H -6.689670 -3.534648 -3.027249 0
M  V30 51 H -5.119939 -2.839755 -3.547857 0
M  V30 52 H -5.755354 -6.335242 -3.169910 0
M  V30 53 H -5.059538 -5.092839 -4.310299 0
M  V30 54 H -3.711944 -7.343858 -3.243830 0
M  V30 55 H -2.938686 -5.895266 -4.032435 0
M  V30 56 H -3.289252 -6.472408 -1.131548 0
M  V30 57 H -1.943620 -5.596795 -1.998947 0
M  V30 58 H -3.829477 -4.206092 -0.623794 0
M  V30 59 H -3.171087 -3.604571 -2.203369 0
M  V30 60 H -3.895527 -1.371891 -1.820308 0
M  V30 61 H -1.481991 0.626901 2.317673 0
M  V30 62 H 0.897148 0.918690 2.872022 0
M  V30 63 H 4.390523 -1.080353 2.682789 0
M  V30 64 H 2.732959 -0.516505 2.487749 0
M  V30 65 H 5.622634 0.985427 0.828926 0
M  V30 66 H 5.937394 -0.778333 0.935676 0
M  V30 67 H 6.120028 -0.830078 -1.323660 0
M  V30 68 H 5.869112 0.928464 -1.469973 0
M  V30 69 H 4.269434 -0.346290 -2.786087 0
M  V30 70 H 3.329936 0.459177 -1.442310 0
M  V30 71 H 2.680947 -1.978907 -1.605160 0
M  V30 72 H 4.458116 -2.393789 -1.423455 0
M  V30 73 H 4.222802 -2.286983 0.815351 0
M  V30 74 H 2.520272 -1.798277 0.678854 0
M  V30 END ATOM
M  V30 BEGIN BOND
M  V30 1 1 1 2
M  V30 2 1 2 3
M  V30 3 2 3 4
M  V30 4 1 4 5
M  V30 5 1 5 6
M  V30 6 2 6 7
M  V30 7 1 7 8
M  V30 8 2 8 9
M  V30 9 1 9 10
M  V30 10 2 10 11
M  V30 11 1 11 12
M  V30 12 1 12 13
M  V30 13 1 13 14
M  V30 14 2 14 15
M  V30 15 1 14 16
M  V30 16 2 16 17
M  V30 17 1 17 18
M  V30 18 2 18 19
M  V30 19 1 19 20
M  V30 20 1 20 21
M  V30 21 1 21 22
M  V30 22 1 22 23
M  V30 23 1 23 24
M  V30 24 1 24 25
M  V30 25 1 25 26
M  V30 26 2 20 27
M  V30 27 2 12 28
M  V30 28 1 28 29
M  V30 29 2 29 30
M  V30 30 2 5 31
M  V30 31 1 31 32
M  V30 32 1 32 33
M  V30 33 1 33 34
M  V30 34 1 34 35
M  V30 35 1 35 36
M  V30 36 1 36 37
M  V30 37 1 37 38
M  V30 38 1 31 2
M  V30 39 1 38 33
M  V30 40 1 30 6
M  V30 41 1 29 9
M  V30 42 1 27 16
M  V30 43 1 26 22
M  V30 44 1 1 39
M  V30 45 1 1 40
M  V30 46 1 1 41
M  V30 47 1 4 42
M  V30 48 1 7 43
M  V30 49 1 8 44
M  V30 50 1 10 45
M  V30 51 1 13 46
M  V30 52 1 17 47
M  V30 53 1 18 48
M  V30 54 1 19 49
M  V30 55 1 21 50
M  V30 56 1 21 51
M  V30 57 1 23 52
M  V30 58 1 23 53
M  V30 59 1 24 54
M  V30 60 1 24 55
M  V30 61 1 25 56
M  V30 62 1 25 57
M  V30 63 1 26 58
M  V30 64 1 26 59
M  V30 65 1 27 60
M  V30 66 1 28 61
M  V30 67 1 30 62
M  V30 68 1 32 63
M  V30 69 1 32 64
M  V30 70 1 34 65
M  V30 71 1 34 66
M  V30 72 1 35 67
M  V30 73 1 35 68
M  V30 74 1 36 69
M  V30 75 1 36 70
M  V30 76 1 37 71
M  V30 77 1 37 72
M  V30 78 1 38 73
M  V30 79 1 38 74
M  V30 END BOND
M  V30 END CTAB
M  END
>  <Dataset>  (731) 
ChEMBL_Kinases

>  <Ligand_Instance>  (731) 
nan

>  <PDB_ID>  (731) 
nan

>  <Standardized_SMILES>  (731) 
Cn1ncc(-c2ccc3cnc(NC(=O)c4cccc(CN5CCCC5)c4)cc3c2)c1CN1CCCCC1

>  <Name>  (731) 
nan

>  <Pocket>  (731) 
nan

>  <ATP_Site>  (731) 
nan

>  <Peripheral>  (731) 
nan

>  <Num_H_Atoms_ProtBoundConf>  (731) 
nan

>  <Num_Resolved_Atoms>  (731) 
nan

>  <Num_Not_Resolved_Atoms>  (731) 
nan

$$$$
CHEMBL2385596
     RDKit          3D

  0  0  0  0  0  0  0  0  0  0999 V3000
M  V30 BEGIN CTAB
M  V30 COUNTS 56 61 0 0 0
M  V30 BEGIN ATOM
M  V30 1 C 3.738891 1.324392 7.653015 0
M  V30 2 N 3.778274 0.013210 7.067970 0
M  V30 3 C 4.635479 -0.007189 5.904356 0
M  V30 4 C 3.895497 0.196270 4.604250 0
M  V30 5 N 2.849406 -0.776341 4.466558 0
M  V30 6 C 2.122717 -0.896548 3.252254 0
M  V30 7 C 2.465098 -0.045286 2.223124 0
M  V30 8 C 1.823897 -0.074725 1.000829 0
M  V30 9 C 0.795929 -0.975242 0.758984 0
M  V30 10 C 0.041425 -1.103414 -0.488211 0
M  V30 11 C -0.241857 -0.042262 -1.354555 0
M  V30 12 N -0.950055 -0.263354 -2.488859 0
M  V30 13 C -1.396186 -1.501757 -2.808875 0
M  V30 14 C -2.122754 -1.998143 -3.874760 0
M  V30 15 C -2.638348 -1.252997 -5.023212 0
M  V30 16 C -1.971175 -1.033218 -6.221665 0
M  V30 17 C -2.631883 -0.301495 -7.185025 0
M  V30 18 N -3.868961 0.188337 -6.994806 0
M  V30 19 C -4.552152 0.000105 -5.851191 0
M  V30 20 C -5.823856 0.499040 -5.647034 0
M  V30 21 C -6.510958 0.292976 -4.460546 0
M  V30 22 C -5.893328 -0.443186 -3.442056 0
M  V30 23 C -4.631546 -0.913261 -3.701055 0
M  V30 24 C -3.906090 -0.740191 -4.853277 0
M  V30 25 C -2.285314 -3.359142 -3.664818 0
M  V30 26 N -1.665479 -3.673495 -2.490413 0
M  V30 27 N -1.133503 -2.555412 -1.980819 0
M  V30 28 C -0.428598 -2.354408 -0.844987 0
M  V30 29 C 0.456919 -1.835269 1.812848 0
M  V30 30 C 1.103226 -1.799479 3.032552 0
M  V30 31 C 2.649809 -1.567872 5.663190 0
M  V30 32 C 2.483494 -0.564483 6.812746 0
M  V30 33 H 4.416752 1.343002 8.530878 0
M  V30 34 H 2.701809 1.638444 7.956358 0
M  V30 35 H 4.173430 2.037400 6.921490 0
M  V30 36 H 5.379483 0.807116 5.988400 0
M  V30 37 H 5.170532 -0.963085 5.861692 0
M  V30 38 H 3.459817 1.206562 4.516404 0
M  V30 39 H 4.645561 -0.023256 3.797987 0
M  V30 40 H 3.258257 0.678681 2.350536 0
M  V30 41 H 2.062486 0.575297 0.169252 0
M  V30 42 H 0.136026 0.943538 -1.060220 0
M  V30 43 H -0.981572 -1.463790 -6.286632 0
M  V30 44 H -2.098035 -0.142380 -8.108068 0
M  V30 45 H -6.316098 1.076843 -6.439489 0
M  V30 46 H -7.507364 0.684055 -4.301332 0
M  V30 47 H -6.416702 -0.609325 -2.518431 0
M  V30 48 H -4.204123 -1.473908 -2.880997 0
M  V30 49 H -2.816825 -4.019738 -4.338508 0
M  V30 50 H -0.249221 -3.233338 -0.221956 0
M  V30 51 H -0.338894 -2.573048 1.707991 0
M  V30 52 H 0.836717 -2.468889 3.847957 0
M  V30 53 H 1.708067 -2.145046 5.663485 0
M  V30 54 H 3.520047 -2.221780 5.899847 0
M  V30 55 H 2.149349 -1.072717 7.739700 0
M  V30 56 H 1.745990 0.177337 6.449988 0
M  V30 END ATOM
M  V30 BEGIN BOND
M  V30 1 1 1 2
M  V30 2 1 2 3
M  V30 3 1 3 4
M  V30 4 1 4 5
M  V30 5 1 5 6
M  V30 6 2 6 7
M  V30 7 1 7 8
M  V30 8 2 8 9
M  V30 9 1 9 10
M  V30 10 1 10 11
M  V30 11 2 11 12
M  V30 12 1 12 13
M  V30 13 2 13 14
M  V30 14 1 14 15
M  V30 15 2 15 16
M  V30 16 1 16 17
M  V30 17 2 17 18
M  V30 18 1 18 19
M  V30 19 2 19 20
M  V30 20 1 20 21
M  V30 21 2 21 22
M  V30 22 1 22 23
M  V30 23 2 23 24
M  V30 24 1 14 25
M  V30 25 2 25 26
M  V30 26 1 26 27
M  V30 27 1 27 28
M  V30 28 1 9 29
M  V30 29 2 29 30
M  V30 30 1 5 31
M  V30 31 1 31 32
M  V30 32 1 32 2
M  V30 33 1 30 6
M  V30 34 2 28 10
M  V30 35 1 27 13
M  V30 36 1 24 15
M  V30 37 1 24 19
M  V30 38 1 1 33
M  V30 39 1 1 34
M  V30 40 1 1 35
M  V30 41 1 3 36
M  V30 42 1 3 37
M  V30 43 1 4 38
M  V30 44 1 4 39
M  V30 45 1 7 40
M  V30 46 1 8 41
M  V30 47 1 11 42
M  V30 48 1 16 43
M  V30 49 1 17 44
M  V30 50 1 20 45
M  V30 51 1 21 46
M  V30 52 1 22 47
M  V30 53 1 23 48
M  V30 54 1 25 49
M  V30 55 1 28 50
M  V30 56 1 29 51
M  V30 57 1 30 52
M  V30 58 1 31 53
M  V30 59 1 31 54
M  V30 60 1 32 55
M  V30 61 1 32 56
M  V30 END BOND
M  V30 END CTAB
M  END
>  <Dataset>  (732) 
ChEMBL_Kinases

>  <Ligand_Instance>  (732) 
nan

>  <PDB_ID>  (732) 
nan

>  <Standardized_SMILES>  (732) 
CN1CCN(c2ccc(-c3cnc4c(-c5ccnc6ccccc56)cnn4c3)cc2)CC1

>  <Name>  (732) 
nan

>  <Pocket>  (732) 
nan

>  <ATP_Site>  (732) 
nan

>  <Peripheral>  (732) 
nan

>  <Num_H_Atoms_ProtBoundConf>  (732) 
nan

>  <Num_Resolved_Atoms>  (732) 
nan

>  <Num_Not_Resolved_Atoms>  (732) 
nan

$$$$
CHEMBL2385582
     RDKit          3D

  0  0  0  0  0  0  0  0  0  0999 V3000
M  V30 BEGIN CTAB
M  V30 COUNTS 52 57 0 0 0
M  V30 BEGIN ATOM
M  V30 1 C -0.683703 -8.181183 -0.778037 0
M  V30 2 C -0.737109 -7.002683 -1.501325 0
M  V30 3 C 0.224510 -6.037902 -1.254565 0
M  V30 4 C 1.187321 -6.291357 -0.305178 0
M  V30 5 C 2.101470 -5.287825 -0.120480 0
M  V30 6 C 2.177233 -3.998111 -0.799792 0
M  V30 7 C 2.849068 -3.643482 -1.963871 0
M  V30 8 N 2.633830 -2.324858 -2.218040 0
M  V30 9 N 1.853822 -1.821014 -1.267427 0
M  V30 10 C 1.337090 -0.579552 -1.034550 0
M  V30 11 C 0.534438 -0.373026 0.080677 0
M  V30 12 C -0.053078 0.929118 0.395581 0
M  V30 13 C 0.533315 2.143298 0.101504 0
M  V30 14 C -0.074342 3.342330 0.426270 0
M  V30 15 C -1.294959 3.383400 1.059389 0
M  V30 16 N -1.916373 4.614676 1.392407 0
M  V30 17 C -1.356442 5.925648 1.123676 0
M  V30 18 C -1.049764 6.519376 2.497098 0
M  V30 19 O -1.613520 5.821961 3.536559 0
M  V30 20 C -2.923272 5.449213 3.374225 0
M  V30 21 C -3.201491 4.749474 2.051076 0
M  V30 22 C -1.885309 2.175965 1.355637 0
M  V30 23 C -1.295642 0.965711 1.040093 0
M  V30 24 C 0.252617 -1.407409 0.956631 0
M  V30 25 N 0.791985 -2.613246 0.674192 0
M  V30 26 C 1.566213 -2.827971 -0.394693 0
M  V30 27 C 3.120201 -5.446679 0.820915 0
M  V30 28 C 3.166591 -6.634353 1.543628 0
M  V30 29 N 2.257218 -7.603868 1.343329 0
M  V30 30 C 1.270718 -7.456363 0.435368 0
M  V30 31 C 0.306330 -8.403978 0.176414 0
M  V30 32 H -1.381787 -9.022508 -0.875942 0
M  V30 33 H -1.539840 -6.905870 -2.227083 0
M  V30 34 H 0.187028 -5.115661 -1.817112 0
M  V30 35 H 3.443400 -4.323903 -2.558420 0
M  V30 36 H 1.546078 0.239255 -1.706835 0
M  V30 37 H 1.495206 2.102831 -0.397576 0
M  V30 38 H 0.477367 4.215183 0.147997 0
M  V30 39 H -0.500906 5.945412 0.460571 0
M  V30 40 H -2.130972 6.593475 0.671921 0
M  V30 41 H -1.261954 7.608655 2.500766 0
M  V30 42 H 0.060866 6.441330 2.620610 0
M  V30 43 H -3.617850 6.303482 3.559407 0
M  V30 44 H -3.150991 4.698551 4.173402 0
M  V30 45 H -3.770593 3.835421 2.165912 0
M  V30 46 H -3.832739 5.483206 1.465639 0
M  V30 47 H -2.829356 2.085857 1.844730 0
M  V30 48 H -1.758251 0.016679 1.272065 0
M  V30 49 H -0.357428 -1.349054 1.847490 0
M  V30 50 H 3.904593 -4.712156 1.052240 0
M  V30 51 H 3.949581 -6.786315 2.284418 0
M  V30 52 H 0.353922 -9.335725 0.752777 0
M  V30 END ATOM
M  V30 BEGIN BOND
M  V30 1 2 1 2
M  V30 2 1 2 3
M  V30 3 2 3 4
M  V30 4 1 4 5
M  V30 5 1 5 6
M  V30 6 1 6 7
M  V30 7 2 7 8
M  V30 8 1 8 9
M  V30 9 1 9 10
M  V30 10 2 10 11
M  V30 11 1 11 12
M  V30 12 2 12 13
M  V30 13 1 13 14
M  V30 14 2 14 15
M  V30 15 1 15 16
M  V30 16 1 16 17
M  V30 17 1 17 18
M  V30 18 1 18 19
M  V30 19 1 19 20
M  V30 20 1 20 21
M  V30 21 1 15 22
M  V30 22 2 22 23
M  V30 23 1 11 24
M  V30 24 2 24 25
M  V30 25 1 25 26
M  V30 26 2 5 27
M  V30 27 1 27 28
M  V30 28 2 28 29
M  V30 29 1 29 30
M  V30 30 2 30 31
M  V30 31 1 31 1
M  V30 32 1 30 4
M  V30 33 2 26 6
M  V30 34 1 26 9
M  V30 35 1 23 12
M  V30 36 1 21 16
M  V30 37 1 1 32
M  V30 38 1 2 33
M  V30 39 1 3 34
M  V30 40 1 7 35
M  V30 41 1 10 36
M  V30 42 1 13 37
M  V30 43 1 14 38
M  V30 44 1 17 39
M  V30 45 1 17 40
M  V30 46 1 18 41
M  V30 47 1 18 42
M  V30 48 1 20 43
M  V30 49 1 20 44
M  V30 50 1 21 45
M  V30 51 1 21 46
M  V30 52 1 22 47
M  V30 53 1 23 48
M  V30 54 1 24 49
M  V30 55 1 27 50
M  V30 56 1 28 51
M  V30 57 1 31 52
M  V30 END BOND
M  V30 END CTAB
M  END
>  <Dataset>  (733) 
ChEMBL_Kinases

>  <Ligand_Instance>  (733) 
nan

>  <PDB_ID>  (733) 
nan

>  <Standardized_SMILES>  (733) 
c1ccc2c(-c3cnn4cc(-c5ccc(N6CCOCC6)cc5)cnc34)ccnc2c1

>  <Name>  (733) 
nan

>  <Pocket>  (733) 
nan

>  <ATP_Site>  (733) 
nan

>  <Peripheral>  (733) 
nan

>  <Num_H_Atoms_ProtBoundConf>  (733) 
nan

>  <Num_Resolved_Atoms>  (733) 
nan

>  <Num_Not_Resolved_Atoms>  (733) 
nan

$$$$
CHEMBL2385579
     RDKit          3D

  0  0  0  0  0  0  0  0  0  0999 V3000
M  V30 BEGIN CTAB
M  V30 COUNTS 44 48 0 0 0
M  V30 BEGIN ATOM
M  V30 1 C 1.148048 -0.304749 -0.380661 0
M  V30 2 C 2.534340 -0.226207 -0.571685 0
M  V30 3 C 3.306248 -0.167552 0.569830 0
M  V30 4 N 4.706758 -0.088903 0.343830 0
M  V30 5 C 5.244125 -0.079347 -0.980258 0
M  V30 6 C 6.731929 -0.209483 -1.040908 0
M  V30 7 O 7.407411 0.674029 -0.217304 0
M  V30 8 C 6.676785 1.131157 0.853942 0
M  V30 9 C 5.784552 -0.009480 1.301099 0
M  V30 10 C 2.803703 -0.181463 1.855087 0
M  V30 11 C 1.436000 -0.259119 2.025971 0
M  V30 12 C 0.626991 -0.319684 0.908109 0
M  V30 13 C -0.815274 -0.401424 1.120174 0
M  V30 14 C -1.548654 -1.106853 0.184704 0
M  V30 15 N -2.898474 -1.229593 0.310316 0
M  V30 16 C -3.544377 -0.663069 1.352852 0
M  V30 17 C -4.888909 -0.662563 1.671092 0
M  V30 18 C -6.002759 -1.285224 0.956298 0
M  V30 19 C -7.198437 -0.627993 0.720534 0
M  V30 20 N -8.022265 -1.468240 0.039900 0
M  V30 21 N -7.387810 -2.621799 -0.157551 0
M  V30 22 C -6.146667 -2.542550 0.392370 0
M  V30 23 C -4.969912 0.068814 2.839447 0
M  V30 24 N -3.719209 0.460114 3.159080 0
M  V30 25 N -2.836893 0.028161 2.272037 0
M  V30 26 C -1.495522 0.169664 2.177973 0
M  V30 27 H 0.486365 -0.353552 -1.246844 0
M  V30 28 H 2.925422 -0.215350 -1.576387 0
M  V30 29 H 4.863211 0.812376 -1.512706 0
M  V30 30 H 4.821915 -0.960574 -1.513126 0
M  V30 31 H 7.056467 -0.004865 -2.085306 0
M  V30 32 H 7.053853 -1.246751 -0.816870 0
M  V30 33 H 5.991134 1.970913 0.578726 0
M  V30 34 H 7.352614 1.461249 1.661718 0
M  V30 35 H 5.438243 0.117588 2.343593 0
M  V30 36 H 6.386403 -0.946899 1.174994 0
M  V30 37 H 3.439290 -0.134141 2.718779 0
M  V30 38 H 1.023981 -0.270974 3.033661 0
M  V30 39 H -1.074123 -1.581753 -0.673515 0
M  V30 40 H -7.555739 0.373427 0.972476 0
M  V30 41 H -7.621746 -3.524141 -0.616886 0
M  V30 42 H -5.302523 -3.216254 0.474860 0
M  V30 43 H -5.906213 0.253083 3.350118 0
M  V30 44 H -0.912395 0.719158 2.904028 0
M  V30 END ATOM
M  V30 BEGIN BOND
M  V30 1 2 1 2
M  V30 2 1 2 3
M  V30 3 1 3 4
M  V30 4 1 4 5
M  V30 5 1 5 6
M  V30 6 1 6 7
M  V30 7 1 7 8
M  V30 8 1 8 9
M  V30 9 2 3 10
M  V30 10 1 10 11
M  V30 11 2 11 12
M  V30 12 1 12 13
M  V30 13 1 13 14
M  V30 14 2 14 15
M  V30 15 1 15 16
M  V30 16 2 16 17
M  V30 17 1 17 18
M  V30 18 1 18 19
M  V30 19 2 19 20
M  V30 20 1 20 21
M  V30 21 1 21 22
M  V30 22 1 17 23
M  V30 23 2 23 24
M  V30 24 1 24 25
M  V30 25 1 25 26
M  V30 26 1 12 1
M  V30 27 2 26 13
M  V30 28 1 9 4
M  V30 29 1 25 16
M  V30 30 2 22 18
M  V30 31 1 1 27
M  V30 32 1 2 28
M  V30 33 1 5 29
M  V30 34 1 5 30
M  V30 35 1 6 31
M  V30 36 1 6 32
M  V30 37 1 8 33
M  V30 38 1 8 34
M  V30 39 1 9 35
M  V30 40 1 9 36
M  V30 41 1 10 37
M  V30 42 1 11 38
M  V30 43 1 14 39
M  V30 44 1 19 40
M  V30 45 1 21 41
M  V30 46 1 22 42
M  V30 47 1 23 43
M  V30 48 1 26 44
M  V30 END BOND
M  V30 END CTAB
M  END
>  <Dataset>  (734) 
ChEMBL_Kinases

>  <Ligand_Instance>  (734) 
nan

>  <PDB_ID>  (734) 
nan

>  <Standardized_SMILES>  (734) 
c1cc(N2CCOCC2)ccc1-c1cnc2c(-c3cn[nH]c3)cnn2c1

>  <Name>  (734) 
nan

>  <Pocket>  (734) 
nan

>  <ATP_Site>  (734) 
nan

>  <Peripheral>  (734) 
nan

>  <Num_H_Atoms_ProtBoundConf>  (734) 
nan

>  <Num_Resolved_Atoms>  (734) 
nan

>  <Num_Not_Resolved_Atoms>  (734) 
nan

$$$$
CHEMBL4462592
     RDKit          3D

  0  0  0  0  0  0  0  0  0  0999 V3000
M  V30 BEGIN CTAB
M  V30 COUNTS 26 29 0 0 0
M  V30 BEGIN ATOM
M  V30 1 C -0.199190 -1.613334 4.283026 0
M  V30 2 C -1.435979 -1.850436 3.718005 0
M  V30 3 C -1.744226 -1.553891 2.389413 0
M  V30 4 C -0.726991 -0.995783 1.641449 0
M  V30 5 C 0.527803 -0.730397 2.131756 0
M  V30 6 C 0.768717 -1.046140 3.450600 0
M  V30 7 C 1.636601 -0.132772 1.352215 0
M  V30 8 C 1.240030 0.154999 -0.043941 0
M  V30 9 C 2.182806 0.715211 -0.880581 0
M  V30 10 C 1.764467 0.966683 -2.179390 0
M  V30 11 C 0.482808 0.682737 -2.637195 0
M  V30 12 C -0.450028 0.122281 -1.788832 0
M  V30 13 N -1.729191 -0.293204 -1.804576 0
M  V30 14 N -2.081603 -0.767974 -0.605574 0
M  V30 15 C -1.047935 -0.685104 0.251705 0
M  V30 16 C -0.031674 -0.126882 -0.497717 0
M  V30 17 H -0.000734 -1.853294 5.302165 0
M  V30 18 H -2.251886 -2.293174 4.301552 0
M  V30 19 H -2.721225 -1.748042 1.965957 0
M  V30 20 H 1.749342 -0.854147 3.885241 0
M  V30 21 H 2.567508 -0.711683 1.425902 0
M  V30 22 H 1.814959 0.877903 1.823775 0
M  V30 23 H 3.178273 0.945588 -0.557860 0
M  V30 24 H 2.446692 1.406035 -2.898252 0
M  V30 25 H 0.156154 0.876779 -3.643628 0
M  V30 26 H -2.319539 -0.228887 -2.667071 0
M  V30 END ATOM
M  V30 BEGIN BOND
M  V30 1 2 1 2
M  V30 2 1 2 3
M  V30 3 2 3 4
M  V30 4 1 4 5
M  V30 5 2 5 6
M  V30 6 1 5 7
M  V30 7 1 7 8
M  V30 8 1 8 9
M  V30 9 2 9 10
M  V30 10 1 10 11
M  V30 11 2 11 12
M  V30 12 1 12 13
M  V30 13 1 13 14
M  V30 14 2 14 15
M  V30 15 1 15 16
M  V30 16 1 6 1
M  V30 17 2 16 8
M  V30 18 1 15 4
M  V30 19 1 16 12
M  V30 20 1 1 17
M  V30 21 1 2 18
M  V30 22 1 3 19
M  V30 23 1 6 20
M  V30 24 1 7 21
M  V30 25 1 7 22
M  V30 26 1 9 23
M  V30 27 1 10 24
M  V30 28 1 11 25
M  V30 29 1 13 26
M  V30 END BOND
M  V30 END CTAB
M  END
>  <Dataset>  (735) 
ChEMBL_Kinases

>  <Ligand_Instance>  (735) 
nan

>  <PDB_ID>  (735) 
nan

>  <Standardized_SMILES>  (735) 
c1ccc2c(c1)Cc1cccc3[nH]nc-2c13

>  <Name>  (735) 
nan

>  <Pocket>  (735) 
nan

>  <ATP_Site>  (735) 
nan

>  <Peripheral>  (735) 
nan

>  <Num_H_Atoms_ProtBoundConf>  (735) 
nan

>  <Num_Resolved_Atoms>  (735) 
nan

>  <Num_Not_Resolved_Atoms>  (735) 
nan

$$$$
CHEMBL203059
     RDKit          3D

  0  0  0  0  0  0  0  0  0  0999 V3000
M  V30 BEGIN CTAB
M  V30 COUNTS 50 53 0 0 0
M  V30 BEGIN ATOM
M  V30 1 O 1.216371 -4.545295 0.123813 0
M  V30 2 C 0.362827 -4.429751 1.042753 0
M  V30 3 N 0.702133 -3.357261 1.893498 0
M  V30 4 C 1.837876 -2.505010 1.764642 0
M  V30 5 C 1.758271 -1.346926 1.017512 0
M  V30 6 C 2.754470 -0.425741 0.796961 0
M  V30 7 C 2.493140 0.751981 -0.026969 0
M  V30 8 C 3.474128 1.344473 -0.788267 0
M  V30 9 C 3.153504 2.454656 -1.542224 0
M  V30 10 N 1.912124 2.973576 -1.554616 0
M  V30 11 C 0.904869 2.427788 -0.821083 0
M  V30 12 N -0.405312 2.983287 -0.840500 0
M  V30 13 C -0.902165 3.989693 0.033459 0
M  V30 14 C -0.045795 4.478039 0.992591 0
M  V30 15 C -0.572015 5.450257 1.814185 0
M  V30 16 C -1.880316 5.882844 1.656027 0
M  V30 17 C -2.718127 5.360611 0.668376 0
M  V30 18 C -2.208973 4.371942 -0.179805 0
M  V30 19 C 1.234936 1.319379 -0.071403 0
M  V30 20 C 3.969615 -0.706730 1.400089 0
M  V30 21 C 4.072901 -1.873149 2.160737 0
M  V30 22 N 3.054932 -2.737807 2.338517 0
M  V30 23 C -0.897053 -5.120854 1.462154 0
M  V30 24 C -2.070911 -4.193154 1.468446 0
M  V30 25 C -3.254547 -4.828416 0.797978 0
M  V30 26 O -3.087803 -5.074757 -0.540280 0
M  V30 27 C -1.800363 -5.431234 -0.854242 0
M  V30 28 C -1.156574 -6.120439 0.325555 0
M  V30 29 H 0.156711 -3.037403 2.748249 0
M  V30 30 H 0.797255 -1.144395 0.552816 0
M  V30 31 H 4.479575 0.916624 -0.772474 0
M  V30 32 H 3.969678 2.891717 -2.132632 0
M  V30 33 H -0.949357 2.530083 -1.605983 0
M  V30 34 H 0.959803 4.139167 1.107102 0
M  V30 35 H -0.009476 5.918205 2.607353 0
M  V30 36 H -2.387441 6.643135 2.251920 0
M  V30 37 H -3.739725 5.674328 0.518150 0
M  V30 38 H -2.812730 3.934158 -0.959602 0
M  V30 39 H 0.413209 0.889908 0.514802 0
M  V30 40 H 4.776834 -0.015738 1.255893 0
M  V30 41 H 5.020538 -2.096756 2.633902 0
M  V30 42 H -0.820227 -5.617635 2.437659 0
M  V30 43 H -2.403876 -3.951122 2.519932 0
M  V30 44 H -1.842991 -3.240110 0.947992 0
M  V30 45 H -3.535062 -5.787337 1.280953 0
M  V30 46 H -4.115827 -4.109827 0.927120 0
M  V30 47 H -1.174821 -4.596771 -1.202570 0
M  V30 48 H -1.806455 -6.180667 -1.676995 0
M  V30 49 H -1.767014 -6.926037 0.732518 0
M  V30 50 H -0.209224 -6.566965 -0.054741 0
M  V30 END ATOM
M  V30 BEGIN BOND
M  V30 1 2 1 2
M  V30 2 1 2 3
M  V30 3 1 3 4
M  V30 4 2 4 5
M  V30 5 1 5 6
M  V30 6 1 6 7
M  V30 7 2 7 8
M  V30 8 1 8 9
M  V30 9 2 9 10
M  V30 10 1 10 11
M  V30 11 1 11 12
M  V30 12 1 12 13
M  V30 13 2 13 14
M  V30 14 1 14 15
M  V30 15 2 15 16
M  V30 16 1 16 17
M  V30 17 2 17 18
M  V30 18 2 11 19
M  V30 19 2 6 20
M  V30 20 1 20 21
M  V30 21 2 21 22
M  V30 22 1 2 23
M  V30 23 1 23 24
M  V30 24 1 24 25
M  V30 25 1 25 26
M  V30 26 1 26 27
M  V30 27 1 27 28
M  V30 28 1 22 4
M  V30 29 1 28 23
M  V30 30 1 19 7
M  V30 31 1 18 13
M  V30 32 1 3 29
M  V30 33 1 5 30
M  V30 34 1 8 31
M  V30 35 1 9 32
M  V30 36 1 12 33
M  V30 37 1 14 34
M  V30 38 1 15 35
M  V30 39 1 16 36
M  V30 40 1 17 37
M  V30 41 1 18 38
M  V30 42 1 19 39
M  V30 43 1 20 40
M  V30 44 1 21 41
M  V30 45 1 23 42
M  V30 46 1 24 43
M  V30 47 1 24 44
M  V30 48 1 25 45
M  V30 49 1 25 46
M  V30 50 1 27 47
M  V30 51 1 27 48
M  V30 52 1 28 49
M  V30 53 1 28 50
M  V30 END BOND
M  V30 END CTAB
M  END
>  <Dataset>  (736) 
ChEMBL_Kinases

>  <Ligand_Instance>  (736) 
nan

>  <PDB_ID>  (736) 
nan

>  <Standardized_SMILES>  (736) 
O=C(Nc1cc(-c2ccnc(Nc3ccccc3)c2)ccn1)C1CCOCC1

>  <Name>  (736) 
nan

>  <Pocket>  (736) 
nan

>  <ATP_Site>  (736) 
nan

>  <Peripheral>  (736) 
nan

>  <Num_H_Atoms_ProtBoundConf>  (736) 
nan

>  <Num_Resolved_Atoms>  (736) 
nan

>  <Num_Not_Resolved_Atoms>  (736) 
nan

$$$$
CHEMBL4740181
     RDKit          3D

  0  0  0  0  0  0  0  0  0  0999 V3000
M  V30 BEGIN CTAB
M  V30 COUNTS 73 78 0 0 0
M  V30 BEGIN ATOM
M  V30 1 C 0.668884 -5.431960 -0.033233 0
M  V30 2 C 0.691153 -5.655680 -1.528387 0
M  V30 3 C 2.052705 -6.140938 -1.983276 0
M  V30 4 C 0.258976 -4.418044 -2.274528 0
M  V30 5 C 1.179230 -3.266002 -1.961618 0
M  V30 6 O 2.121390 -3.538504 -1.141084 0
M  V30 7 N 1.059311 -1.959606 -2.503751 0
M  V30 8 C 2.139764 -1.189807 -1.933005 0
M  V30 9 C 3.293366 -1.254907 -2.723387 0
M  V30 10 N 4.361320 -0.570449 -2.271826 0
M  V30 11 C 4.305117 0.132045 -1.122263 0
M  V30 12 C 3.176609 0.202789 -0.338015 0
M  V30 13 C 3.128186 0.959478 0.907633 0
M  V30 14 C 4.211128 1.653425 1.399020 0
M  V30 15 C 4.221935 2.378020 2.572465 0
M  V30 16 C 3.047104 2.419657 3.332753 0
M  V30 17 N 2.761900 3.024137 4.490886 0
M  V30 18 N 1.517680 2.719820 4.731603 0
M  V30 19 C 0.992680 1.942788 3.772011 0
M  V30 20 C -0.374221 1.436964 3.759975 0
M  V30 21 C -1.021982 0.655272 2.847133 0
M  V30 22 C -2.299710 0.483219 3.324890 0
M  V30 23 C -3.383998 -0.205967 2.831978 0
M  V30 24 C -3.363642 -0.946218 1.578238 0
M  V30 25 C -3.832450 -2.232230 1.389184 0
M  V30 26 C -3.764363 -2.809932 0.125044 0
M  V30 27 F -4.235382 -4.073040 -0.018723 0
M  V30 28 C -3.239354 -2.121966 -0.934354 0
M  V30 29 C -2.766003 -0.839546 -0.771017 0
M  V30 30 C -2.194213 -0.093194 -1.948123 0
M  V30 31 N -3.237688 0.656469 -2.628327 0
M  V30 32 S -2.579667 1.514676 -3.980051 0
M  V30 33 C -1.366648 2.682681 -3.480628 0
M  V30 34 O -1.992565 0.506303 -4.923387 0
M  V30 35 O -3.709537 2.219772 -4.666053 0
M  V30 36 C -2.828927 -0.254270 0.484736 0
M  V30 37 N -4.573868 -0.243314 3.489535 0
M  V30 38 C -4.727570 0.403435 4.659433 0
M  V30 39 C -3.664028 1.109052 5.190472 0
M  V30 40 C -2.449746 1.160188 4.541457 0
M  V30 41 N -1.249836 1.719100 4.753094 0
M  V30 42 C 1.970681 1.718167 2.824677 0
M  V30 43 N 2.019073 1.027491 1.671574 0
M  V30 44 C 2.055155 -0.480864 -0.756598 0
M  V30 45 H 0.089005 -6.216912 0.517194 0
M  V30 46 H 0.093176 -4.479634 0.156714 0
M  V30 47 H 1.681433 -5.378842 0.411452 0
M  V30 48 H -0.046097 -6.451544 -1.754234 0
M  V30 49 H 2.122736 -7.241863 -2.023417 0
M  V30 50 H 2.348447 -5.738441 -2.958530 0
M  V30 51 H 2.799565 -5.783283 -1.219770 0
M  V30 52 H 0.189477 -4.562068 -3.350559 0
M  V30 53 H -0.721177 -4.118958 -1.852640 0
M  V30 54 H 0.238585 -1.919641 -3.154124 0
M  V30 55 H 3.376912 -1.799027 -3.637644 0
M  V30 56 H 5.211371 0.643540 -0.850078 0
M  V30 57 H 5.140993 1.675500 0.886662 0
M  V30 58 H 5.084537 2.916298 2.939953 0
M  V30 59 H 3.439261 3.595802 5.023745 0
M  V30 60 H -0.611938 0.259479 1.949025 0
M  V30 61 H -4.235432 -2.721208 2.269313 0
M  V30 62 H -3.186751 -2.569711 -1.913695 0
M  V30 63 H -1.319510 0.523841 -1.661834 0
M  V30 64 H -1.840443 -0.836819 -2.692504 0
M  V30 65 H -3.792512 1.262708 -1.996476 0
M  V30 66 H -0.332265 2.359338 -3.731066 0
M  V30 67 H -1.538246 3.629409 -3.998671 0
M  V30 68 H -1.482385 2.867355 -2.383602 0
M  V30 69 H -2.433950 0.761764 0.511438 0
M  V30 70 H -5.666893 0.392085 5.208421 0
M  V30 71 H -3.758803 1.636525 6.124042 0
M  V30 72 H -1.111418 2.288196 5.617609 0
M  V30 73 H 1.125107 -0.498025 -0.229753 0
M  V30 END ATOM
M  V30 BEGIN BOND
M  V30 1 1 1 2
M  V30 2 1 2 3
M  V30 3 1 2 4
M  V30 4 1 4 5
M  V30 5 2 5 6
M  V30 6 1 5 7
M  V30 7 1 7 8
M  V30 8 2 8 9
M  V30 9 1 9 10
M  V30 10 2 10 11
M  V30 11 1 11 12
M  V30 12 1 12 13
M  V30 13 2 13 14
M  V30 14 1 14 15
M  V30 15 2 15 16
M  V30 16 1 16 17
M  V30 17 1 17 18
M  V30 18 2 18 19
M  V30 19 1 19 20
M  V30 20 2 20 21
M  V30 21 1 21 22
M  V30 22 2 22 23
M  V30 23 1 23 24
M  V30 24 2 24 25
M  V30 25 1 25 26
M  V30 26 1 26 27
M  V30 27 2 26 28
M  V30 28 1 28 29
M  V30 29 1 29 30
M  V30 30 1 30 31
M  V30 31 1 31 32
M  V30 32 1 32 33
M  V30 33 2 32 34
M  V30 34 2 32 35
M  V30 35 2 29 36
M  V30 36 1 23 37
M  V30 37 2 37 38
M  V30 38 1 38 39
M  V30 39 2 39 40
M  V30 40 1 40 41
M  V30 41 1 19 42
M  V30 42 2 42 43
M  V30 43 2 12 44
M  V30 44 1 44 8
M  V30 45 1 43 13
M  V30 46 1 42 16
M  V30 47 1 41 20
M  V30 48 1 40 22
M  V30 49 1 36 24
M  V30 50 1 1 45
M  V30 51 1 1 46
M  V30 52 1 1 47
M  V30 53 1 2 48
M  V30 54 1 3 49
M  V30 55 1 3 50
M  V30 56 1 3 51
M  V30 57 1 4 52
M  V30 58 1 4 53
M  V30 59 1 7 54
M  V30 60 1 9 55
M  V30 61 1 11 56
M  V30 62 1 14 57
M  V30 63 1 15 58
M  V30 64 1 17 59
M  V30 65 1 21 60
M  V30 66 1 25 61
M  V30 67 1 28 62
M  V30 68 1 30 63
M  V30 69 1 30 64
M  V30 70 1 31 65
M  V30 71 1 33 66
M  V30 72 1 33 67
M  V30 73 1 33 68
M  V30 74 1 36 69
M  V30 75 1 38 70
M  V30 76 1 39 71
M  V30 77 1 41 72
M  V30 78 1 44 73
M  V30 END BOND
M  V30 END CTAB
M  END
>  <Dataset>  (737) 
ChEMBL_Kinases

>  <Ligand_Instance>  (737) 
nan

>  <PDB_ID>  (737) 
nan

>  <Standardized_SMILES>  (737) 
CC(C)CC(=O)Nc1cncc(-c2ccc3[nH]nc(-c4cc5c(-c6cc(F)cc(CNS(C)(=O)=O)c6)nccc5[nH]4)c3n2)c1

>  <Name>  (737) 
nan

>  <Pocket>  (737) 
nan

>  <ATP_Site>  (737) 
nan

>  <Peripheral>  (737) 
nan

>  <Num_H_Atoms_ProtBoundConf>  (737) 
nan

>  <Num_Resolved_Atoms>  (737) 
nan

>  <Num_Not_Resolved_Atoms>  (737) 
nan

$$$$
CHEMBL2381340
     RDKit          3D

  0  0  0  0  0  0  0  0  0  0999 V3000
M  V30 BEGIN CTAB
M  V30 COUNTS 93 99 0 0 0
M  V30 BEGIN ATOM
M  V30 1 C 0.086118 -7.208189 -0.114673 0
M  V30 2 C 1.047896 -6.076740 0.256008 0
M  V30 3 O 0.285465 -4.950588 0.588474 0
M  V30 4 C 0.843738 -3.752029 0.975575 0
M  V30 5 C 2.181132 -3.468954 1.102059 0
M  V30 6 C 2.597581 -2.227250 1.497237 0
M  V30 7 C 3.980469 -1.834456 1.666515 0
M  V30 8 O 4.918243 -1.587039 2.455279 0
M  V30 9 N 4.671276 -1.601906 0.429611 0
M  V30 10 C 6.051430 -1.189761 0.390732 0
M  V30 11 C 6.270830 -0.083003 -0.581380 0
M  V30 12 C 5.071491 0.627333 -1.088124 0
M  V30 13 N 4.682433 1.776607 -0.355494 0
M  V30 14 C 3.509060 2.433519 -0.795730 0
M  V30 15 C 2.556462 2.772057 0.353760 0
M  V30 16 N 3.230084 3.664711 1.232472 0
M  V30 17 C 2.532386 3.934023 2.474156 0
M  V30 18 C 4.555886 3.239117 1.516836 0
M  V30 19 C 4.864263 1.812046 1.038439 0
M  V30 20 C 3.950371 -0.308441 -1.409838 0
M  V30 21 C 4.200607 -1.720452 -0.941765 0
M  V30 22 C 1.677562 -1.239095 1.774681 0
M  V30 23 C 0.318551 -1.442153 1.672032 0
M  V30 24 C -0.031545 -2.725911 1.266732 0
M  V30 25 N -1.436541 -2.984472 1.169007 0
M  V30 26 C -2.624777 -2.222110 1.303561 0
M  V30 27 N -3.340497 -1.894066 2.393965 0
M  V30 28 C -4.461029 -1.158960 2.347186 0
M  V30 29 C -4.903696 -0.716158 1.121799 0
M  V30 30 C -4.154861 -1.060118 -0.014748 0
M  V30 31 N -3.006130 -1.816536 0.057782 0
M  V30 32 N -4.419896 -0.730322 -1.412331 0
M  V30 33 C -3.254170 -0.540080 -2.279014 0
M  V30 34 C -2.287828 0.250262 -1.393979 0
M  V30 35 C -2.151086 1.640924 -1.920925 0
M  V30 36 C -2.387186 1.501619 -3.367666 0
M  V30 37 C -3.454716 0.417350 -3.410033 0
M  V30 38 C -5.741874 -0.626115 -1.957501 0
M  V30 39 C -5.697846 -1.121826 -3.271660 0
M  V30 40 C -6.890894 -1.083825 -3.953729 0
M  V30 41 C -8.031892 -0.578894 -3.333141 0
M  V30 42 C -8.017944 -0.101176 -2.024232 0
M  V30 43 C -6.843424 -0.120327 -1.303811 0
M  V30 44 C -6.976307 0.383720 0.055185 0
M  V30 45 O -7.956688 1.133632 0.262386 0
M  V30 46 N -6.087103 0.082562 1.122007 0
M  V30 47 C -6.372496 0.646492 2.406059 0
M  V30 48 H 0.623977 -7.951512 -0.707913 0
M  V30 49 H -0.774301 -6.756241 -0.675599 0
M  V30 50 H -0.348935 -7.655628 0.812082 0
M  V30 51 H 1.677987 -5.870653 -0.655107 0
M  V30 52 H 1.742531 -6.421977 1.040914 0
M  V30 53 H 2.889001 -4.246338 0.884381 0
M  V30 54 H 6.651441 -2.076158 0.079992 0
M  V30 55 H 6.395153 -0.959483 1.419646 0
M  V30 56 H 6.825285 -0.517736 -1.458206 0
M  V30 57 H 7.038874 0.631682 -0.155347 0
M  V30 58 H 5.384886 1.048154 -2.109465 0
M  V30 59 H 2.939180 1.929145 -1.606338 0
M  V30 60 H 3.795712 3.422801 -1.218106 0
M  V30 61 H 1.722476 3.365520 -0.124020 0
M  V30 62 H 2.134170 1.878100 0.813865 0
M  V30 63 H 2.426658 3.042918 3.108830 0
M  V30 64 H 1.591689 4.459414 2.299154 0
M  V30 65 H 3.199640 4.648034 3.041013 0
M  V30 66 H 5.333590 3.905466 1.056750 0
M  V30 67 H 4.804545 3.255934 2.607881 0
M  V30 68 H 4.154789 1.155012 1.600723 0
M  V30 69 H 5.926603 1.675324 1.362799 0
M  V30 70 H 3.005433 0.009366 -0.915114 0
M  V30 71 H 3.755069 -0.405611 -2.520422 0
M  V30 72 H 3.251968 -2.304418 -0.989868 0
M  V30 73 H 4.921050 -2.278104 -1.567146 0
M  V30 74 H 1.973450 -0.226532 2.092904 0
M  V30 75 H -0.417096 -0.682356 1.884513 0
M  V30 76 H -1.798150 -3.961989 0.947747 0
M  V30 77 H -5.045238 -0.890462 3.186718 0
M  V30 78 H -2.749971 -1.472862 -2.520395 0
M  V30 79 H -1.307660 -0.227333 -1.346424 0
M  V30 80 H -2.660660 0.426635 -0.364246 0
M  V30 81 H -2.912050 2.353255 -1.500673 0
M  V30 82 H -1.161786 2.085154 -1.698301 0
M  V30 83 H -2.792964 2.428914 -3.818104 0
M  V30 84 H -1.429211 1.192252 -3.839062 0
M  V30 85 H -3.213941 -0.009713 -4.428798 0
M  V30 86 H -4.415069 0.929518 -3.371075 0
M  V30 87 H -4.743779 -1.513912 -3.640455 0
M  V30 88 H -6.890847 -1.458613 -4.965081 0
M  V30 89 H -8.957947 -0.564385 -3.897909 0
M  V30 90 H -8.889407 0.294449 -1.522471 0
M  V30 91 H -7.066146 0.044235 3.013693 0
M  V30 92 H -6.942638 1.601480 2.187525 0
M  V30 93 H -5.481837 1.025084 2.954569 0
M  V30 END ATOM
M  V30 BEGIN BOND
M  V30 1 1 1 2
M  V30 2 1 2 3
M  V30 3 1 3 4
M  V30 4 2 4 5
M  V30 5 1 5 6
M  V30 6 1 6 7
M  V30 7 2 7 8
M  V30 8 1 7 9
M  V30 9 1 9 10
M  V30 10 1 10 11
M  V30 11 1 11 12
M  V30 12 1 12 13
M  V30 13 1 13 14
M  V30 14 1 14 15
M  V30 15 1 15 16
M  V30 16 1 16 17
M  V30 17 1 16 18
M  V30 18 1 18 19
M  V30 19 1 12 20
M  V30 20 1 20 21
M  V30 21 2 6 22
M  V30 22 1 22 23
M  V30 23 2 23 24
M  V30 24 1 24 25
M  V30 25 1 25 26
M  V30 26 2 26 27
M  V30 27 1 27 28
M  V30 28 2 28 29
M  V30 29 1 29 30
M  V30 30 2 30 31
M  V30 31 1 30 32
M  V30 32 1 32 33
M  V30 33 1 33 34
M  V30 34 1 34 35
M  V30 35 1 35 36
M  V30 36 1 36 37
M  V30 37 1 32 38
M  V30 38 2 38 39
M  V30 39 1 39 40
M  V30 40 2 40 41
M  V30 41 1 41 42
M  V30 42 2 42 43
M  V30 43 1 43 44
M  V30 44 2 44 45
M  V30 45 1 44 46
M  V30 46 1 46 47
M  V30 47 1 24 4
M  V30 48 1 31 26
M  V30 49 1 37 33
M  V30 50 1 43 38
M  V30 51 1 21 9
M  V30 52 1 46 29
M  V30 53 1 19 13
M  V30 54 1 1 48
M  V30 55 1 1 49
M  V30 56 1 1 50
M  V30 57 1 2 51
M  V30 58 1 2 52
M  V30 59 1 5 53
M  V30 60 1 10 54
M  V30 61 1 10 55
M  V30 62 1 11 56
M  V30 63 1 11 57
M  V30 64 1 12 58
M  V30 65 1 14 59
M  V30 66 1 14 60
M  V30 67 1 15 61
M  V30 68 1 15 62
M  V30 69 1 17 63
M  V30 70 1 17 64
M  V30 71 1 17 65
M  V30 72 1 18 66
M  V30 73 1 18 67
M  V30 74 1 19 68
M  V30 75 1 19 69
M  V30 76 1 20 70
M  V30 77 1 20 71
M  V30 78 1 21 72
M  V30 79 1 21 73
M  V30 80 1 22 74
M  V30 81 1 23 75
M  V30 82 1 25 76
M  V30 83 1 28 77
M  V30 84 1 33 78
M  V30 85 1 34 79
M  V30 86 1 34 80
M  V30 87 1 35 81
M  V30 88 1 35 82
M  V30 89 1 36 83
M  V30 90 1 36 84
M  V30 91 1 37 85
M  V30 92 1 37 86
M  V30 93 1 39 87
M  V30 94 1 40 88
M  V30 95 1 41 89
M  V30 96 1 42 90
M  V30 97 1 47 91
M  V30 98 1 47 92
M  V30 99 1 47 93
M  V30 END BOND
M  V30 END CTAB
M  END
>  <Dataset>  (738) 
ChEMBL_Kinases

>  <Ligand_Instance>  (738) 
nan

>  <PDB_ID>  (738) 
nan

>  <Standardized_SMILES>  (738) 
CCOc1cc(C(=O)N2CCC(N3CCN(C)CC3)CC2)ccc1Nc1ncc2c(n1)N(C1CCCC1)c1ccccc1C(=O)N2C

>  <Name>  (738) 
nan

>  <Pocket>  (738) 
nan

>  <ATP_Site>  (738) 
nan

>  <Peripheral>  (738) 
nan

>  <Num_H_Atoms_ProtBoundConf>  (738) 
nan

>  <Num_Resolved_Atoms>  (738) 
nan

>  <Num_Not_Resolved_Atoms>  (738) 
nan

$$$$
CHEMBL4740064
     RDKit          3D

  0  0  0  0  0  0  0  0  0  0999 V3000
M  V30 BEGIN CTAB
M  V30 COUNTS 56 61 0 0 0
M  V30 BEGIN ATOM
M  V30 1 C 2.605952 -2.257043 1.492990 0
M  V30 2 N 3.978533 -2.234617 1.102251 0
M  V30 3 C 4.606271 -3.519953 1.127721 0
M  V30 4 C 4.263839 -1.453583 -0.070791 0
M  V30 5 C 3.881188 -0.034245 0.144876 0
M  V30 6 C 4.877275 0.752635 0.692440 0
M  V30 7 N 4.573980 2.059782 0.904798 0
M  V30 8 C 3.328787 2.506533 0.570854 0
M  V30 9 C 2.307282 1.726599 0.016014 0
M  V30 10 C 1.043063 2.392798 -0.271878 0
M  V30 11 C 1.154365 3.721102 -0.627131 0
M  V30 12 N 0.037329 4.450538 -0.917584 0
M  V30 13 C -1.162022 3.845949 -0.848731 0
M  V30 14 N -2.417098 4.279013 -1.067106 0
M  V30 15 N -3.281242 3.294593 -0.866007 0
M  V30 16 C -2.633424 2.173994 -0.507647 0
M  V30 17 C -3.288993 0.909186 -0.210746 0
M  V30 18 N -2.779142 -0.279716 0.152464 0
M  V30 19 C -3.774734 -1.170343 0.319722 0
M  V30 20 C -3.923503 -2.494394 0.670635 0
M  V30 21 C -2.714366 -3.252922 0.963362 0
M  V30 22 C -1.686638 -3.087440 0.058140 0
M  V30 23 C -0.514775 -3.779228 0.278239 0
M  V30 24 C -0.415468 -4.598229 1.378635 0
M  V30 25 C -1.446083 -4.767355 2.291101 0
M  V30 26 F -1.284479 -5.592118 3.359779 0
M  V30 27 C -2.620761 -4.077965 2.076136 0
M  V30 28 C -5.135465 -3.143258 0.756747 0
M  V30 29 N -6.260530 -2.460656 0.485149 0
M  V30 30 C -6.190956 -1.164141 0.135455 0
M  V30 31 C -4.959184 -0.505637 0.048223 0
M  V30 32 N -4.626824 0.758252 -0.271487 0
M  V30 33 C -1.299104 2.519429 -0.496205 0
M  V30 34 C -0.190703 1.789203 -0.206419 0
M  V30 35 C 2.621424 0.409345 -0.194962 0
M  V30 36 H 2.323492 -1.360935 2.093401 0
M  V30 37 H 2.399897 -3.192762 2.092968 0
M  V30 38 H 1.920636 -2.245168 0.622029 0
M  V30 39 H 5.164707 -3.607924 2.102420 0
M  V30 40 H 3.920499 -4.383101 1.096012 0
M  V30 41 H 5.402835 -3.534049 0.354102 0
M  V30 42 H 5.278404 -1.570699 -0.446961 0
M  V30 43 H 3.600168 -1.879731 -0.880689 0
M  V30 44 H 5.855696 0.371398 0.947691 0
M  V30 45 H 3.242938 3.575094 0.802206 0
M  V30 46 H 2.066573 4.284777 -0.707920 0
M  V30 47 H -2.742998 5.227930 -1.352984 0
M  V30 48 H -1.768640 -2.442064 -0.807013 0
M  V30 49 H 0.294293 -3.654252 -0.429349 0
M  V30 50 H 0.530852 -5.131945 1.520758 0
M  V30 51 H -3.457320 -4.170940 2.753760 0
M  V30 52 H -5.191158 -4.192160 1.039983 0
M  V30 53 H -7.112138 -0.623205 -0.082380 0
M  V30 54 H -5.383118 1.462287 -0.521270 0
M  V30 55 H -0.255668 0.747410 0.074121 0
M  V30 56 H 1.859763 -0.201935 -0.617077 0
M  V30 END ATOM
M  V30 BEGIN BOND
M  V30 1 1 1 2
M  V30 2 1 2 3
M  V30 3 1 2 4
M  V30 4 1 4 5
M  V30 5 2 5 6
M  V30 6 1 6 7
M  V30 7 2 7 8
M  V30 8 1 8 9
M  V30 9 1 9 10
M  V30 10 2 10 11
M  V30 11 1 11 12
M  V30 12 2 12 13
M  V30 13 1 13 14
M  V30 14 1 14 15
M  V30 15 2 15 16
M  V30 16 1 16 17
M  V30 17 2 17 18
M  V30 18 1 18 19
M  V30 19 2 19 20
M  V30 20 1 20 21
M  V30 21 2 21 22
M  V30 22 1 22 23
M  V30 23 2 23 24
M  V30 24 1 24 25
M  V30 25 1 25 26
M  V30 26 2 25 27
M  V30 27 1 20 28
M  V30 28 2 28 29
M  V30 29 1 29 30
M  V30 30 2 30 31
M  V30 31 1 31 32
M  V30 32 1 16 33
M  V30 33 2 33 34
M  V30 34 2 9 35
M  V30 35 1 35 5
M  V30 36 1 34 10
M  V30 37 1 33 13
M  V30 38 1 32 17
M  V30 39 1 31 19
M  V30 40 1 27 21
M  V30 41 1 1 36
M  V30 42 1 1 37
M  V30 43 1 1 38
M  V30 44 1 3 39
M  V30 45 1 3 40
M  V30 46 1 3 41
M  V30 47 1 4 42
M  V30 48 1 4 43
M  V30 49 1 6 44
M  V30 50 1 8 45
M  V30 51 1 11 46
M  V30 52 1 14 47
M  V30 53 1 22 48
M  V30 54 1 23 49
M  V30 55 1 24 50
M  V30 56 1 27 51
M  V30 57 1 28 52
M  V30 58 1 30 53
M  V30 59 1 32 54
M  V30 60 1 34 55
M  V30 61 1 35 56
M  V30 END BOND
M  V30 END CTAB
M  END
>  <Dataset>  (739) 
ChEMBL_Kinases

>  <Ligand_Instance>  (739) 
nan

>  <PDB_ID>  (739) 
nan

>  <Standardized_SMILES>  (739) 
CN(C)Cc1cncc(-c2cnc3[nH]nc(-c4nc5c(-c6cccc(F)c6)cncc5[nH]4)c3c2)c1

>  <Name>  (739) 
nan

>  <Pocket>  (739) 
nan

>  <ATP_Site>  (739) 
nan

>  <Peripheral>  (739) 
nan

>  <Num_H_Atoms_ProtBoundConf>  (739) 
nan

>  <Num_Resolved_Atoms>  (739) 
nan

>  <Num_Not_Resolved_Atoms>  (739) 
nan

$$$$
CHEMBL4740045
     RDKit          3D

  0  0  0  0  0  0  0  0  0  0999 V3000
M  V30 BEGIN CTAB
M  V30 COUNTS 67 72 0 0 0
M  V30 BEGIN ATOM
M  V30 1 C 3.604563 -1.997906 6.392551 0
M  V30 2 C 4.727460 -2.214401 5.402080 0
M  V30 3 C 5.207570 -3.648487 5.597490 0
M  V30 4 C 4.166360 -2.090497 4.032000 0
M  V30 5 O 2.983463 -1.856785 4.387189 0
M  V30 6 N 4.839337 -2.214693 2.791026 0
M  V30 7 C 3.856384 -2.009368 1.753158 0
M  V30 8 C 3.200142 -3.142235 1.309198 0
M  V30 9 N 2.267534 -3.026967 0.340637 0
M  V30 10 C 1.977275 -1.823692 -0.189143 0
M  V30 11 C 2.606448 -0.666985 0.222743 0
M  V30 12 C 2.331404 0.662893 -0.316267 0
M  V30 13 C 3.306110 1.637203 -0.388946 0
M  V30 14 C 3.054834 2.894682 -0.896189 0
M  V30 15 C 1.766224 3.123783 -1.329104 0
M  V30 16 N 1.201049 4.202742 -1.860413 0
M  V30 17 N -0.067300 3.958931 -2.122999 0
M  V30 18 C -0.421246 2.728831 -1.790863 0
M  V30 19 C -1.723999 2.153084 -1.947132 0
M  V30 20 C -2.341918 0.972678 -1.704735 0
M  V30 21 C -3.672674 0.961058 -2.065642 0
M  V30 22 C -4.648524 -0.010870 -1.994461 0
M  V30 23 N -4.370594 -1.306875 -1.465870 0
M  V30 24 C -3.367373 -2.161147 -2.068051 0
M  V30 25 C -2.497807 -2.717533 -0.975013 0
M  V30 26 N -2.939992 -2.400427 0.347993 0
M  V30 27 C -2.308490 -3.379154 1.248393 0
M  V30 28 C -4.367651 -2.614568 0.522634 0
M  V30 29 C -5.174199 -1.649303 -0.318398 0
M  V30 30 N -5.902998 0.289913 -2.443690 0
M  V30 31 C -6.165423 1.527659 -2.947491 0
M  V30 32 C -5.178388 2.487613 -3.011418 0
M  V30 33 C -3.899131 2.224591 -2.568515 0
M  V30 34 N -2.734553 2.890070 -2.481357 0
M  V30 35 C 0.733541 2.181367 -1.283392 0
M  V30 36 C 1.066384 0.968320 -0.769332 0
M  V30 37 C 3.570487 -0.758028 1.218350 0
M  V30 38 H 3.919585 -2.082202 7.431686 0
M  V30 39 H 2.810359 -2.750081 6.169670 0
M  V30 40 H 3.140484 -0.994322 6.254872 0
M  V30 41 H 5.579287 -1.554788 5.590503 0
M  V30 42 H 6.287196 -3.757144 5.364782 0
M  V30 43 H 5.097871 -3.969407 6.663208 0
M  V30 44 H 4.615551 -4.326830 4.942921 0
M  V30 45 H 5.859321 -2.419662 2.888498 0
M  V30 46 H 3.432109 -4.121811 1.736151 0
M  V30 47 H 1.227995 -1.718590 -0.969680 0
M  V30 48 H 4.312118 1.391237 -0.027665 0
M  V30 49 H 3.806832 3.669982 -0.960406 0
M  V30 50 H 1.644105 5.120384 -2.058875 0
M  V30 51 H -1.871938 0.114082 -1.276208 0
M  V30 52 H -2.746704 -1.601681 -2.800427 0
M  V30 53 H -3.891669 -3.020783 -2.555106 0
M  V30 54 H -2.289541 -3.802003 -1.115129 0
M  V30 55 H -1.481755 -2.242163 -1.092124 0
M  V30 56 H -2.899922 -4.337945 1.239487 0
M  V30 57 H -1.299283 -3.612561 0.848276 0
M  V30 58 H -2.257070 -3.034313 2.285899 0
M  V30 59 H -4.593509 -2.395290 1.589916 0
M  V30 60 H -4.644762 -3.676296 0.357545 0
M  V30 61 H -6.091393 -2.159709 -0.670965 0
M  V30 62 H -5.488978 -0.767716 0.266791 0
M  V30 63 H -7.176317 1.709153 -3.287965 0
M  V30 64 H -5.377442 3.469524 -3.408664 0
M  V30 65 H -2.745514 3.883924 -2.830930 0
M  V30 66 H 0.326801 0.217133 -0.710172 0
M  V30 67 H 4.122633 0.094167 1.611863 0
M  V30 END ATOM
M  V30 BEGIN BOND
M  V30 1 1 1 2
M  V30 2 1 2 3
M  V30 3 1 2 4
M  V30 4 2 4 5
M  V30 5 1 4 6
M  V30 6 1 6 7
M  V30 7 2 7 8
M  V30 8 1 8 9
M  V30 9 2 9 10
M  V30 10 1 10 11
M  V30 11 1 11 12
M  V30 12 2 12 13
M  V30 13 1 13 14
M  V30 14 2 14 15
M  V30 15 1 15 16
M  V30 16 1 16 17
M  V30 17 2 17 18
M  V30 18 1 18 19
M  V30 19 2 19 20
M  V30 20 1 20 21
M  V30 21 2 21 22
M  V30 22 1 22 23
M  V30 23 1 23 24
M  V30 24 1 24 25
M  V30 25 1 25 26
M  V30 26 1 26 27
M  V30 27 1 26 28
M  V30 28 1 28 29
M  V30 29 1 22 30
M  V30 30 2 30 31
M  V30 31 1 31 32
M  V30 32 2 32 33
M  V30 33 1 33 34
M  V30 34 1 18 35
M  V30 35 2 35 36
M  V30 36 2 11 37
M  V30 37 1 37 7
M  V30 38 1 36 12
M  V30 39 1 35 15
M  V30 40 1 34 19
M  V30 41 1 33 21
M  V30 42 1 29 23
M  V30 43 1 1 38
M  V30 44 1 1 39
M  V30 45 1 1 40
M  V30 46 1 2 41
M  V30 47 1 3 42
M  V30 48 1 3 43
M  V30 49 1 3 44
M  V30 50 1 6 45
M  V30 51 1 8 46
M  V30 52 1 10 47
M  V30 53 1 13 48
M  V30 54 1 14 49
M  V30 55 1 16 50
M  V30 56 1 20 51
M  V30 57 1 24 52
M  V30 58 1 24 53
M  V30 59 1 25 54
M  V30 60 1 25 55
M  V30 61 1 27 56
M  V30 62 1 27 57
M  V30 63 1 27 58
M  V30 64 1 28 59
M  V30 65 1 28 60
M  V30 66 1 29 61
M  V30 67 1 29 62
M  V30 68 1 31 63
M  V30 69 1 32 64
M  V30 70 1 34 65
M  V30 71 1 36 66
M  V30 72 1 37 67
M  V30 END BOND
M  V30 END CTAB
M  END
>  <Dataset>  (740) 
ChEMBL_Kinases

>  <Ligand_Instance>  (740) 
nan

>  <PDB_ID>  (740) 
nan

>  <Standardized_SMILES>  (740) 
CC(C)C(=O)Nc1cncc(-c2ccc3[nH]nc(-c4cc5c(N6CCN(C)CC6)nccc5[nH]4)c3c2)c1

>  <Name>  (740) 
nan

>  <Pocket>  (740) 
nan

>  <ATP_Site>  (740) 
nan

>  <Peripheral>  (740) 
nan

>  <Num_H_Atoms_ProtBoundConf>  (740) 
nan

>  <Num_Resolved_Atoms>  (740) 
nan

>  <Num_Not_Resolved_Atoms>  (740) 
nan

$$$$
CHEMBL4465062
     RDKit          3D

  0  0  0  0  0  0  0  0  0  0999 V3000
M  V30 BEGIN CTAB
M  V30 COUNTS 76 80 0 0 0
M  V30 BEGIN ATOM
M  V30 1 C 6.496593 -2.725452 -1.303528 0
M  V30 2 C 5.087065 -3.223712 -1.150763 0
M  V30 3 C 4.011014 -2.369985 -1.697755 0
M  V30 4 C 4.158599 -2.102953 -3.162072 0
M  V30 5 O 5.176417 -2.355251 -3.898757 0
M  V30 6 N 3.034865 -1.493711 -3.829125 0
M  V30 7 C 2.765315 -1.637539 -5.269255 0
M  V30 8 C 2.188039 -0.711284 -2.967944 0
M  V30 9 C 1.108927 -0.141655 -3.627538 0
M  V30 10 N 0.278622 0.598198 -2.871771 0
M  V30 11 C 0.503506 0.765187 -1.536761 0
M  V30 12 N -0.302698 1.523942 -0.641976 0
M  V30 13 C -1.453918 1.044587 0.086136 0
M  V30 14 C -1.733021 -0.299683 -0.194828 0
M  V30 15 C -2.816612 -0.859481 0.442679 0
M  V30 16 F -3.124869 -2.139181 0.208360 0
M  V30 17 C -3.632126 -0.192660 1.325846 0
M  V30 18 C -4.786064 -0.656749 2.052108 0
M  V30 19 O -5.475965 0.050190 2.853004 0
M  V30 20 N -5.342497 -1.957870 2.000807 0
M  V30 21 C -6.481158 -2.513385 2.680489 0
M  V30 22 C -7.475543 -3.020982 1.655413 0
M  V30 23 C -6.909026 -4.356077 1.178704 0
M  V30 24 C -6.047204 -4.860474 2.320909 0
M  V30 25 C -6.103755 -3.795619 3.397752 0
M  V30 26 C -3.316277 1.126881 1.568909 0
M  V30 27 C -2.256107 1.767060 0.979993 0
M  V30 28 O -1.764767 3.033997 1.066829 0
M  V30 29 C -2.183009 4.119885 1.803754 0
M  V30 30 C -2.175787 3.980468 3.288780 0
M  V30 31 O -0.901387 3.707391 3.793859 0
M  V30 32 N 1.555146 0.198612 -0.942940 0
M  V30 33 C 2.450881 -0.560593 -1.596866 0
M  V30 34 N 3.615884 -1.205097 -1.002318 0
M  V30 35 C 4.124016 -0.512419 0.162848 0
M  V30 36 C 5.496598 0.090158 -0.046827 0
M  V30 37 C 5.468489 1.473060 0.604606 0
M  V30 38 C 4.354456 1.237384 1.641863 0
M  V30 39 C 3.336713 0.650559 0.623880 0
M  V30 40 H 6.905001 -2.548051 -0.288170 0
M  V30 41 H 7.172267 -3.528673 -1.715600 0
M  V30 42 H 6.602382 -1.794456 -1.878625 0
M  V30 43 H 5.070669 -4.263741 -1.598793 0
M  V30 44 H 4.849143 -3.444606 -0.064003 0
M  V30 45 H 3.096822 -3.092179 -1.696417 0
M  V30 46 H 1.882063 -2.294546 -5.428952 0
M  V30 47 H 2.630035 -0.643598 -5.736874 0
M  V30 48 H 3.631496 -2.163811 -5.718261 0
M  V30 49 H 0.924434 -0.267220 -4.673907 0
M  V30 50 H -0.044961 2.542254 -0.484635 0
M  V30 51 H -1.165642 -0.921912 -0.868319 0
M  V30 52 H -4.909681 -2.677018 1.396024 0
M  V30 53 H -6.953130 -1.769170 3.321536 0
M  V30 54 H -7.601627 -2.337075 0.795698 0
M  V30 55 H -8.458006 -3.240292 2.121912 0
M  V30 56 H -7.716950 -5.083765 0.936772 0
M  V30 57 H -6.297828 -4.244728 0.257537 0
M  V30 58 H -4.998829 -5.015699 1.955150 0
M  V30 59 H -6.473407 -5.798587 2.716536 0
M  V30 60 H -6.920427 -4.038519 4.102443 0
M  V30 61 H -5.141489 -3.660864 3.895754 0
M  V30 62 H -3.862861 1.759322 2.221561 0
M  V30 63 H -1.574895 5.039646 1.551914 0
M  V30 64 H -3.214347 4.386997 1.464428 0
M  V30 65 H -2.932991 3.305744 3.718360 0
M  V30 66 H -2.434886 4.993748 3.727973 0
M  V30 67 H -0.868769 3.932743 4.767239 0
M  V30 68 H 4.204761 -1.208216 1.039933 0
M  V30 69 H 6.303128 -0.434251 0.508772 0
M  V30 70 H 5.724581 0.283002 -1.111062 0
M  V30 71 H 5.043092 2.219928 -0.098227 0
M  V30 72 H 6.415419 1.759919 1.059907 0
M  V30 73 H 4.728505 0.468794 2.322447 0
M  V30 74 H 3.995847 2.161989 2.088839 0
M  V30 75 H 2.426688 0.459286 1.192487 0
M  V30 76 H 3.267645 1.502034 -0.110433 0
M  V30 END ATOM
M  V30 BEGIN BOND
M  V30 1 1 1 2
M  V30 2 1 2 3
M  V30 3 1 3 4
M  V30 4 2 4 5
M  V30 5 1 4 6
M  V30 6 1 6 7
M  V30 7 1 6 8
M  V30 8 2 8 9
M  V30 9 1 9 10
M  V30 10 2 10 11
M  V30 11 1 11 12
M  V30 12 1 12 13
M  V30 13 2 13 14
M  V30 14 1 14 15
M  V30 15 1 15 16
M  V30 16 2 15 17
M  V30 17 1 17 18
M  V30 18 2 18 19
M  V30 19 1 18 20
M  V30 20 1 20 21
M  V30 21 1 21 22
M  V30 22 1 22 23
M  V30 23 1 23 24
M  V30 24 1 24 25
M  V30 25 1 17 26
M  V30 26 2 26 27
M  V30 27 1 27 28
M  V30 28 1 28 29
M  V30 29 1 29 30
M  V30 30 1 30 31
M  V30 31 1 11 32
M  V30 32 2 32 33
M  V30 33 1 33 34
M  V30 34 1 34 35
M  V30 35 1 35 36
M  V30 36 1 36 37
M  V30 37 1 37 38
M  V30 38 1 38 39
M  V30 39 1 34 3
M  V30 40 1 39 35
M  V30 41 1 33 8
M  V30 42 1 27 13
M  V30 43 1 25 21
M  V30 44 1 1 40
M  V30 45 1 1 41
M  V30 46 1 1 42
M  V30 47 1 2 43
M  V30 48 1 2 44
M  V30 49 1 3 45
M  V30 50 1 7 46
M  V30 51 1 7 47
M  V30 52 1 7 48
M  V30 53 1 9 49
M  V30 54 1 12 50
M  V30 55 1 14 51
M  V30 56 1 20 52
M  V30 57 1 21 53
M  V30 58 1 22 54
M  V30 59 1 22 55
M  V30 60 1 23 56
M  V30 61 1 23 57
M  V30 62 1 24 58
M  V30 63 1 24 59
M  V30 64 1 25 60
M  V30 65 1 25 61
M  V30 66 1 26 62
M  V30 67 1 29 63
M  V30 68 1 29 64
M  V30 69 1 30 65
M  V30 70 1 30 66
M  V30 71 1 31 67
M  V30 72 1 35 68
M  V30 73 1 36 69
M  V30 74 1 36 70
M  V30 75 1 37 71
M  V30 76 1 37 72
M  V30 77 1 38 73
M  V30 78 1 38 74
M  V30 79 1 39 75
M  V30 80 1 39 76
M  V30 END BOND
M  V30 END CTAB
M  END
>  <Dataset>  (741) 
ChEMBL_Kinases

>  <Ligand_Instance>  (741) 
nan

>  <PDB_ID>  (741) 
nan

>  <Standardized_SMILES>  (741) 
CCC1C(=O)N(C)c2cnc(Nc3cc(F)c(C(=O)NC4CCCC4)cc3OCCO)nc2N1C1CCCC1

>  <Name>  (741) 
nan

>  <Pocket>  (741) 
nan

>  <ATP_Site>  (741) 
nan

>  <Peripheral>  (741) 
nan

>  <Num_H_Atoms_ProtBoundConf>  (741) 
nan

>  <Num_Resolved_Atoms>  (741) 
nan

>  <Num_Not_Resolved_Atoms>  (741) 
nan

$$$$
CHEMBL4741792
     RDKit          3D

  0  0  0  0  0  0  0  0  0  0999 V3000
M  V30 BEGIN CTAB
M  V30 COUNTS 43 46 0 0 0
M  V30 BEGIN ATOM
M  V30 1 C -3.692506 -5.122081 0.159455 0
M  V30 2 C -2.580466 -4.918314 1.151611 0
M  V30 3 N -2.174051 -5.708458 2.152261 0
M  V30 4 N -1.149197 -5.159654 2.794350 0
M  V30 5 C -0.913324 -4.004912 2.178336 0
M  V30 6 C 0.039345 -3.025321 2.424974 0
M  V30 7 C 0.099268 -1.879906 1.636106 0
M  V30 8 C -0.757477 -1.644297 0.585414 0
M  V30 9 C -0.692261 -0.453938 -0.241687 0
M  V30 10 C -1.593678 -0.302463 -1.265233 0
M  V30 11 N -1.544530 0.795881 -2.038659 0
M  V30 12 C -0.630097 1.752582 -1.833433 0
M  V30 13 C 0.303378 1.633312 -0.802965 0
M  V30 14 N 1.269764 2.653646 -0.614853 0
M  V30 15 C 2.324074 2.732571 0.398147 0 CFG=1
M  V30 16 C 1.787084 2.810050 1.796072 0
M  V30 17 C 2.416955 1.802539 2.707375 0
M  V30 18 N 3.832175 1.852462 2.576299 0
M  V30 19 C 4.319634 1.612871 1.256278 0
M  V30 20 C 3.160532 1.469125 0.266058 0 CFG=2
M  V30 21 F 3.652462 1.295082 -1.010246 0
M  V30 22 N 0.203333 0.528428 -0.075354 0
M  V30 23 C -1.687503 -2.629303 0.366905 0
M  V30 24 C -1.780469 -3.776792 1.122720 0
M  V30 25 H -4.668805 -4.884979 0.565811 0
M  V30 26 H -3.623134 -6.202922 -0.098099 0
M  V30 27 H -3.443289 -4.597637 -0.800046 0
M  V30 28 H -0.609732 -5.512556 3.608618 0
M  V30 29 H 0.734174 -3.148450 3.226069 0
M  V30 30 H 0.855775 -1.167972 1.877123 0
M  V30 31 H -2.375918 -0.975669 -1.550088 0
M  V30 32 H -0.621285 2.633861 -2.484202 0
M  V30 33 H 1.223862 3.470464 -1.298448 0
M  V30 34 H 2.956134 3.632506 0.179069 0
M  V30 35 H 0.674776 2.820660 1.837695 0
M  V30 36 H 2.089799 3.820259 2.211108 0
M  V30 37 H 2.170592 2.041729 3.776230 0
M  V30 38 H 2.067283 0.779578 2.500721 0
M  V30 39 H 4.373193 1.433749 3.339553 0
M  V30 40 H 4.896602 0.693346 1.225157 0
M  V30 41 H 4.968885 2.457896 0.958673 0
M  V30 42 H 2.512665 0.616431 0.525138 0
M  V30 43 H -2.419058 -2.602784 -0.401223 0
M  V30 END ATOM
M  V30 BEGIN BOND
M  V30 1 1 1 2
M  V30 2 2 2 3
M  V30 3 1 3 4
M  V30 4 1 4 5
M  V30 5 2 5 6
M  V30 6 1 6 7
M  V30 7 2 7 8
M  V30 8 1 8 9
M  V30 9 2 9 10
M  V30 10 1 10 11
M  V30 11 2 11 12
M  V30 12 1 12 13
M  V30 13 1 13 14
M  V30 14 1 14 15
M  V30 15 1 15 16
M  V30 16 1 16 17
M  V30 17 1 17 18
M  V30 18 1 18 19
M  V30 19 1 19 20
M  V30 20 1 20 21
M  V30 21 2 13 22
M  V30 22 1 8 23
M  V30 23 2 23 24
M  V30 24 1 24 2
M  V30 25 1 24 5
M  V30 26 1 22 9
M  V30 27 1 20 15
M  V30 28 1 1 25
M  V30 29 1 1 26
M  V30 30 1 1 27
M  V30 31 1 4 28
M  V30 32 1 6 29
M  V30 33 1 7 30
M  V30 34 1 10 31
M  V30 35 1 12 32
M  V30 36 1 14 33
M  V30 37 1 15 34 CFG=3
M  V30 38 1 16 35
M  V30 39 1 16 36
M  V30 40 1 17 37
M  V30 41 1 17 38
M  V30 42 1 18 39
M  V30 43 1 19 40
M  V30 44 1 19 41
M  V30 45 1 20 42 CFG=1
M  V30 46 1 23 43
M  V30 END BOND
M  V30 END CTAB
M  END
>  <Dataset>  (742) 
ChEMBL_Kinases

>  <Ligand_Instance>  (742) 
nan

>  <PDB_ID>  (742) 
nan

>  <Standardized_SMILES>  (742) 
Cc1n[nH]c2ccc(-c3cncc(N[C@H]4CCNC[C@@H]4F)n3)cc12

>  <Name>  (742) 
nan

>  <Pocket>  (742) 
nan

>  <ATP_Site>  (742) 
nan

>  <Peripheral>  (742) 
nan

>  <Num_H_Atoms_ProtBoundConf>  (742) 
nan

>  <Num_Resolved_Atoms>  (742) 
nan

>  <Num_Not_Resolved_Atoms>  (742) 
nan

$$$$
CHEMBL473080
     RDKit          3D

  0  0  0  0  0  0  0  0  0  0999 V3000
M  V30 BEGIN CTAB
M  V30 COUNTS 38 40 0 0 0
M  V30 BEGIN ATOM
M  V30 1 N -0.120239 2.453087 1.928641 0
M  V30 2 C 0.839779 1.515985 1.497193 0
M  V30 3 C 1.152831 0.393054 2.329153 0
M  V30 4 N 0.392850 0.108080 3.526021 0
M  V30 5 S -1.256356 -0.101112 3.012022 0
M  V30 6 O -2.062409 1.101002 3.254400 0
M  V30 7 O -1.789695 -1.074447 4.128883 0
M  V30 8 C -1.597044 -1.025081 1.633395 0
M  V30 9 C -2.412060 -0.305102 0.869241 0
M  V30 10 C -2.572903 -0.470978 -0.559575 0
M  V30 11 C -1.675733 -1.527018 -0.920910 0
M  V30 12 C -1.355606 -1.906971 -2.330098 0
M  V30 13 C -2.192579 -2.563222 -3.136415 0
M  V30 14 C -1.824702 -3.059066 -4.338836 0
M  V30 15 N -0.538866 -2.913492 -4.740815 0
M  V30 16 C 0.359830 -2.296883 -3.976167 0
M  V30 17 N 1.680013 -2.111301 -4.066738 0
M  V30 18 C 2.233738 -1.456163 -3.044036 0
M  V30 19 C 1.140859 -1.245603 -2.176719 0
M  V30 20 C -0.011532 -1.769944 -2.761347 0
M  V30 21 C -0.868808 -2.280507 -0.085377 0
M  V30 22 C -0.845351 -1.992652 1.343340 0
M  V30 23 H -0.919966 2.432168 1.212757 0
M  V30 24 H 0.230572 3.410163 1.992512 0
M  V30 25 H 0.329905 0.888917 0.559114 0
M  V30 26 H 1.653052 1.960361 0.956114 0
M  V30 27 H 2.161749 0.856730 2.914720 0
M  V30 28 H 1.645252 -0.468301 1.914209 0
M  V30 29 H 0.747361 -0.728360 3.976030 0
M  V30 30 H -3.160789 0.488334 1.184192 0
M  V30 31 H -3.156836 -0.059782 -1.292578 0
M  V30 32 H -3.198312 -2.724693 -2.755334 0
M  V30 33 H -2.488581 -3.602143 -4.958480 0
M  V30 34 H 2.224975 -2.524934 -4.857867 0
M  V30 35 H 3.243357 -1.156977 -2.928087 0
M  V30 36 H 1.194179 -0.783416 -1.221003 0
M  V30 37 H -0.240265 -3.117953 -0.453092 0
M  V30 38 H -0.183787 -2.500478 1.976810 0
M  V30 END ATOM
M  V30 BEGIN BOND
M  V30 1 1 1 2
M  V30 2 1 2 3
M  V30 3 1 3 4
M  V30 4 1 4 5
M  V30 5 2 5 6
M  V30 6 2 5 7
M  V30 7 1 5 8
M  V30 8 2 8 9
M  V30 9 1 9 10
M  V30 10 2 10 11
M  V30 11 1 11 12
M  V30 12 2 12 13
M  V30 13 1 13 14
M  V30 14 2 14 15
M  V30 15 1 15 16
M  V30 16 1 16 17
M  V30 17 1 17 18
M  V30 18 2 18 19
M  V30 19 1 19 20
M  V30 20 1 11 21
M  V30 21 2 21 22
M  V30 22 1 22 8
M  V30 23 1 20 12
M  V30 24 2 20 16
M  V30 25 1 1 23
M  V30 26 1 1 24
M  V30 27 1 2 25
M  V30 28 1 2 26
M  V30 29 1 3 27
M  V30 30 1 3 28
M  V30 31 1 4 29
M  V30 32 1 9 30
M  V30 33 1 10 31
M  V30 34 1 13 32
M  V30 35 1 14 33
M  V30 36 1 17 34
M  V30 37 1 18 35
M  V30 38 1 19 36
M  V30 39 1 21 37
M  V30 40 1 22 38
M  V30 END BOND
M  V30 END CTAB
M  END
>  <Dataset>  (743) 
ChEMBL_Kinases

>  <Ligand_Instance>  (743) 
nan

>  <PDB_ID>  (743) 
nan

>  <Standardized_SMILES>  (743) 
NCCNS(=O)(=O)c1ccc(-c2ccnc3[nH]ccc23)cc1

>  <Name>  (743) 
nan

>  <Pocket>  (743) 
nan

>  <ATP_Site>  (743) 
nan

>  <Peripheral>  (743) 
nan

>  <Num_H_Atoms_ProtBoundConf>  (743) 
nan

>  <Num_Resolved_Atoms>  (743) 
nan

>  <Num_Not_Resolved_Atoms>  (743) 
nan

$$$$
CHEMBL4467003
     RDKit          3D

  0  0  0  0  0  0  0  0  0  0999 V3000
M  V30 BEGIN CTAB
M  V30 COUNTS 72 78 0 0 0
M  V30 BEGIN ATOM
M  V30 1 C 0.451827 -1.759517 6.277251 0
M  V30 2 C 0.481616 -1.706677 4.901211 0
M  V30 3 C 0.729319 -0.503371 4.287790 0
M  V30 4 C 0.955510 0.679412 4.952939 0
M  V30 5 O 1.218279 1.968428 4.634803 0
M  V30 6 C 1.376357 2.596474 3.402668 0
M  V30 7 C 2.542411 2.027376 2.668534 0
M  V30 8 N 2.736567 2.667223 1.364706 0
M  V30 9 C 3.168379 4.063145 1.269604 0
M  V30 10 C 3.985074 4.366565 0.065807 0
M  V30 11 O 3.996203 3.376877 -0.932330 0
M  V30 12 C 3.144385 2.315878 -1.008760 0
M  V30 13 C 2.513812 1.968114 0.162839 0
M  V30 14 C 1.633506 0.897878 0.159670 0
M  V30 15 N 1.390440 0.201534 -0.966406 0
M  V30 16 N 2.006048 0.551557 -2.083543 0
M  V30 17 C 1.929069 0.015483 -3.334220 0
M  V30 18 C 1.070576 -1.140822 -3.669563 0
M  V30 19 C 1.106493 -1.545339 -4.995458 0
M  V30 20 C 0.286631 -2.621697 -5.262320 0
M  V30 21 C -0.522414 -3.294871 -4.371899 0
M  V30 22 C -1.303932 -4.360510 -4.747310 0
M  V30 23 C -2.081047 -4.960871 -3.759876 0
M  V30 24 C -2.018823 -4.455049 -2.480545 0
M  V30 25 C -1.232021 -3.384460 -2.110922 0
M  V30 26 N -1.271025 -3.014285 -0.744182 0
M  V30 27 C -1.883715 -3.321191 0.503741 0
M  V30 28 C -3.274556 -2.866002 0.724328 0
M  V30 29 C -3.315018 -1.356421 0.585475 0
M  V30 30 C -4.699281 -0.848882 0.327021 0
M  V30 31 N -5.421185 -1.507319 -0.712015 0
M  V30 32 C -4.736878 -2.675420 -1.213219 0
M  V30 33 C -4.372308 -3.532799 -0.016023 0
M  V30 34 C -0.450088 -2.779674 -3.103249 0
M  V30 35 N 0.310688 -1.737456 -2.727866 0
M  V30 36 N 2.761693 0.741327 -4.137744 0
M  V30 37 N 3.327368 1.695291 -3.381620 0
M  V30 38 C 2.871756 1.580760 -2.144301 0
M  V30 39 C 0.918372 0.591844 6.350043 0
M  V30 40 C 0.669641 -0.610783 7.023111 0
M  V30 41 H 0.251135 -2.737438 6.695293 0
M  V30 42 H 0.325714 -2.539477 4.228191 0
M  V30 43 H 0.760182 -0.360489 3.222397 0
M  V30 44 H 0.435932 2.583740 2.804303 0
M  V30 45 H 1.555964 3.688779 3.646621 0
M  V30 46 H 2.575081 0.946139 2.590671 0
M  V30 47 H 3.453448 2.314375 3.282470 0
M  V30 48 H 3.627885 4.394572 2.225691 0
M  V30 49 H 2.198268 4.638417 1.190992 0
M  V30 50 H 5.026308 4.639220 0.396608 0
M  V30 51 H 3.604003 5.297656 -0.449111 0
M  V30 52 H 1.135523 0.621192 1.077408 0
M  V30 53 H 1.707382 -1.079963 -5.755146 0
M  V30 54 H 0.276230 -2.983973 -6.301924 0
M  V30 55 H -1.262232 -4.658792 -5.784516 0
M  V30 56 H -2.663077 -5.788710 -4.139167 0
M  V30 57 H -2.673645 -5.052792 -1.869937 0
M  V30 58 H -0.592964 -2.203947 -0.620308 0
M  V30 59 H -1.799284 -4.457967 0.609041 0
M  V30 60 H -1.216959 -2.961223 1.333342 0
M  V30 61 H -3.492796 -3.049784 1.833398 0
M  V30 62 H -2.646870 -1.000000 -0.227463 0
M  V30 63 H -2.939820 -0.913974 1.526196 0
M  V30 64 H -4.611461 0.239692 0.038579 0
M  V30 65 H -5.294180 -0.833130 1.270613 0
M  V30 66 H -5.629889 -0.883059 -1.541653 0
M  V30 67 H -3.896843 -2.361047 -1.827194 0
M  V30 68 H -5.452604 -3.210384 -1.882566 0
M  V30 69 H -5.335472 -3.534052 0.604898 0
M  V30 70 H -4.225091 -4.584849 -0.250828 0
M  V30 71 H 1.062340 1.372368 7.114956 0
M  V30 72 H 0.620333 -0.780983 8.070608 0
M  V30 END ATOM
M  V30 BEGIN BOND
M  V30 1 2 1 2
M  V30 2 1 2 3
M  V30 3 2 3 4
M  V30 4 1 4 5
M  V30 5 1 5 6
M  V30 6 1 6 7
M  V30 7 1 7 8
M  V30 8 1 8 9
M  V30 9 1 9 10
M  V30 10 1 10 11
M  V30 11 1 11 12
M  V30 12 2 12 13
M  V30 13 1 13 14
M  V30 14 2 14 15
M  V30 15 1 15 16
M  V30 16 1 16 17
M  V30 17 1 17 18
M  V30 18 2 18 19
M  V30 19 1 19 20
M  V30 20 2 20 21
M  V30 21 1 21 22
M  V30 22 2 22 23
M  V30 23 1 23 24
M  V30 24 2 24 25
M  V30 25 1 25 26
M  V30 26 1 26 27
M  V30 27 1 27 28
M  V30 28 1 28 29
M  V30 29 1 29 30
M  V30 30 1 30 31
M  V30 31 1 31 32
M  V30 32 1 32 33
M  V30 33 1 25 34
M  V30 34 2 34 35
M  V30 35 2 17 36
M  V30 36 1 36 37
M  V30 37 2 37 38
M  V30 38 1 4 39
M  V30 39 2 39 40
M  V30 40 1 40 1
M  V30 41 1 13 8
M  V30 42 1 38 16
M  V30 43 1 38 12
M  V30 44 1 35 18
M  V30 45 1 34 21
M  V30 46 1 33 28
M  V30 47 1 1 41
M  V30 48 1 2 42
M  V30 49 1 3 43
M  V30 50 1 6 44
M  V30 51 1 6 45
M  V30 52 1 7 46
M  V30 53 1 7 47
M  V30 54 1 9 48
M  V30 55 1 9 49
M  V30 56 1 10 50
M  V30 57 1 10 51
M  V30 58 1 14 52
M  V30 59 1 19 53
M  V30 60 1 20 54
M  V30 61 1 22 55
M  V30 62 1 23 56
M  V30 63 1 24 57
M  V30 64 1 26 58
M  V30 65 1 27 59
M  V30 66 1 27 60
M  V30 67 1 28 61
M  V30 68 1 29 62
M  V30 69 1 29 63
M  V30 70 1 30 64
M  V30 71 1 30 65
M  V30 72 1 31 66
M  V30 73 1 32 67
M  V30 74 1 32 68
M  V30 75 1 33 69
M  V30 76 1 33 70
M  V30 77 1 39 71
M  V30 78 1 40 72
M  V30 END BOND
M  V30 END CTAB
M  END
>  <Dataset>  (744) 
ChEMBL_Kinases

>  <Ligand_Instance>  (744) 
nan

>  <PDB_ID>  (744) 
nan

>  <Standardized_SMILES>  (744) 
c1ccc(OCCN2CCOc3c2cnn2c(-c4ccc5cccc(NCC6CCNCC6)c5n4)nnc32)cc1

>  <Name>  (744) 
nan

>  <Pocket>  (744) 
nan

>  <ATP_Site>  (744) 
nan

>  <Peripheral>  (744) 
nan

>  <Num_H_Atoms_ProtBoundConf>  (744) 
nan

>  <Num_Resolved_Atoms>  (744) 
nan

>  <Num_Not_Resolved_Atoms>  (744) 
nan

$$$$
CHEMBL2380834
     RDKit          3D

  0  0  0  0  0  0  0  0  0  0999 V3000
M  V30 BEGIN CTAB
M  V30 COUNTS 52 56 0 0 0
M  V30 BEGIN ATOM
M  V30 1 O 0.252455 -5.349131 1.235619 0
M  V30 2 C -0.682319 -4.774005 0.620371 0
M  V30 3 N -0.622446 -3.411278 0.199335 0
M  V30 4 C 0.270906 -2.304029 0.240881 0
M  V30 5 C 0.140420 -1.444761 1.319303 0
M  V30 6 C 0.943596 -0.310247 1.511683 0
M  V30 7 C 1.883939 -0.132299 0.514347 0
M  V30 8 N 2.744641 1.047861 0.669195 0
M  V30 9 C 2.593620 2.061256 1.618400 0
M  V30 10 C 3.624358 1.820039 2.542165 0
M  V30 11 C 3.702149 2.633250 3.685179 0
M  V30 12 N 2.821443 3.646796 3.937295 0
M  V30 13 C 1.836496 3.860841 3.024199 0
M  V30 14 N 0.927529 4.835347 3.183390 0
M  V30 15 C -0.057914 5.092382 2.305825 0
M  V30 16 O -0.893082 6.014813 2.494151 0
M  V30 17 C -0.131029 4.293683 1.158399 0
M  V30 18 C -1.110454 4.616982 0.247590 0
M  V30 19 C -1.126020 3.865356 -0.905559 0
M  V30 20 C -0.226713 2.827758 -1.187263 0
M  V30 21 C 0.688302 2.621836 -0.187315 0
M  V30 22 C 0.786147 3.295925 0.980953 0
M  V30 23 C 1.747078 3.081725 1.904307 0
M  V30 24 C 2.083697 -0.935138 -0.590982 0
M  V30 25 C 1.242489 -2.037004 -0.701209 0
M  V30 26 C -1.952103 -5.441194 0.261303 0
M  V30 27 C -2.919619 -5.462047 1.226235 0
M  V30 28 C -4.095606 -6.099294 0.842007 0
M  V30 29 C -4.301571 -6.669579 -0.391891 0
M  V30 30 F -5.455444 -7.284126 -0.739587 0
M  V30 31 C -3.267521 -6.599510 -1.301173 0
M  V30 32 C -2.075532 -5.987915 -0.999600 0
M  V30 33 C -0.909578 -5.875298 -1.931604 0
M  V30 34 F 0.186729 -6.514629 -1.350676 0
M  V30 35 F -1.155508 -6.572819 -3.105677 0
M  V30 36 F -0.646202 -4.581277 -2.294778 0
M  V30 37 H -1.388846 -2.917057 -0.309287 0
M  V30 38 H -0.621756 -1.637026 2.076717 0
M  V30 39 H 0.840502 0.346946 2.340979 0
M  V30 40 H 3.569213 1.159929 0.000763 0
M  V30 41 H 4.444140 1.108094 2.605387 0
M  V30 42 H 4.423874 2.584555 4.485855 0
M  V30 43 H 0.941702 5.460612 4.019609 0
M  V30 44 H -1.804522 5.412926 0.454510 0
M  V30 45 H -1.910030 4.138974 -1.607209 0
M  V30 46 H -0.398465 2.360442 -2.142415 0
M  V30 47 H 1.317967 1.886289 -0.587762 0
M  V30 48 H 2.839314 -0.705736 -1.300401 0
M  V30 49 H 1.338425 -2.705101 -1.532793 0
M  V30 50 H -2.794813 -5.025057 2.208385 0
M  V30 51 H -4.931835 -6.174248 1.529019 0
M  V30 52 H -3.347865 -7.021354 -2.292487 0
M  V30 END ATOM
M  V30 BEGIN BOND
M  V30 1 2 1 2
M  V30 2 1 2 3
M  V30 3 1 3 4
M  V30 4 2 4 5
M  V30 5 1 5 6
M  V30 6 2 6 7
M  V30 7 1 7 8
M  V30 8 1 8 9
M  V30 9 2 9 10
M  V30 10 1 10 11
M  V30 11 2 11 12
M  V30 12 1 12 13
M  V30 13 1 13 14
M  V30 14 1 14 15
M  V30 15 2 15 16
M  V30 16 1 15 17
M  V30 17 2 17 18
M  V30 18 1 18 19
M  V30 19 2 19 20
M  V30 20 1 20 21
M  V30 21 2 21 22
M  V30 22 1 22 23
M  V30 23 1 7 24
M  V30 24 2 24 25
M  V30 25 1 2 26
M  V30 26 2 26 27
M  V30 27 1 27 28
M  V30 28 2 28 29
M  V30 29 1 29 30
M  V30 30 1 29 31
M  V30 31 2 31 32
M  V30 32 1 32 33
M  V30 33 1 33 34
M  V30 34 1 33 35
M  V30 35 1 33 36
M  V30 36 1 25 4
M  V30 37 1 32 26
M  V30 38 1 23 9
M  V30 39 2 23 13
M  V30 40 1 22 17
M  V30 41 1 3 37
M  V30 42 1 5 38
M  V30 43 1 6 39
M  V30 44 1 8 40
M  V30 45 1 10 41
M  V30 46 1 11 42
M  V30 47 1 14 43
M  V30 48 1 18 44
M  V30 49 1 19 45
M  V30 50 1 20 46
M  V30 51 1 21 47
M  V30 52 1 24 48
M  V30 53 1 25 49
M  V30 54 1 27 50
M  V30 55 1 28 51
M  V30 56 1 31 52
M  V30 END BOND
M  V30 END CTAB
M  END
>  <Dataset>  (745) 
ChEMBL_Kinases

>  <Ligand_Instance>  (745) 
nan

>  <PDB_ID>  (745) 
nan

>  <Standardized_SMILES>  (745) 
O=C(Nc1ccc(Nc2ccnc3[nH]c(=O)c4ccccc4c23)cc1)c1ccc(F)cc1C(F)(F)F

>  <Name>  (745) 
nan

>  <Pocket>  (745) 
nan

>  <ATP_Site>  (745) 
nan

>  <Peripheral>  (745) 
nan

>  <Num_H_Atoms_ProtBoundConf>  (745) 
nan

>  <Num_Resolved_Atoms>  (745) 
nan

>  <Num_Not_Resolved_Atoms>  (745) 
nan

$$$$
CHEMBL203225
     RDKit          3D

  0  0  0  0  0  0  0  0  0  0999 V3000
M  V30 BEGIN CTAB
M  V30 COUNTS 56 59 0 0 0
M  V30 BEGIN ATOM
M  V30 1 C 1.621233 -2.047480 3.871162 0
M  V30 2 C 1.923130 -1.913947 2.400867 0
M  V30 3 O 0.972621 -2.016235 1.554528 0
M  V30 4 N 3.320325 -1.680126 2.215759 0
M  V30 5 C 4.386454 -1.575197 3.222978 0
M  V30 6 C 5.076244 -0.268798 2.949007 0
M  V30 7 C 4.176788 0.590885 2.088896 0
M  V30 8 C 4.174609 0.005858 0.679384 0
M  V30 9 C 3.032291 0.483396 -0.140133 0
M  V30 10 O 2.212143 -0.320863 -0.711179 0
M  V30 11 N 2.625519 1.823575 -0.447638 0
M  V30 12 C 1.468229 1.652263 -1.262799 0
M  V30 13 C 0.293993 1.495469 -0.510694 0
M  V30 14 C -0.897888 1.326654 -1.133406 0
M  V30 15 C -2.146561 1.134940 -0.389861 0
M  V30 16 C -2.396630 1.691532 0.845651 0
M  V30 17 C -3.642274 1.396069 1.412831 0
M  V30 18 N -4.535413 0.613214 0.779475 0
M  V30 19 C -4.310598 0.064422 -0.420541 0
M  V30 20 N -5.239171 -0.780068 -1.113427 0
M  V30 21 C -5.057124 -2.197983 -1.047075 0
M  V30 22 C -5.945897 -3.126274 -1.589239 0
M  V30 23 C -5.663902 -4.494986 -1.481395 0
M  V30 24 C -4.540460 -4.973886 -0.858889 0
M  V30 25 C -3.651054 -4.074760 -0.316942 0
M  V30 26 C -3.932767 -2.727395 -0.426052 0
M  V30 27 C -3.088033 0.337969 -1.007161 0
M  V30 28 C -0.912176 1.315328 -2.533997 0
M  V30 29 C 0.265379 1.472602 -3.276642 0
M  V30 30 N 1.422010 1.636693 -2.605024 0
M  V30 31 C 3.896511 -1.493277 0.899562 0
M  V30 32 H 0.533900 -2.236772 3.986139 0
M  V30 33 H 1.909501 -1.141542 4.420848 0
M  V30 34 H 2.153376 -2.940315 4.287626 0
M  V30 35 H 5.106540 -2.391395 3.045514 0
M  V30 36 H 3.957172 -1.558948 4.241919 0
M  V30 37 H 6.010848 -0.396169 2.358632 0
M  V30 38 H 5.273125 0.237488 3.902300 0
M  V30 39 H 4.502287 1.642648 2.117633 0
M  V30 40 H 3.112638 0.570410 2.426433 0
M  V30 41 H 5.147108 0.118296 0.194501 0
M  V30 42 H 3.251127 2.572040 -0.020027 0
M  V30 43 H 0.251473 1.497266 0.575482 0
M  V30 44 H -1.636489 2.310631 1.296599 0
M  V30 45 H -3.853775 1.829523 2.392414 0
M  V30 46 H -6.041385 -0.414354 -1.661262 0
M  V30 47 H -6.833110 -2.746298 -2.080761 0
M  V30 48 H -6.362760 -5.178511 -1.907637 0
M  V30 49 H -4.308601 -6.026863 -0.769919 0
M  V30 50 H -2.761813 -4.426769 0.174676 0
M  V30 51 H -3.209395 -2.058851 0.010317 0
M  V30 52 H -2.902468 -0.108564 -1.984682 0
M  V30 53 H -1.805960 1.189457 -3.103497 0
M  V30 54 H 0.223423 1.458847 -4.354444 0
M  V30 55 H 3.176250 -1.886651 0.147343 0
M  V30 56 H 4.822963 -2.070064 0.778689 0
M  V30 END ATOM
M  V30 BEGIN BOND
M  V30 1 1 1 2
M  V30 2 2 2 3
M  V30 3 1 2 4
M  V30 4 1 4 5
M  V30 5 1 5 6
M  V30 6 1 6 7
M  V30 7 1 7 8
M  V30 8 1 8 9
M  V30 9 2 9 10
M  V30 10 1 9 11
M  V30 11 1 11 12
M  V30 12 2 12 13
M  V30 13 1 13 14
M  V30 14 1 14 15
M  V30 15 2 15 16
M  V30 16 1 16 17
M  V30 17 2 17 18
M  V30 18 1 18 19
M  V30 19 1 19 20
M  V30 20 1 20 21
M  V30 21 2 21 22
M  V30 22 1 22 23
M  V30 23 2 23 24
M  V30 24 1 24 25
M  V30 25 2 25 26
M  V30 26 2 19 27
M  V30 27 2 14 28
M  V30 28 1 28 29
M  V30 29 2 29 30
M  V30 30 1 8 31
M  V30 31 1 31 4
M  V30 32 1 30 12
M  V30 33 1 27 15
M  V30 34 1 26 21
M  V30 35 1 1 32
M  V30 36 1 1 33
M  V30 37 1 1 34
M  V30 38 1 5 35
M  V30 39 1 5 36
M  V30 40 1 6 37
M  V30 41 1 6 38
M  V30 42 1 7 39
M  V30 43 1 7 40
M  V30 44 1 8 41
M  V30 45 1 11 42
M  V30 46 1 13 43
M  V30 47 1 16 44
M  V30 48 1 17 45
M  V30 49 1 20 46
M  V30 50 1 22 47
M  V30 51 1 23 48
M  V30 52 1 24 49
M  V30 53 1 25 50
M  V30 54 1 26 51
M  V30 55 1 27 52
M  V30 56 1 28 53
M  V30 57 1 29 54
M  V30 58 1 31 55
M  V30 59 1 31 56
M  V30 END BOND
M  V30 END CTAB
M  END
>  <Dataset>  (746) 
ChEMBL_Kinases

>  <Ligand_Instance>  (746) 
nan

>  <PDB_ID>  (746) 
nan

>  <Standardized_SMILES>  (746) 
CC(=O)N1CCCC(C(=O)Nc2cc(-c3ccnc(Nc4ccccc4)c3)ccn2)C1

>  <Name>  (746) 
nan

>  <Pocket>  (746) 
nan

>  <ATP_Site>  (746) 
nan

>  <Peripheral>  (746) 
nan

>  <Num_H_Atoms_ProtBoundConf>  (746) 
nan

>  <Num_Resolved_Atoms>  (746) 
nan

>  <Num_Not_Resolved_Atoms>  (746) 
nan

$$$$
CHEMBL2376930
     RDKit          3D

  0  0  0  0  0  0  0  0  0  0999 V3000
M  V30 BEGIN CTAB
M  V30 COUNTS 59 63 0 0 0
M  V30 BEGIN ATOM
M  V30 1 O 1.349030 1.767017 5.291667 0
M  V30 2 C 1.168438 1.499890 4.048624 0
M  V30 3 N 2.308300 1.031539 3.328188 0
M  V30 4 C 3.374163 1.001925 4.280064 0
M  V30 5 C 4.629412 0.506788 3.634238 0
M  V30 6 N 4.633681 -0.795918 3.112673 0
M  V30 7 C 5.888907 -1.195361 2.538779 0
M  V30 8 C 5.804842 -1.962440 1.280187 0
M  V30 9 O 4.683259 -2.682591 1.024526 0
M  V30 10 C 3.823403 -2.775988 2.091488 0
M  V30 11 C 3.495145 -1.330662 2.483460 0
M  V30 12 C -0.209169 1.721406 3.549703 0
M  V30 13 C -1.137773 2.184296 4.440971 0
M  V30 14 C -2.427544 2.390178 3.970788 0
M  V30 15 N -2.808577 2.158267 2.687775 0
M  V30 16 C -1.890628 1.706095 1.827952 0
M  V30 17 N -2.226696 1.442633 0.467040 0
M  V30 18 N -2.298712 2.362313 -0.478715 0
M  V30 19 C -2.642177 1.781798 -1.661943 0
M  V30 20 C -2.777057 0.419544 -1.366749 0
M  V30 21 C -3.111984 -0.639997 -2.189992 0
M  V30 22 C -3.160473 -1.876720 -1.583624 0
M  V30 23 N -3.493970 -3.020807 -2.357359 0
M  V30 24 C -3.756382 -3.226555 -3.737274 0
M  V30 25 C -4.931637 -3.707533 -4.281322 0
M  V30 26 C -5.074370 -3.871684 -5.649455 0
M  V30 27 C -4.039980 -3.555407 -6.488901 0
M  V30 28 C -2.857125 -3.072634 -5.956852 0
M  V30 29 C -2.703499 -2.904232 -4.585317 0
M  V30 30 Cl -1.130322 -2.288343 -4.134680 0
M  V30 31 C -2.907578 -2.134102 -0.253271 0
M  V30 32 C -2.576513 -1.054537 0.539107 0
M  V30 33 C -2.512746 0.223042 -0.025189 0
M  V30 34 C -0.600636 1.493647 2.272546 0
M  V30 35 H 1.963081 0.878533 2.354864 0
M  V30 36 H 3.519922 2.031343 4.717226 0
M  V30 37 H 3.165351 0.329635 5.141159 0
M  V30 38 H 5.474014 0.551974 4.395977 0
M  V30 39 H 4.996533 1.258246 2.859515 0
M  V30 40 H 6.472795 -0.268976 2.356400 0
M  V30 41 H 6.465513 -1.750179 3.336484 0
M  V30 42 H 6.021326 -1.329225 0.373185 0
M  V30 43 H 6.664140 -2.696609 1.288582 0
M  V30 44 H 4.354760 -3.213627 2.941448 0
M  V30 45 H 2.901770 -3.320276 1.818878 0
M  V30 46 H 2.558581 -1.312440 3.053098 0
M  V30 47 H 3.305465 -0.829974 1.500763 0
M  V30 48 H -0.942340 2.401438 5.482467 0
M  V30 49 H -3.210550 2.754390 4.620536 0
M  V30 50 H -2.791957 2.220183 -2.641084 0
M  V30 51 H -3.314255 -0.460455 -3.228377 0
M  V30 52 H -3.610076 -3.987674 -1.994922 0
M  V30 53 H -5.697828 -3.932260 -3.539869 0
M  V30 54 H -6.007198 -4.248711 -6.022686 0
M  V30 55 H -4.202731 -3.702245 -7.551413 0
M  V30 56 H -2.099762 -2.851252 -6.696503 0
M  V30 57 H -2.958009 -3.116478 0.174583 0
M  V30 58 H -2.357638 -1.142811 1.600549 0
M  V30 59 H 0.114931 1.127649 1.549553 0
M  V30 END ATOM
M  V30 BEGIN BOND
M  V30 1 2 1 2
M  V30 2 1 2 3
M  V30 3 1 3 4
M  V30 4 1 4 5
M  V30 5 1 5 6
M  V30 6 1 6 7
M  V30 7 1 7 8
M  V30 8 1 8 9
M  V30 9 1 9 10
M  V30 10 1 10 11
M  V30 11 1 2 12
M  V30 12 2 12 13
M  V30 13 1 13 14
M  V30 14 2 14 15
M  V30 15 1 15 16
M  V30 16 1 16 17
M  V30 17 1 17 18
M  V30 18 2 18 19
M  V30 19 1 19 20
M  V30 20 2 20 21
M  V30 21 1 21 22
M  V30 22 1 22 23
M  V30 23 1 23 24
M  V30 24 2 24 25
M  V30 25 1 25 26
M  V30 26 2 26 27
M  V30 27 1 27 28
M  V30 28 2 28 29
M  V30 29 1 29 30
M  V30 30 2 22 31
M  V30 31 1 31 32
M  V30 32 2 32 33
M  V30 33 2 16 34
M  V30 34 1 11 6
M  V30 35 1 34 12
M  V30 36 1 33 17
M  V30 37 1 33 20
M  V30 38 1 29 24
M  V30 39 1 3 35
M  V30 40 1 4 36
M  V30 41 1 4 37
M  V30 42 1 5 38
M  V30 43 1 5 39
M  V30 44 1 7 40
M  V30 45 1 7 41
M  V30 46 1 8 42
M  V30 47 1 8 43
M  V30 48 1 10 44
M  V30 49 1 10 45
M  V30 50 1 11 46
M  V30 51 1 11 47
M  V30 52 1 13 48
M  V30 53 1 14 49
M  V30 54 1 19 50
M  V30 55 1 21 51
M  V30 56 1 23 52
M  V30 57 1 25 53
M  V30 58 1 26 54
M  V30 59 1 27 55
M  V30 60 1 28 56
M  V30 61 1 31 57
M  V30 62 1 32 58
M  V30 63 1 34 59
M  V30 END BOND
M  V30 END CTAB
M  END
>  <Dataset>  (747) 
ChEMBL_Kinases

>  <Ligand_Instance>  (747) 
nan

>  <PDB_ID>  (747) 
nan

>  <Standardized_SMILES>  (747) 
O=C(NCCN1CCOCC1)c1ccnc(-n2ncc3cc(Nc4ccccc4Cl)ccc32)c1

>  <Name>  (747) 
nan

>  <Pocket>  (747) 
nan

>  <ATP_Site>  (747) 
nan

>  <Peripheral>  (747) 
nan

>  <Num_H_Atoms_ProtBoundConf>  (747) 
nan

>  <Num_Resolved_Atoms>  (747) 
nan

>  <Num_Not_Resolved_Atoms>  (747) 
nan

$$$$
CHEMBL203407
     RDKit          3D

  0  0  0  0  0  0  0  0  0  0999 V3000
M  V30 BEGIN CTAB
M  V30 COUNTS 47 50 0 0 0
M  V30 BEGIN ATOM
M  V30 1 N 3.976388 -5.944840 -1.377322 0
M  V30 2 S 2.364154 -6.544581 -1.119023 0
M  V30 3 O 2.236418 -7.215950 0.205786 0
M  V30 4 O 2.114913 -7.534673 -2.227364 0
M  V30 5 C 1.215964 -5.225695 -1.175922 0
M  V30 6 C 0.629231 -4.865400 -2.370316 0
M  V30 7 C -0.257891 -3.818289 -2.329532 0
M  V30 8 C -0.623882 -3.092824 -1.234441 0
M  V30 9 N -1.555202 -2.031765 -1.239465 0
M  V30 10 C -1.651875 -0.812391 -0.534198 0
M  V30 11 C -0.712027 -0.306403 0.306751 0
M  V30 12 C -0.807268 0.889718 1.017033 0
M  V30 13 O 0.210841 1.324857 1.857474 0
M  V30 14 C -0.012455 2.574785 2.525634 0
M  V30 15 C 1.079949 3.480673 2.089184 0
M  V30 16 C 1.734384 4.303882 3.151787 0
M  V30 17 C 1.853189 3.575530 4.468679 0
M  V30 18 C 0.418338 3.341336 4.898802 0
M  V30 19 C -0.136230 2.296938 3.967806 0
M  V30 20 N -1.964291 1.591039 0.825415 0
M  V30 21 C -2.907110 1.081974 -0.020225 0
M  V30 22 N -4.106479 1.592122 -0.360129 0
M  V30 23 C -4.691433 0.742460 -1.226616 0
M  V30 24 N -3.857146 -0.291179 -1.423067 0
M  V30 25 N -2.771072 -0.078908 -0.685080 0
M  V30 26 C -0.004077 -3.498012 -0.057740 0
M  V30 27 C 0.895042 -4.541820 -0.035126 0
M  V30 28 H 4.585375 -6.381237 -0.635114 0
M  V30 29 H 4.030818 -4.926104 -1.247317 0
M  V30 30 H 0.841467 -5.368434 -3.310194 0
M  V30 31 H -0.717703 -3.543179 -3.286736 0
M  V30 32 H -2.304728 -2.280423 -1.939808 0
M  V30 33 H 0.204921 -0.819611 0.468376 0
M  V30 34 H -1.017208 2.902302 2.148446 0
M  V30 35 H 0.674168 4.173510 1.323183 0
M  V30 36 H 1.913598 2.943169 1.554614 0
M  V30 37 H 2.740127 4.594959 2.837825 0
M  V30 38 H 1.173409 5.235871 3.352228 0
M  V30 39 H 2.354884 2.587037 4.348154 0
M  V30 40 H 2.381343 4.238298 5.174769 0
M  V30 41 H -0.145192 4.294931 4.892735 0
M  V30 42 H 0.485492 2.891143 5.907662 0
M  V30 43 H -1.203237 2.140899 4.256077 0
M  V30 44 H 0.390975 1.359550 4.222177 0
M  V30 45 H -5.685981 0.949279 -1.646057 0
M  V30 46 H -0.173971 -3.059191 0.911140 0
M  V30 47 H 1.391154 -4.869622 0.890649 0
M  V30 END ATOM
M  V30 BEGIN BOND
M  V30 1 1 1 2
M  V30 2 2 2 3
M  V30 3 2 2 4
M  V30 4 1 2 5
M  V30 5 2 5 6
M  V30 6 1 6 7
M  V30 7 2 7 8
M  V30 8 1 8 9
M  V30 9 1 9 10
M  V30 10 2 10 11
M  V30 11 1 11 12
M  V30 12 1 12 13
M  V30 13 1 13 14
M  V30 14 1 14 15
M  V30 15 1 15 16
M  V30 16 1 16 17
M  V30 17 1 17 18
M  V30 18 1 18 19
M  V30 19 2 12 20
M  V30 20 1 20 21
M  V30 21 2 21 22
M  V30 22 1 22 23
M  V30 23 2 23 24
M  V30 24 1 24 25
M  V30 25 1 8 26
M  V30 26 2 26 27
M  V30 27 1 27 5
M  V30 28 1 25 10
M  V30 29 1 19 14
M  V30 30 1 25 21
M  V30 31 1 1 28
M  V30 32 1 1 29
M  V30 33 1 6 30
M  V30 34 1 7 31
M  V30 35 1 9 32
M  V30 36 1 11 33
M  V30 37 1 14 34
M  V30 38 1 15 35
M  V30 39 1 15 36
M  V30 40 1 16 37
M  V30 41 1 16 38
M  V30 42 1 17 39
M  V30 43 1 17 40
M  V30 44 1 18 41
M  V30 45 1 18 42
M  V30 46 1 19 43
M  V30 47 1 19 44
M  V30 48 1 23 45
M  V30 49 1 26 46
M  V30 50 1 27 47
M  V30 END BOND
M  V30 END CTAB
M  END
>  <Dataset>  (748) 
ChEMBL_Kinases

>  <Ligand_Instance>  (748) 
nan

>  <PDB_ID>  (748) 
nan

>  <Standardized_SMILES>  (748) 
NS(=O)(=O)c1ccc(Nc2cc(OC3CCCCC3)nc3ncnn23)cc1

>  <Name>  (748) 
nan

>  <Pocket>  (748) 
nan

>  <ATP_Site>  (748) 
nan

>  <Peripheral>  (748) 
nan

>  <Num_H_Atoms_ProtBoundConf>  (748) 
nan

>  <Num_Resolved_Atoms>  (748) 
nan

>  <Num_Not_Resolved_Atoms>  (748) 
nan

$$$$
CHEMBL2376915
     RDKit          3D

  0  0  0  0  0  0  0  0  0  0999 V3000
M  V30 BEGIN CTAB
M  V30 COUNTS 60 64 0 0 0
M  V30 BEGIN ATOM
M  V30 1 O 1.679628 -1.069458 0.185625 0
M  V30 2 C 1.608669 0.172366 0.433015 0
M  V30 3 N 2.737008 0.670213 1.123160 0
M  V30 4 C 3.827227 -0.233190 1.473969 0
M  V30 5 C 4.869664 0.585533 2.198884 0
M  V30 6 N 5.369741 1.645539 1.381192 0
M  V30 7 C 6.163005 1.208078 0.251299 0
M  V30 8 C 6.322539 2.436190 -0.649531 0
M  V30 9 O 7.099016 3.352026 0.056139 0
M  V30 10 C 6.460168 3.760701 1.200356 0
M  V30 11 C 6.165529 2.602658 2.126539 0
M  V30 12 C 0.466073 0.994861 0.037598 0
M  V30 13 C 0.338214 2.339125 0.260350 0
M  V30 14 C -0.778904 3.036882 -0.145859 0
M  V30 15 C -1.830676 2.403750 -0.802948 0
M  V30 16 C -1.719226 1.050888 -1.035623 0
M  V30 17 N -2.726133 0.260106 -1.701743 0
M  V30 18 N -3.254144 0.383941 -2.921990 0
M  V30 19 C -4.166721 -0.582041 -3.120386 0
M  V30 20 C -4.170140 -1.310856 -1.947115 0
M  V30 21 C -4.912464 -2.414493 -1.595944 0
M  V30 22 C -4.801943 -3.052284 -0.351967 0
M  V30 23 N -5.586501 -4.175412 -0.003558 0
M  V30 24 C -5.350569 -5.346723 0.750127 0
M  V30 25 C -4.175459 -5.729326 1.344831 0
M  V30 26 C -4.000448 -6.875601 2.084503 0
M  V30 27 C -5.069701 -7.704273 2.246162 0
M  V30 28 C -6.260846 -7.363392 1.670748 0
M  V30 29 C -6.402277 -6.209631 0.937349 0
M  V30 30 Cl -7.991199 -5.890110 0.249737 0
M  V30 31 C -3.878013 -2.467143 0.487853 0
M  V30 32 C -3.104115 -1.363241 0.196340 0
M  V30 33 C -3.266033 -0.788757 -1.046442 0
M  V30 34 C -0.574000 0.364573 -0.613131 0
M  V30 35 H 2.747566 1.702078 1.364680 0
M  V30 36 H 4.284025 -0.719950 0.590204 0
M  V30 37 H 3.461454 -1.065830 2.115799 0
M  V30 38 H 5.721384 -0.097082 2.465376 0
M  V30 39 H 4.459645 1.030832 3.126680 0
M  V30 40 H 7.205283 1.029545 0.649358 0
M  V30 41 H 5.766194 0.353949 -0.292697 0
M  V30 42 H 6.837329 2.146896 -1.590441 0
M  V30 43 H 5.325164 2.822592 -0.921622 0
M  V30 44 H 5.512954 4.274810 0.959612 0
M  V30 45 H 7.136478 4.458359 1.746799 0
M  V30 46 H 5.625516 2.968172 3.018670 0
M  V30 47 H 7.136931 2.152650 2.428179 0
M  V30 48 H 1.161685 2.841650 0.775938 0
M  V30 49 H -0.869150 4.099409 0.035244 0
M  V30 50 H -2.721274 2.907120 -1.138086 0
M  V30 51 H -4.753947 -0.725742 -4.021373 0
M  V30 52 H -5.630961 -2.824557 -2.319180 0
M  V30 53 H -6.546661 -4.045641 -0.427186 0
M  V30 54 H -3.311706 -5.104913 1.226587 0
M  V30 55 H -3.018549 -7.101390 2.525719 0
M  V30 56 H -4.963738 -8.617737 2.825450 0
M  V30 57 H -7.108110 -8.034659 1.807728 0
M  V30 58 H -3.696300 -2.839925 1.484459 0
M  V30 59 H -2.387306 -0.929376 0.878824 0
M  V30 60 H -0.504200 -0.717724 -0.809388 0
M  V30 END ATOM
M  V30 BEGIN BOND
M  V30 1 2 1 2
M  V30 2 1 2 3
M  V30 3 1 3 4
M  V30 4 1 4 5
M  V30 5 1 5 6
M  V30 6 1 6 7
M  V30 7 1 7 8
M  V30 8 1 8 9
M  V30 9 1 9 10
M  V30 10 1 10 11
M  V30 11 1 2 12
M  V30 12 2 12 13
M  V30 13 1 13 14
M  V30 14 2 14 15
M  V30 15 1 15 16
M  V30 16 1 16 17
M  V30 17 1 17 18
M  V30 18 2 18 19
M  V30 19 1 19 20
M  V30 20 2 20 21
M  V30 21 1 21 22
M  V30 22 1 22 23
M  V30 23 1 23 24
M  V30 24 2 24 25
M  V30 25 1 25 26
M  V30 26 2 26 27
M  V30 27 1 27 28
M  V30 28 2 28 29
M  V30 29 1 29 30
M  V30 30 2 22 31
M  V30 31 1 31 32
M  V30 32 2 32 33
M  V30 33 2 16 34
M  V30 34 1 11 6
M  V30 35 1 34 12
M  V30 36 1 33 17
M  V30 37 1 33 20
M  V30 38 1 29 24
M  V30 39 1 3 35
M  V30 40 1 4 36
M  V30 41 1 4 37
M  V30 42 1 5 38
M  V30 43 1 5 39
M  V30 44 1 7 40
M  V30 45 1 7 41
M  V30 46 1 8 42
M  V30 47 1 8 43
M  V30 48 1 10 44
M  V30 49 1 10 45
M  V30 50 1 11 46
M  V30 51 1 11 47
M  V30 52 1 13 48
M  V30 53 1 14 49
M  V30 54 1 15 50
M  V30 55 1 19 51
M  V30 56 1 21 52
M  V30 57 1 23 53
M  V30 58 1 25 54
M  V30 59 1 26 55
M  V30 60 1 27 56
M  V30 61 1 28 57
M  V30 62 1 31 58
M  V30 63 1 32 59
M  V30 64 1 34 60
M  V30 END BOND
M  V30 END CTAB
M  END
>  <Dataset>  (749) 
ChEMBL_Kinases

>  <Ligand_Instance>  (749) 
nan

>  <PDB_ID>  (749) 
nan

>  <Standardized_SMILES>  (749) 
O=C(NCCN1CCOCC1)c1cccc(-n2ncc3cc(Nc4ccccc4Cl)ccc32)c1

>  <Name>  (749) 
nan

>  <Pocket>  (749) 
nan

>  <ATP_Site>  (749) 
nan

>  <Peripheral>  (749) 
nan

>  <Num_H_Atoms_ProtBoundConf>  (749) 
nan

>  <Num_Resolved_Atoms>  (749) 
nan

>  <Num_Not_Resolved_Atoms>  (749) 
nan

$$$$
CHEMBL203535
     RDKit          3D

  0  0  0  0  0  0  0  0  0  0999 V3000
M  V30 BEGIN CTAB
M  V30 COUNTS 47 50 0 0 0
M  V30 BEGIN ATOM
M  V30 1 O -1.692312 -2.935346 2.922085 0
M  V30 2 C -1.050480 -4.040014 2.826718 0
M  V30 3 N 0.357373 -3.699261 2.800233 0
M  V30 4 C 0.535090 -2.287185 2.881169 0
M  V30 5 C 0.567188 -1.789249 1.570651 0
M  V30 6 C 0.715947 -0.450711 1.282350 0
M  V30 7 C 0.759139 0.131659 -0.059680 0
M  V30 8 C 1.330439 -0.594257 -1.075099 0
M  V30 9 C 1.316647 0.009035 -2.328209 0
M  V30 10 N 0.792759 1.228531 -2.608762 0
M  V30 11 C 0.229706 1.951432 -1.629577 0
M  V30 12 N -0.404434 3.233920 -1.485328 0
M  V30 13 C 0.456712 4.188156 -0.855111 0
M  V30 14 C -0.047728 5.364926 -0.283999 0
M  V30 15 C 0.755914 6.297505 0.330242 0
M  V30 16 C 2.114440 6.090867 0.399228 0
M  V30 17 C 2.675819 4.941015 -0.150023 0
M  V30 18 C 1.825497 4.032366 -0.755815 0
M  V30 19 C 0.214573 1.392374 -0.336131 0
M  V30 20 C 0.843759 0.483721 2.297101 0
M  V30 21 C 0.806335 -0.062338 3.578718 0
M  V30 22 N 0.662668 -1.354964 3.878329 0
M  V30 23 C -1.389812 -5.509954 2.740245 0
M  V30 24 C -0.871221 -6.058580 1.406727 0
M  V30 25 C -1.998512 -5.686853 0.442767 0
M  V30 26 O -3.124005 -5.968755 1.229219 0
M  V30 27 C -2.868448 -5.643000 2.531367 0
M  V30 28 H 1.121273 -4.416034 2.732126 0
M  V30 29 H 0.484854 -2.335906 0.636478 0
M  V30 30 H 1.770879 -1.568468 -0.945362 0
M  V30 31 H 1.735440 -0.445737 -3.206353 0
M  V30 32 H -1.368957 3.462946 -1.796189 0
M  V30 33 H -1.138253 5.446766 -0.382137 0
M  V30 34 H 0.305053 7.181728 0.751890 0
M  V30 35 H 2.793712 6.774587 0.858205 0
M  V30 36 H 3.722737 4.687064 -0.152764 0
M  V30 37 H 2.240143 3.124882 -1.195995 0
M  V30 38 H -0.198564 1.824969 0.585876 0
M  V30 39 H 0.964330 1.544544 2.256008 0
M  V30 40 H 0.894777 0.524860 4.486397 0
M  V30 41 H -0.998282 -6.084616 3.577192 0
M  V30 42 H 0.097887 -5.664492 1.117377 0
M  V30 43 H -0.802220 -7.161134 1.483468 0
M  V30 44 H -1.906292 -4.602911 0.205148 0
M  V30 45 H -1.985768 -6.346429 -0.420668 0
M  V30 46 H -3.393368 -4.688979 2.814147 0
M  V30 47 H -3.262348 -6.466949 3.167334 0
M  V30 END ATOM
M  V30 BEGIN BOND
M  V30 1 2 1 2
M  V30 2 1 2 3
M  V30 3 1 3 4
M  V30 4 2 4 5
M  V30 5 1 5 6
M  V30 6 1 6 7
M  V30 7 2 7 8
M  V30 8 1 8 9
M  V30 9 2 9 10
M  V30 10 1 10 11
M  V30 11 1 11 12
M  V30 12 1 12 13
M  V30 13 2 13 14
M  V30 14 1 14 15
M  V30 15 2 15 16
M  V30 16 1 16 17
M  V30 17 2 17 18
M  V30 18 2 11 19
M  V30 19 2 6 20
M  V30 20 1 20 21
M  V30 21 2 21 22
M  V30 22 1 2 23
M  V30 23 1 23 24
M  V30 24 1 24 25
M  V30 25 1 25 26
M  V30 26 1 26 27
M  V30 27 1 22 4
M  V30 28 1 27 23
M  V30 29 1 19 7
M  V30 30 1 18 13
M  V30 31 1 3 28
M  V30 32 1 5 29
M  V30 33 1 8 30
M  V30 34 1 9 31
M  V30 35 1 12 32
M  V30 36 1 14 33
M  V30 37 1 15 34
M  V30 38 1 16 35
M  V30 39 1 17 36
M  V30 40 1 18 37
M  V30 41 1 19 38
M  V30 42 1 20 39
M  V30 43 1 21 40
M  V30 44 1 23 41
M  V30 45 1 24 42
M  V30 46 1 24 43
M  V30 47 1 25 44
M  V30 48 1 25 45
M  V30 49 1 27 46
M  V30 50 1 27 47
M  V30 END BOND
M  V30 END CTAB
M  END
>  <Dataset>  (750) 
ChEMBL_Kinases

>  <Ligand_Instance>  (750) 
nan

>  <PDB_ID>  (750) 
nan

>  <Standardized_SMILES>  (750) 
O=C(Nc1cc(-c2ccnc(Nc3ccccc3)c2)ccn1)C1CCOC1

>  <Name>  (750) 
nan

>  <Pocket>  (750) 
nan

>  <ATP_Site>  (750) 
nan

>  <Peripheral>  (750) 
nan

>  <Num_H_Atoms_ProtBoundConf>  (750) 
nan

>  <Num_Resolved_Atoms>  (750) 
nan

>  <Num_Not_Resolved_Atoms>  (750) 
nan

$$$$
CHEMBL2035597
     RDKit          3D

  0  0  0  0  0  0  0  0  0  0999 V3000
M  V30 BEGIN CTAB
M  V30 COUNTS 30 33 0 0 0
M  V30 BEGIN ATOM
M  V30 1 O 1.679093 -0.191844 4.238292 0
M  V30 2 C 1.219285 -0.350254 3.091063 0
M  V30 3 N 2.012652 -0.663448 2.050631 0
M  V30 4 C 1.563051 -0.843746 0.798072 0
M  V30 5 C 2.406561 -1.183020 -0.340528 0
M  V30 6 C 3.767797 -1.349848 -0.217898 0
M  V30 7 C 4.607991 -1.675445 -1.288479 0
M  V30 8 C 3.983082 -1.829366 -2.531628 0
M  V30 9 C 2.620996 -1.666988 -2.677783 0
M  V30 10 C 1.821109 -1.341384 -1.578095 0
M  V30 11 Cl 0.119100 -1.156569 -1.853829 0
M  V30 12 N 0.236356 -0.686645 0.650186 0
M  V30 13 C -0.621486 -0.378465 1.618304 0
M  V30 14 C -0.138090 -0.197623 2.898036 0
M  V30 15 O -1.146081 0.093595 3.670534 0
M  V30 16 C -2.265981 0.121609 3.007135 0
M  V30 17 C -3.582234 0.375460 3.364924 0
M  V30 18 C -4.551882 0.323389 2.397535 0
M  V30 19 C -4.264101 0.023805 1.062575 0
M  V30 20 C -2.956822 -0.233332 0.681399 0
M  V30 21 C -1.985356 -0.175604 1.679225 0
M  V30 22 H 3.025322 -0.767696 2.244191 0
M  V30 23 H 4.271246 -1.239805 0.711723 0
M  V30 24 H 5.675193 -1.798724 -1.153658 0
M  V30 25 H 4.638580 -2.084544 -3.372822 0
M  V30 26 H 2.172072 -1.792272 -3.646574 0
M  V30 27 H -3.756411 0.598891 4.389703 0
M  V30 28 H -5.578008 0.525318 2.697211 0
M  V30 29 H -5.074370 -0.004598 0.332005 0
M  V30 30 H -2.695790 -0.467987 -0.338547 0
M  V30 END ATOM
M  V30 BEGIN BOND
M  V30 1 2 1 2
M  V30 2 1 2 3
M  V30 3 1 3 4
M  V30 4 1 4 5
M  V30 5 2 5 6
M  V30 6 1 6 7
M  V30 7 2 7 8
M  V30 8 1 8 9
M  V30 9 2 9 10
M  V30 10 1 10 11
M  V30 11 2 4 12
M  V30 12 1 12 13
M  V30 13 2 13 14
M  V30 14 1 14 15
M  V30 15 1 15 16
M  V30 16 2 16 17
M  V30 17 1 17 18
M  V30 18 2 18 19
M  V30 19 1 19 20
M  V30 20 2 20 21
M  V30 21 1 14 2
M  V30 22 1 21 16
M  V30 23 1 10 5
M  V30 24 1 21 13
M  V30 25 1 3 22
M  V30 26 1 6 23
M  V30 27 1 7 24
M  V30 28 1 8 25
M  V30 29 1 9 26
M  V30 30 1 17 27
M  V30 31 1 18 28
M  V30 32 1 19 29
M  V30 33 1 20 30
M  V30 END BOND
M  V30 END CTAB
M  END
>  <Dataset>  (751) 
ChEMBL_Kinases

>  <Ligand_Instance>  (751) 
nan

>  <PDB_ID>  (751) 
nan

>  <Standardized_SMILES>  (751) 
O=c1[nH]c(-c2ccccc2Cl)nc2c1oc1ccccc12

>  <Name>  (751) 
nan

>  <Pocket>  (751) 
nan

>  <ATP_Site>  (751) 
nan

>  <Peripheral>  (751) 
nan

>  <Num_H_Atoms_ProtBoundConf>  (751) 
nan

>  <Num_Resolved_Atoms>  (751) 
nan

>  <Num_Not_Resolved_Atoms>  (751) 
nan

$$$$
CHEMBL2035598
     RDKit          3D

  0  0  0  0  0  0  0  0  0  0999 V3000
M  V30 BEGIN CTAB
M  V30 COUNTS 30 33 0 0 0
M  V30 BEGIN ATOM
M  V30 1 O 1.581061 -1.157567 4.273917 0
M  V30 2 C 1.170717 -1.018232 3.112085 0
M  V30 3 N 1.777567 -1.577702 2.049736 0
M  V30 4 C 1.354263 -1.442713 0.782440 0
M  V30 5 C 2.005885 -2.045148 -0.371424 0
M  V30 6 C 3.137355 -2.823474 -0.268451 0
M  V30 7 C 3.786722 -3.413458 -1.336491 0
M  V30 8 C 3.241851 -3.193203 -2.601821 0
M  V30 9 C 2.110956 -2.418158 -2.727467 0
M  V30 10 C 1.480135 -1.837029 -1.627044 0
M  V30 11 Cl 0.047473 -0.870887 -1.909891 0
M  V30 12 N 0.251941 -0.691458 0.627254 0
M  V30 13 C -0.416583 -0.096429 1.629968 0
M  V30 14 C 0.039304 -0.250916 2.923118 0
M  V30 15 O -0.769106 0.416033 3.721837 0
M  V30 16 C -1.727167 1.000816 3.050671 0
M  V30 17 C -2.789204 1.795102 3.455571 0
M  V30 18 C -3.674052 2.291990 2.495798 0
M  V30 19 C -3.468822 1.979572 1.167266 0
M  V30 20 Cl -4.617510 2.634161 -0.003664 0
M  V30 21 C -2.409861 1.188898 0.773863 0
M  V30 22 C -1.540630 0.699974 1.710335 0
M  V30 23 H 2.625704 -2.146272 2.243570 0
M  V30 24 H 3.591027 -3.019595 0.685037 0
M  V30 25 H 4.677215 -4.020558 -1.212471 0
M  V30 26 H 3.694341 -3.622415 -3.488457 0
M  V30 27 H 1.682937 -2.244077 -3.712888 0
M  V30 28 H -2.899389 2.007838 4.522874 0
M  V30 29 H -4.483114 2.908359 2.893002 0
M  V30 30 H -2.258143 0.949408 -0.275368 0
M  V30 END ATOM
M  V30 BEGIN BOND
M  V30 1 2 1 2
M  V30 2 1 2 3
M  V30 3 1 3 4
M  V30 4 1 4 5
M  V30 5 2 5 6
M  V30 6 1 6 7
M  V30 7 2 7 8
M  V30 8 1 8 9
M  V30 9 2 9 10
M  V30 10 1 10 11
M  V30 11 2 4 12
M  V30 12 1 12 13
M  V30 13 2 13 14
M  V30 14 1 14 15
M  V30 15 1 15 16
M  V30 16 2 16 17
M  V30 17 1 17 18
M  V30 18 2 18 19
M  V30 19 1 19 20
M  V30 20 1 19 21
M  V30 21 2 21 22
M  V30 22 1 14 2
M  V30 23 1 22 16
M  V30 24 1 10 5
M  V30 25 1 22 13
M  V30 26 1 3 23
M  V30 27 1 6 24
M  V30 28 1 7 25
M  V30 29 1 8 26
M  V30 30 1 9 27
M  V30 31 1 17 28
M  V30 32 1 18 29
M  V30 33 1 21 30
M  V30 END BOND
M  V30 END CTAB
M  END
>  <Dataset>  (752) 
ChEMBL_Kinases

>  <Ligand_Instance>  (752) 
nan

>  <PDB_ID>  (752) 
nan

>  <Standardized_SMILES>  (752) 
O=c1[nH]c(-c2ccccc2Cl)nc2c1oc1ccc(Cl)cc12

>  <Name>  (752) 
nan

>  <Pocket>  (752) 
nan

>  <ATP_Site>  (752) 
nan

>  <Peripheral>  (752) 
nan

>  <Num_H_Atoms_ProtBoundConf>  (752) 
nan

>  <Num_Resolved_Atoms>  (752) 
nan

>  <Num_Not_Resolved_Atoms>  (752) 
nan

$$$$
CHEMBL2035603
     RDKit          3D

  0  0  0  0  0  0  0  0  0  0999 V3000
M  V30 BEGIN CTAB
M  V30 COUNTS 30 33 0 0 0
M  V30 BEGIN ATOM
M  V30 1 O 1.552685 -1.468572 4.274130 0
M  V30 2 C 1.129714 -1.210397 3.122658 0
M  V30 3 N 1.792619 -1.623937 2.030911 0
M  V30 4 C 1.401272 -1.385670 0.769271 0
M  V30 5 C 2.119476 -1.833731 -0.415588 0
M  V30 6 C 3.289073 -2.557289 -0.348709 0
M  V30 7 C 3.992071 -2.995735 -1.469215 0
M  V30 8 C 3.435601 -2.655135 -2.698303 0
M  V30 9 C 2.266500 -1.932022 -2.810565 0
M  V30 10 C 1.617371 -1.526826 -1.661916 0
M  V30 11 Cl 0.123703 -0.602968 -1.805334 0
M  V30 12 N 0.262828 -0.681606 0.651599 0
M  V30 13 C -0.465585 -0.227703 1.687693 0
M  V30 14 C -0.037074 -0.488892 2.973029 0
M  V30 15 O -0.900110 0.047676 3.802770 0
M  V30 16 C -1.870659 0.646192 3.146319 0
M  V30 17 C -2.997782 1.344831 3.542992 0
M  V30 18 C -3.859814 1.875281 2.588067 0
M  V30 19 C -3.602703 1.712076 1.251147 0
M  V30 20 Br -4.825943 2.465077 -0.011824 0
M  V30 21 C -2.480802 1.016579 0.825455 0
M  V30 22 C -1.646009 0.502993 1.784136 0
M  V30 23 H 2.667083 -2.164505 2.196859 0
M  V30 24 H 3.725099 -2.824233 0.594422 0
M  V30 25 H 4.906441 -3.561387 -1.410668 0
M  V30 26 H 3.939839 -2.969926 -3.603485 0
M  V30 27 H 1.830169 -1.664919 -3.764166 0
M  V30 28 H -3.163994 1.450987 4.618200 0
M  V30 29 H -4.725841 2.412215 2.937081 0
M  V30 30 H -2.272356 0.884402 -0.214060 0
M  V30 END ATOM
M  V30 BEGIN BOND
M  V30 1 2 1 2
M  V30 2 1 2 3
M  V30 3 1 3 4
M  V30 4 1 4 5
M  V30 5 2 5 6
M  V30 6 1 6 7
M  V30 7 2 7 8
M  V30 8 1 8 9
M  V30 9 2 9 10
M  V30 10 1 10 11
M  V30 11 2 4 12
M  V30 12 1 12 13
M  V30 13 2 13 14
M  V30 14 1 14 15
M  V30 15 1 15 16
M  V30 16 2 16 17
M  V30 17 1 17 18
M  V30 18 2 18 19
M  V30 19 1 19 20
M  V30 20 1 19 21
M  V30 21 2 21 22
M  V30 22 1 14 2
M  V30 23 1 22 16
M  V30 24 1 10 5
M  V30 25 1 22 13
M  V30 26 1 3 23
M  V30 27 1 6 24
M  V30 28 1 7 25
M  V30 29 1 8 26
M  V30 30 1 9 27
M  V30 31 1 17 28
M  V30 32 1 18 29
M  V30 33 1 21 30
M  V30 END BOND
M  V30 END CTAB
M  END
>  <Dataset>  (753) 
ChEMBL_Kinases

>  <Ligand_Instance>  (753) 
nan

>  <PDB_ID>  (753) 
nan

>  <Standardized_SMILES>  (753) 
O=c1[nH]c(-c2ccccc2Cl)nc2c1oc1ccc(Br)cc12

>  <Name>  (753) 
nan

>  <Pocket>  (753) 
nan

>  <ATP_Site>  (753) 
nan

>  <Peripheral>  (753) 
nan

>  <Num_H_Atoms_ProtBoundConf>  (753) 
nan

>  <Num_Resolved_Atoms>  (753) 
nan

>  <Num_Not_Resolved_Atoms>  (753) 
nan

$$$$
CHEMBL2035604
     RDKit          3D

  0  0  0  0  0  0  0  0  0  0999 V3000
M  V30 BEGIN CTAB
M  V30 COUNTS 33 36 0 0 0
M  V30 BEGIN ATOM
M  V30 1 C -1.211756 -5.570506 0.144040 0
M  V30 2 C -1.378868 -4.246334 -0.512057 0
M  V30 3 C -2.112136 -4.125229 -1.673619 0
M  V30 4 C -2.319355 -2.923262 -2.354402 0
M  V30 5 C -1.740157 -1.777285 -1.811742 0
M  V30 6 O -1.756264 -0.522390 -2.215299 0
M  V30 7 C -1.077240 0.246678 -1.405700 0
M  V30 8 C -0.739204 1.578793 -1.289240 0
M  V30 9 O -1.170692 2.364501 -2.188435 0
M  V30 10 N 0.009041 2.064513 -0.287914 0
M  V30 11 C 0.473549 1.250956 0.670342 0
M  V30 12 C 1.290493 1.721523 1.781500 0
M  V30 13 C 1.665903 3.033962 1.961091 0
M  V30 14 C 2.435862 3.491112 3.004211 0
M  V30 15 C 2.873798 2.587997 3.948739 0
M  V30 16 C 2.519677 1.265371 3.804888 0
M  V30 17 C 1.740455 0.837563 2.738701 0
M  V30 18 Cl 1.338970 -0.877914 2.640851 0
M  V30 19 N 0.163278 -0.050543 0.587245 0
M  V30 20 C -0.587835 -0.564736 -0.409879 0
M  V30 21 C -0.994515 -1.870960 -0.639478 0
M  V30 22 C -0.825663 -3.091740 -0.011872 0
M  V30 23 H -1.046127 -5.379483 1.236718 0
M  V30 24 H -2.161874 -6.106507 0.067897 0
M  V30 25 H -0.344348 -6.132357 -0.281557 0
M  V30 26 H -2.565465 -5.012200 -2.101356 0
M  V30 27 H -2.905277 -2.893302 -3.262373 0
M  V30 28 H 0.214700 3.075379 -0.277565 0
M  V30 29 H 1.350639 3.778183 1.252703 0
M  V30 30 H 2.709736 4.546808 3.105559 0
M  V30 31 H 3.481570 2.913513 4.782795 0
M  V30 32 H 2.846655 0.525084 4.530055 0
M  V30 33 H -0.236568 -3.119259 0.900259 0
M  V30 END ATOM
M  V30 BEGIN BOND
M  V30 1 1 1 2
M  V30 2 2 2 3
M  V30 3 1 3 4
M  V30 4 2 4 5
M  V30 5 1 5 6
M  V30 6 1 6 7
M  V30 7 1 7 8
M  V30 8 2 8 9
M  V30 9 1 8 10
M  V30 10 1 10 11
M  V30 11 1 11 12
M  V30 12 2 12 13
M  V30 13 1 13 14
M  V30 14 2 14 15
M  V30 15 1 15 16
M  V30 16 2 16 17
M  V30 17 1 17 18
M  V30 18 2 11 19
M  V30 19 1 19 20
M  V30 20 1 20 21
M  V30 21 2 21 22
M  V30 22 1 22 2
M  V30 23 1 21 5
M  V30 24 2 20 7
M  V30 25 1 17 12
M  V30 26 1 1 23
M  V30 27 1 1 24
M  V30 28 1 1 25
M  V30 29 1 3 26
M  V30 30 1 4 27
M  V30 31 1 10 28
M  V30 32 1 13 29
M  V30 33 1 14 30
M  V30 34 1 15 31
M  V30 35 1 16 32
M  V30 36 1 22 33
M  V30 END BOND
M  V30 END CTAB
M  END
>  <Dataset>  (754) 
ChEMBL_Kinases

>  <Ligand_Instance>  (754) 
nan

>  <PDB_ID>  (754) 
nan

>  <Standardized_SMILES>  (754) 
Cc1ccc2oc3c(=O)[nH]c(-c4ccccc4Cl)nc3c2c1

>  <Name>  (754) 
nan

>  <Pocket>  (754) 
nan

>  <ATP_Site>  (754) 
nan

>  <Peripheral>  (754) 
nan

>  <Num_H_Atoms_ProtBoundConf>  (754) 
nan

>  <Num_Resolved_Atoms>  (754) 
nan

>  <Num_Not_Resolved_Atoms>  (754) 
nan

$$$$
CHEMBL2035605
     RDKit          3D

  0  0  0  0  0  0  0  0  0  0999 V3000
M  V30 BEGIN CTAB
M  V30 COUNTS 34 37 0 0 0
M  V30 BEGIN ATOM
M  V30 1 C -1.194748 -4.948953 2.250725 0
M  V30 2 O 0.227241 -5.118036 2.362374 0
M  V30 3 C 1.073151 -4.084129 1.983554 0
M  V30 4 C 2.455315 -4.249957 2.092644 0
M  V30 5 C 3.286033 -3.214157 1.712596 0
M  V30 6 C 2.816869 -2.000688 1.221430 0
M  V30 7 O 3.361112 -0.888947 0.802461 0
M  V30 8 C 2.431781 -0.030318 0.435907 0
M  V30 9 C 2.469004 1.261072 -0.069703 0
M  V30 10 O 3.577967 1.839334 -0.261323 0
M  V30 11 N 1.294851 1.858049 -0.341369 0
M  V30 12 C 0.086376 1.299864 -0.160790 0
M  V30 13 C -1.165242 1.977708 -0.466603 0
M  V30 14 C -1.246344 3.256171 -0.970785 0
M  V30 15 C -2.427561 3.904777 -1.262858 0
M  V30 16 C -3.610494 3.228196 -1.035051 0
M  V30 17 C -3.568572 1.946185 -0.530729 0
M  V30 18 C -2.357983 1.323530 -0.247903 0
M  V30 19 Cl -2.339344 -0.312270 0.394452 0
M  V30 20 N 0.093600 0.067210 0.323184 0
M  V30 21 C 1.203648 -0.627886 0.631312 0
M  V30 22 C 1.427441 -1.902887 1.138806 0
M  V30 23 C 0.547162 -2.906947 1.504822 0
M  V30 24 H -1.714345 -5.914299 2.283911 0
M  V30 25 H -1.572164 -4.178194 2.935515 0
M  V30 26 H -1.365505 -4.561587 1.211165 0
M  V30 27 H 2.824118 -5.189252 2.473013 0
M  V30 28 H 4.366473 -3.342639 1.797419 0
M  V30 29 H 1.372801 2.825850 -0.718704 0
M  V30 30 H -0.350557 3.809593 -1.159402 0
M  V30 31 H -2.465721 4.907739 -1.657569 0
M  V30 32 H -4.544343 3.741844 -1.266294 0
M  V30 33 H -4.485889 1.400770 -0.345924 0
M  V30 34 H -0.507738 -2.720230 1.397958 0
M  V30 END ATOM
M  V30 BEGIN BOND
M  V30 1 1 1 2
M  V30 2 1 2 3
M  V30 3 2 3 4
M  V30 4 1 4 5
M  V30 5 2 5 6
M  V30 6 1 6 7
M  V30 7 1 7 8
M  V30 8 1 8 9
M  V30 9 2 9 10
M  V30 10 1 9 11
M  V30 11 1 11 12
M  V30 12 1 12 13
M  V30 13 2 13 14
M  V30 14 1 14 15
M  V30 15 2 15 16
M  V30 16 1 16 17
M  V30 17 2 17 18
M  V30 18 1 18 19
M  V30 19 2 12 20
M  V30 20 1 20 21
M  V30 21 1 21 22
M  V30 22 2 22 23
M  V30 23 1 23 3
M  V30 24 1 22 6
M  V30 25 2 21 8
M  V30 26 1 18 13
M  V30 27 1 1 24
M  V30 28 1 1 25
M  V30 29 1 1 26
M  V30 30 1 4 27
M  V30 31 1 5 28
M  V30 32 1 11 29
M  V30 33 1 14 30
M  V30 34 1 15 31
M  V30 35 1 16 32
M  V30 36 1 17 33
M  V30 37 1 23 34
M  V30 END BOND
M  V30 END CTAB
M  END
>  <Dataset>  (755) 
ChEMBL_Kinases

>  <Ligand_Instance>  (755) 
nan

>  <PDB_ID>  (755) 
nan

>  <Standardized_SMILES>  (755) 
COc1ccc2oc3c(=O)[nH]c(-c4ccccc4Cl)nc3c2c1

>  <Name>  (755) 
nan

>  <Pocket>  (755) 
nan

>  <ATP_Site>  (755) 
nan

>  <Peripheral>  (755) 
nan

>  <Num_H_Atoms_ProtBoundConf>  (755) 
nan

>  <Num_Resolved_Atoms>  (755) 
nan

>  <Num_Not_Resolved_Atoms>  (755) 
nan

$$$$
CHEMBL2035606
     RDKit          3D

  0  0  0  0  0  0  0  0  0  0999 V3000
M  V30 BEGIN CTAB
M  V30 COUNTS 31 34 0 0 0
M  V30 BEGIN ATOM
M  V30 1 O 1.743839 -0.841416 4.268045 0
M  V30 2 C 1.287973 -0.803273 3.096501 0
M  V30 3 N 1.976242 -1.324677 2.064332 0
M  V30 4 C 1.544827 -1.315652 0.792142 0
M  V30 5 C 2.283840 -1.877806 -0.330282 0
M  V30 6 C 3.514202 -2.481117 -0.190536 0
M  V30 7 C 4.243651 -3.025486 -1.235072 0
M  V30 8 C 3.645221 -2.929358 -2.494643 0
M  V30 9 C 2.416944 -2.335222 -2.683381 0
M  V30 10 C 1.742341 -1.811684 -1.596003 0
M  V30 11 Cl 0.188958 -1.071792 -1.904214 0
M  V30 12 N 0.346647 -0.738287 0.594193 0
M  V30 13 C -0.405477 -0.193794 1.569430 0
M  V30 14 C 0.059913 -0.215628 2.868719 0
M  V30 15 O -0.844799 0.372512 3.638270 0
M  V30 16 C -1.871686 0.775746 2.915501 0
M  V30 17 C -3.044165 1.430639 3.264733 0
M  V30 18 C -3.969925 1.738154 2.274902 0
M  V30 19 C -3.728675 1.395105 0.945160 0
M  V30 20 O -4.677665 1.717207 -0.028025 0
M  V30 21 C -2.553604 0.741545 0.611959 0
M  V30 22 C -1.635443 0.436899 1.595752 0
M  V30 23 H 2.895087 -1.755698 2.287076 0
M  V30 24 H 3.985022 -2.560756 0.776255 0
M  V30 25 H 5.206089 -3.489191 -1.076084 0
M  V30 26 H 4.215672 -3.357932 -3.328795 0
M  V30 27 H 2.064815 -2.323507 -3.695389 0
M  V30 28 H -3.196380 1.681347 4.310611 0
M  V30 29 H -4.891189 2.253648 2.554856 0
M  V30 30 H -5.045756 0.919265 -0.549007 0
M  V30 31 H -2.341882 0.465895 -0.401543 0
M  V30 END ATOM
M  V30 BEGIN BOND
M  V30 1 2 1 2
M  V30 2 1 2 3
M  V30 3 1 3 4
M  V30 4 1 4 5
M  V30 5 2 5 6
M  V30 6 1 6 7
M  V30 7 2 7 8
M  V30 8 1 8 9
M  V30 9 2 9 10
M  V30 10 1 10 11
M  V30 11 2 4 12
M  V30 12 1 12 13
M  V30 13 2 13 14
M  V30 14 1 14 15
M  V30 15 1 15 16
M  V30 16 2 16 17
M  V30 17 1 17 18
M  V30 18 2 18 19
M  V30 19 1 19 20
M  V30 20 1 19 21
M  V30 21 2 21 22
M  V30 22 1 14 2
M  V30 23 1 22 16
M  V30 24 1 10 5
M  V30 25 1 22 13
M  V30 26 1 3 23
M  V30 27 1 6 24
M  V30 28 1 7 25
M  V30 29 1 8 26
M  V30 30 1 9 27
M  V30 31 1 17 28
M  V30 32 1 18 29
M  V30 33 1 20 30
M  V30 34 1 21 31
M  V30 END BOND
M  V30 END CTAB
M  END
>  <Dataset>  (756) 
ChEMBL_Kinases

>  <Ligand_Instance>  (756) 
nan

>  <PDB_ID>  (756) 
nan

>  <Standardized_SMILES>  (756) 
O=c1[nH]c(-c2ccccc2Cl)nc2c1oc1ccc(O)cc12

>  <Name>  (756) 
nan

>  <Pocket>  (756) 
nan

>  <ATP_Site>  (756) 
nan

>  <Peripheral>  (756) 
nan

>  <Num_H_Atoms_ProtBoundConf>  (756) 
nan

>  <Num_Resolved_Atoms>  (756) 
nan

>  <Num_Not_Resolved_Atoms>  (756) 
nan

$$$$
CHEMBL2035607
     RDKit          3D

  0  0  0  0  0  0  0  0  0  0999 V3000
M  V30 BEGIN CTAB
M  V30 COUNTS 31 34 0 0 0
M  V30 BEGIN ATOM
M  V30 1 N -0.358287 -6.500044 3.287535 0
M  V30 2 C 0.203109 -5.770140 2.555092 0
M  V30 3 C 0.874797 -4.868127 1.638708 0
M  V30 4 C 1.944256 -5.300622 0.878861 0
M  V30 5 C 2.627000 -4.495339 -0.010863 0
M  V30 6 C 2.196774 -3.168020 -0.136748 0
M  V30 7 O 2.619444 -2.163919 -0.876732 0
M  V30 8 C 1.894471 -1.095123 -0.651864 0
M  V30 9 C 1.939157 0.183427 -1.168798 0
M  V30 10 O 2.804885 0.462941 -2.019489 0
M  V30 11 N 1.037363 1.078274 -0.726456 0
M  V30 12 C 0.091578 0.810741 0.188752 0
M  V30 13 C -0.882824 1.784987 0.663957 0
M  V30 14 C -0.920876 3.085173 0.210148 0
M  V30 15 C -1.834670 4.030320 0.644016 0
M  V30 16 C -2.751915 3.611281 1.591418 0
M  V30 17 C -2.756347 2.315827 2.080073 0
M  V30 18 C -1.813105 1.405963 1.607618 0
M  V30 19 Cl -1.823179 -0.225632 2.226957 0
M  V30 20 N 0.081671 -0.445419 0.667331 0
M  V30 21 C 0.937775 -1.412427 0.291367 0
M  V30 22 C 1.123585 -2.740026 0.628000 0
M  V30 23 C 0.445940 -3.550867 1.515410 0
M  V30 24 H 2.271051 -6.346339 0.988514 0
M  V30 25 H 3.464703 -4.832539 -0.606639 0
M  V30 26 H 1.103347 2.017545 -1.134798 0
M  V30 27 H -0.216748 3.435870 -0.527990 0
M  V30 28 H -1.829915 5.028604 0.266303 0
M  V30 29 H -3.472826 4.342713 1.939023 0
M  V30 30 H -3.454402 1.977703 2.808272 0
M  V30 31 H -0.391174 -3.181098 2.098485 0
M  V30 END ATOM
M  V30 BEGIN BOND
M  V30 1 3 1 2
M  V30 2 1 2 3
M  V30 3 2 3 4
M  V30 4 1 4 5
M  V30 5 2 5 6
M  V30 6 1 6 7
M  V30 7 1 7 8
M  V30 8 1 8 9
M  V30 9 2 9 10
M  V30 10 1 9 11
M  V30 11 1 11 12
M  V30 12 1 12 13
M  V30 13 2 13 14
M  V30 14 1 14 15
M  V30 15 2 15 16
M  V30 16 1 16 17
M  V30 17 2 17 18
M  V30 18 1 18 19
M  V30 19 2 12 20
M  V30 20 1 20 21
M  V30 21 1 21 22
M  V30 22 2 22 23
M  V30 23 1 23 3
M  V30 24 1 22 6
M  V30 25 2 21 8
M  V30 26 1 18 13
M  V30 27 1 4 24
M  V30 28 1 5 25
M  V30 29 1 11 26
M  V30 30 1 14 27
M  V30 31 1 15 28
M  V30 32 1 16 29
M  V30 33 1 17 30
M  V30 34 1 23 31
M  V30 END BOND
M  V30 END CTAB
M  END
>  <Dataset>  (757) 
ChEMBL_Kinases

>  <Ligand_Instance>  (757) 
nan

>  <PDB_ID>  (757) 
nan

>  <Standardized_SMILES>  (757) 
N#Cc1ccc2oc3c(=O)[nH]c(-c4ccccc4Cl)nc3c2c1

>  <Name>  (757) 
nan

>  <Pocket>  (757) 
nan

>  <ATP_Site>  (757) 
nan

>  <Peripheral>  (757) 
nan

>  <Num_H_Atoms_ProtBoundConf>  (757) 
nan

>  <Num_Resolved_Atoms>  (757) 
nan

>  <Num_Not_Resolved_Atoms>  (757) 
nan

$$$$
CHEMBL4465324
     RDKit          3D

  0  0  0  0  0  0  0  0  0  0999 V3000
M  V30 BEGIN CTAB
M  V30 COUNTS 23 25 0 0 0
M  V30 BEGIN ATOM
M  V30 1 N 0.178704 1.487149 4.709565 0
M  V30 2 C 0.677064 0.761511 3.580592 0
M  V30 3 N 1.798770 -0.010080 3.685338 0
M  V30 4 C 2.279227 -0.698728 2.630479 0
M  V30 5 C 1.636593 -0.637743 1.400402 0
M  V30 6 C 2.082794 -1.315226 0.304295 0
M  V30 7 C 1.490268 -1.295707 -0.942573 0
M  V30 8 C 0.360127 -0.509567 -1.021247 0
M  V30 9 C -0.360554 -0.373508 -2.192915 0
M  V30 10 C -1.494485 0.409234 -2.290376 0
M  V30 11 N -1.947575 1.085759 -1.212404 0
M  V30 12 C -1.257696 0.964699 -0.062616 0
M  V30 13 C -0.123283 0.191200 0.064290 0
M  V30 14 C 0.508669 0.136439 1.289901 0
M  V30 15 N 0.076386 0.801069 2.377260 0
M  V30 16 H -0.851085 1.729322 4.722963 0
M  V30 17 H -0.861059 1.699659 4.664041 0
M  V30 18 H 3.164695 -1.298891 2.740573 0
M  V30 19 H 2.986920 -1.923204 0.431540 0
M  V30 20 H 1.852810 -1.836967 -1.804923 0
M  V30 21 H -0.002935 -0.918141 -3.076475 0
M  V30 22 H -2.066615 0.523197 -3.202262 0
M  V30 23 H -1.613094 1.505366 0.813667 0
M  V30 END ATOM
M  V30 BEGIN BOND
M  V30 1 1 1 2
M  V30 2 2 2 3
M  V30 3 1 3 4
M  V30 4 2 4 5
M  V30 5 1 5 6
M  V30 6 2 6 7
M  V30 7 1 7 8
M  V30 8 2 8 9
M  V30 9 1 9 10
M  V30 10 2 10 11
M  V30 11 1 11 12
M  V30 12 2 12 13
M  V30 13 1 13 14
M  V30 14 2 14 15
M  V30 15 1 15 2
M  V30 16 1 14 5
M  V30 17 1 13 8
M  V30 18 1 1 16
M  V30 19 1 1 17
M  V30 20 1 4 18
M  V30 21 1 6 19
M  V30 22 1 7 20
M  V30 23 1 9 21
M  V30 24 1 10 22
M  V30 25 1 12 23
M  V30 END BOND
M  V30 END CTAB
M  END
>  <Dataset>  (758) 
ChEMBL_Kinases

>  <Ligand_Instance>  (758) 
nan

>  <PDB_ID>  (758) 
nan

>  <Standardized_SMILES>  (758) 
Nc1ncc2ccc3ccncc3c2n1

>  <Name>  (758) 
nan

>  <Pocket>  (758) 
nan

>  <ATP_Site>  (758) 
nan

>  <Peripheral>  (758) 
nan

>  <Num_H_Atoms_ProtBoundConf>  (758) 
nan

>  <Num_Resolved_Atoms>  (758) 
nan

>  <Num_Not_Resolved_Atoms>  (758) 
nan

$$$$
CHEMBL2387470
     RDKit          3D

  0  0  0  0  0  0  0  0  0  0999 V3000
M  V30 BEGIN CTAB
M  V30 COUNTS 51 55 0 0 0
M  V30 BEGIN ATOM
M  V30 1 O 3.923549 -1.665082 1.288254 0
M  V30 2 C 3.206420 -0.728091 1.713540 0
M  V30 3 N 2.542712 0.099471 0.752218 0
M  V30 4 C 2.686037 -0.129870 -0.645331 0
M  V30 5 C 2.512485 -1.401337 -1.125040 0
M  V30 6 N 2.687948 -1.401759 -2.487470 0
M  V30 7 C 2.963677 -0.141606 -2.826937 0
M  V30 8 N 3.225361 0.450337 -4.035496 0
M  V30 9 C 3.476482 1.781088 -4.078798 0
M  V30 10 C 3.485679 2.595996 -2.963967 0
M  V30 11 C 3.225124 2.049226 -1.705016 0
M  V30 12 C 2.976477 0.700696 -1.709122 0
M  V30 13 C 2.881891 -0.277869 3.089859 0
M  V30 14 C 3.675815 0.103551 4.181542 0
M  V30 15 N 2.844987 0.403082 5.191193 0
M  V30 16 N 1.591226 0.241138 4.835051 0
M  V30 17 C 0.375089 0.360471 5.387115 0
M  V30 18 C -0.823507 0.103192 4.774277 0
M  V30 19 C -0.815145 -0.320876 3.459623 0
M  V30 20 N -1.917669 -0.708737 2.650837 0
M  V30 21 C -1.792102 -0.451091 1.248109 0
M  V30 22 C -2.661527 -1.240953 0.344702 0
M  V30 23 C -4.131221 -1.101594 0.571531 0
M  V30 24 C -4.786151 -2.483944 0.712580 0
M  V30 25 N -4.518318 -3.205588 -0.515200 0
M  V30 26 C -3.121152 -3.273880 -0.861070 0
M  V30 27 C -2.254780 -2.699377 0.248033 0
M  V30 28 N 0.416995 -0.430611 2.935237 0
M  V30 29 C 1.574192 -0.176410 3.550390 0
M  V30 30 H 1.906595 0.939336 0.903286 0
M  V30 31 H 2.275757 -2.362222 -0.650577 0
M  V30 32 H 2.622581 -2.214912 -3.170049 0
M  V30 33 H 3.682639 2.231782 -5.039745 0
M  V30 34 H 3.687985 3.656294 -3.033894 0
M  V30 35 H 3.211267 2.607665 -0.790134 0
M  V30 36 H 4.742752 0.085217 4.013925 0
M  V30 37 H 0.377772 0.701956 6.433315 0
M  V30 38 H -1.794102 0.205966 5.231243 0
M  V30 39 H -2.769201 -1.160756 3.080929 0
M  V30 40 H -2.155624 0.631044 1.127909 0
M  V30 41 H -0.746789 -0.466240 0.904407 0
M  V30 42 H -2.478445 -0.844858 -0.707812 0
M  V30 43 H -4.395312 -0.456164 1.431337 0
M  V30 44 H -4.679708 -0.644339 -0.308132 0
M  V30 45 H -5.884873 -2.290307 0.744579 0
M  V30 46 H -4.450826 -2.993294 1.612204 0
M  V30 47 H -5.005940 -2.690843 -1.289776 0
M  V30 48 H -2.795184 -4.321267 -0.983161 0
M  V30 49 H -2.891173 -2.756415 -1.835760 0
M  V30 50 H -2.468644 -3.268342 1.157671 0
M  V30 51 H -1.194400 -2.765581 -0.087750 0
M  V30 END ATOM
M  V30 BEGIN BOND
M  V30 1 2 1 2
M  V30 2 1 2 3
M  V30 3 1 3 4
M  V30 4 2 4 5
M  V30 5 1 5 6
M  V30 6 1 6 7
M  V30 7 2 7 8
M  V30 8 1 8 9
M  V30 9 2 9 10
M  V30 10 1 10 11
M  V30 11 2 11 12
M  V30 12 1 2 13
M  V30 13 1 13 14
M  V30 14 2 14 15
M  V30 15 1 15 16
M  V30 16 1 16 17
M  V30 17 2 17 18
M  V30 18 1 18 19
M  V30 19 1 19 20
M  V30 20 1 20 21
M  V30 21 1 21 22
M  V30 22 1 22 23
M  V30 23 1 23 24
M  V30 24 1 24 25
M  V30 25 1 25 26
M  V30 26 1 26 27
M  V30 27 2 19 28
M  V30 28 1 28 29
M  V30 29 1 12 4
M  V30 30 2 29 13
M  V30 31 1 12 7
M  V30 32 1 29 16
M  V30 33 1 27 22
M  V30 34 1 3 30
M  V30 35 1 5 31
M  V30 36 1 6 32
M  V30 37 1 9 33
M  V30 38 1 10 34
M  V30 39 1 11 35
M  V30 40 1 14 36
M  V30 41 1 17 37
M  V30 42 1 18 38
M  V30 43 1 20 39
M  V30 44 1 21 40
M  V30 45 1 21 41
M  V30 46 1 22 42
M  V30 47 1 23 43
M  V30 48 1 23 44
M  V30 49 1 24 45
M  V30 50 1 24 46
M  V30 51 1 25 47
M  V30 52 1 26 48
M  V30 53 1 26 49
M  V30 54 1 27 50
M  V30 55 1 27 51
M  V30 END BOND
M  V30 END CTAB
M  END
>  <Dataset>  (759) 
ChEMBL_Kinases

>  <Ligand_Instance>  (759) 
nan

>  <PDB_ID>  (759) 
nan

>  <Standardized_SMILES>  (759) 
O=C(Nc1c[nH]c2ncccc12)c1cnn2ccc(NCC3CCNCC3)nc12

>  <Name>  (759) 
nan

>  <Pocket>  (759) 
nan

>  <ATP_Site>  (759) 
nan

>  <Peripheral>  (759) 
nan

>  <Num_H_Atoms_ProtBoundConf>  (759) 
nan

>  <Num_Resolved_Atoms>  (759) 
nan

>  <Num_Not_Resolved_Atoms>  (759) 
nan

$$$$
CHEMBL2387469
     RDKit          3D

  0  0  0  0  0  0  0  0  0  0999 V3000
M  V30 BEGIN CTAB
M  V30 COUNTS 49 53 0 0 0
M  V30 BEGIN ATOM
M  V30 1 O 2.980470 -1.037684 2.090585 0
M  V30 2 C 2.392933 0.088754 1.948364 0
M  V30 3 N 2.412533 0.743961 0.690239 0
M  V30 4 C 2.979915 0.447133 -0.603188 0
M  V30 5 C 2.304690 -0.285283 -1.586692 0
M  V30 6 N 3.132318 -0.367677 -2.668907 0
M  V30 7 C 4.291281 0.278819 -2.407292 0
M  V30 8 N 5.400188 0.476743 -3.141066 0
M  V30 9 C 6.421486 1.174763 -2.615355 0
M  V30 10 C 6.382844 1.711568 -1.321542 0
M  V30 11 C 5.256159 1.522246 -0.548839 0
M  V30 12 C 4.212944 0.798016 -1.112744 0
M  V30 13 C 1.656385 0.842151 2.981889 0
M  V30 14 C 2.240870 1.651996 3.965214 0
M  V30 15 N 1.176406 2.145700 4.675366 0
M  V30 16 N 0.063911 1.647369 4.128120 0
M  V30 17 C -1.169596 1.932300 4.578749 0
M  V30 18 C -2.279795 1.392020 3.970780 0
M  V30 19 C -2.058355 0.541988 2.873796 0
M  V30 20 N -3.177283 -0.011260 2.209575 0
M  V30 21 C -3.452735 -0.986194 1.188819 0
M  V30 22 C -3.028302 -2.402544 1.577860 0
M  V30 23 C -3.399657 -3.352340 0.471902 0
M  V30 24 C -4.681828 -3.913117 0.576257 0
M  V30 25 C -5.259840 -4.800736 -0.302331 0
M  V30 26 C -4.495058 -5.174069 -1.396396 0
M  V30 27 C -3.230564 -4.641461 -1.528174 0
M  V30 28 C -2.674817 -3.757687 -0.639226 0
M  V30 29 N -0.784451 0.303373 2.480835 0
M  V30 30 C 0.283060 0.842147 3.089394 0
M  V30 31 H 1.945053 1.679585 0.501623 0
M  V30 32 H 1.314668 -0.726282 -1.545283 0
M  V30 33 H 2.847475 -0.878928 -3.557602 0
M  V30 34 H 7.326364 1.336458 -3.221823 0
M  V30 35 H 7.196518 2.271397 -0.896118 0
M  V30 36 H 5.157538 1.909814 0.464462 0
M  V30 37 H 3.301851 1.838944 4.121114 0
M  V30 38 H -1.384581 2.585520 5.429575 0
M  V30 39 H -3.276938 1.613824 4.324330 0
M  V30 40 H -4.121483 0.377529 2.523539 0
M  V30 41 H -4.480578 -1.054523 0.851329 0
M  V30 42 H -2.858539 -0.754355 0.245303 0
M  V30 43 H -3.549709 -2.735961 2.481967 0
M  V30 44 H -1.932077 -2.463855 1.784255 0
M  V30 45 H -5.327212 -3.647735 1.428249 0
M  V30 46 H -6.255708 -5.188474 -0.150594 0
M  V30 47 H -4.899184 -5.863853 -2.113089 0
M  V30 48 H -2.606299 -4.918075 -2.379086 0
M  V30 49 H -1.700369 -3.299476 -0.672543 0
M  V30 END ATOM
M  V30 BEGIN BOND
M  V30 1 2 1 2
M  V30 2 1 2 3
M  V30 3 1 3 4
M  V30 4 2 4 5
M  V30 5 1 5 6
M  V30 6 1 6 7
M  V30 7 2 7 8
M  V30 8 1 8 9
M  V30 9 2 9 10
M  V30 10 1 10 11
M  V30 11 2 11 12
M  V30 12 1 2 13
M  V30 13 1 13 14
M  V30 14 2 14 15
M  V30 15 1 15 16
M  V30 16 1 16 17
M  V30 17 2 17 18
M  V30 18 1 18 19
M  V30 19 1 19 20
M  V30 20 1 20 21
M  V30 21 1 21 22
M  V30 22 1 22 23
M  V30 23 2 23 24
M  V30 24 1 24 25
M  V30 25 2 25 26
M  V30 26 1 26 27
M  V30 27 2 27 28
M  V30 28 2 19 29
M  V30 29 1 29 30
M  V30 30 1 12 4
M  V30 31 2 30 13
M  V30 32 1 12 7
M  V30 33 1 30 16
M  V30 34 1 28 23
M  V30 35 1 3 31
M  V30 36 1 5 32
M  V30 37 1 6 33
M  V30 38 1 9 34
M  V30 39 1 10 35
M  V30 40 1 11 36
M  V30 41 1 14 37
M  V30 42 1 17 38
M  V30 43 1 18 39
M  V30 44 1 20 40
M  V30 45 1 21 41
M  V30 46 1 21 42
M  V30 47 1 22 43
M  V30 48 1 22 44
M  V30 49 1 24 45
M  V30 50 1 25 46
M  V30 51 1 26 47
M  V30 52 1 27 48
M  V30 53 1 28 49
M  V30 END BOND
M  V30 END CTAB
M  END
>  <Dataset>  (760) 
ChEMBL_Kinases

>  <Ligand_Instance>  (760) 
nan

>  <PDB_ID>  (760) 
nan

>  <Standardized_SMILES>  (760) 
O=C(Nc1c[nH]c2ncccc12)c1cnn2ccc(NCCc3ccccc3)nc12

>  <Name>  (760) 
nan

>  <Pocket>  (760) 
nan

>  <ATP_Site>  (760) 
nan

>  <Peripheral>  (760) 
nan

>  <Num_H_Atoms_ProtBoundConf>  (760) 
nan

>  <Num_Resolved_Atoms>  (760) 
nan

>  <Num_Not_Resolved_Atoms>  (760) 
nan

$$$$
CHEMBL2387468
     RDKit          3D

  0  0  0  0  0  0  0  0  0  0999 V3000
M  V30 BEGIN CTAB
M  V30 COUNTS 46 50 0 0 0
M  V30 BEGIN ATOM
M  V30 1 N -0.110000 -7.152185 0.163218 0
M  V30 2 C 0.522891 -6.195297 0.423102 0
M  V30 3 C 1.301222 -5.004958 0.725562 0
M  V30 4 C 2.624383 -4.888181 0.358211 0
M  V30 5 C 3.282635 -3.703607 0.697396 0
M  V30 6 C 2.629024 -2.688865 1.375661 0
M  V30 7 C 3.292918 -1.419776 1.752007 0
M  V30 8 C 3.172795 -0.384186 0.696444 0
M  V30 9 C 4.107875 -0.219856 -0.309270 0
M  V30 10 C 3.947361 0.760292 -1.270957 0
M  V30 11 O 4.852166 0.970538 -2.301746 0
M  V30 12 N 2.840571 1.514665 -1.148078 0
M  V30 13 N 2.458456 2.512963 -1.934140 0
M  V30 14 C 1.308857 3.051924 -1.530747 0
M  V30 15 C 0.906804 2.359260 -0.399799 0
M  V30 16 C -0.277270 2.543063 0.430898 0
M  V30 17 O -0.392294 3.651923 1.001217 0
M  V30 18 N -1.258006 1.529211 0.596059 0
M  V30 19 C -2.413955 1.676596 1.392266 0
M  V30 20 C -2.853933 2.743832 2.137410 0
M  V30 21 N -4.004676 2.465716 2.746936 0
M  V30 22 C -4.338960 1.209796 2.411296 0
M  V30 23 N -5.383357 0.463568 2.749787 0
M  V30 24 C -5.506431 -0.792420 2.280736 0
M  V30 25 C -4.556473 -1.341787 1.437903 0
M  V30 26 C -3.453059 -0.591730 1.063460 0
M  V30 27 C -3.372977 0.706414 1.578046 0
M  V30 28 C 1.889436 1.412251 -0.198142 0
M  V30 29 N 2.123535 0.434909 0.696115 0
M  V30 30 C 1.283791 -2.858032 1.725723 0
M  V30 31 C 0.592317 -4.032146 1.401947 0
M  V30 32 H 3.111146 -5.695868 -0.171305 0
M  V30 33 H 4.317979 -3.568394 0.430328 0
M  V30 34 H 2.786281 -1.028394 2.656940 0
M  V30 35 H 4.355372 -1.666352 1.962446 0
M  V30 36 H 4.977375 -0.866251 -0.345179 0
M  V30 37 H 4.767825 0.512811 -3.191892 0
M  V30 38 H 0.760044 3.868342 -1.965571 0
M  V30 39 H -1.061518 0.660962 0.082525 0
M  V30 40 H -2.361207 3.698739 2.240729 0
M  V30 41 H -4.556995 3.103704 3.375984 0
M  V30 42 H -6.381699 -1.359458 2.589789 0
M  V30 43 H -4.695670 -2.348552 1.087829 0
M  V30 44 H -2.693941 -0.963052 0.419762 0
M  V30 45 H 0.772729 -2.048520 2.263177 0
M  V30 46 H -0.425070 -4.080085 1.703817 0
M  V30 END ATOM
M  V30 BEGIN BOND
M  V30 1 3 1 2
M  V30 2 1 2 3
M  V30 3 2 3 4
M  V30 4 1 4 5
M  V30 5 2 5 6
M  V30 6 1 6 7
M  V30 7 1 7 8
M  V30 8 1 8 9
M  V30 9 2 9 10
M  V30 10 1 10 11
M  V30 11 1 10 12
M  V30 12 1 12 13
M  V30 13 2 13 14
M  V30 14 1 14 15
M  V30 15 1 15 16
M  V30 16 2 16 17
M  V30 17 1 16 18
M  V30 18 1 18 19
M  V30 19 2 19 20
M  V30 20 1 20 21
M  V30 21 1 21 22
M  V30 22 2 22 23
M  V30 23 1 23 24
M  V30 24 2 24 25
M  V30 25 1 25 26
M  V30 26 2 26 27
M  V30 27 2 15 28
M  V30 28 1 28 29
M  V30 29 1 6 30
M  V30 30 2 30 31
M  V30 31 1 31 3
M  V30 32 2 29 8
M  V30 33 1 28 12
M  V30 34 1 27 19
M  V30 35 1 27 22
M  V30 36 1 4 32
M  V30 37 1 5 33
M  V30 38 1 7 34
M  V30 39 1 7 35
M  V30 40 1 9 36
M  V30 41 1 11 37
M  V30 42 1 14 38
M  V30 43 1 18 39
M  V30 44 1 20 40
M  V30 45 1 21 41
M  V30 46 1 24 42
M  V30 47 1 25 43
M  V30 48 1 26 44
M  V30 49 1 30 45
M  V30 50 1 31 46
M  V30 END BOND
M  V30 END CTAB
M  END
>  <Dataset>  (761) 
ChEMBL_Kinases

>  <Ligand_Instance>  (761) 
nan

>  <PDB_ID>  (761) 
nan

>  <Standardized_SMILES>  (761) 
N#Cc1ccc(Cc2cc(O)n3ncc(C(=O)Nc4c[nH]c5ncccc45)c3n2)cc1

>  <Name>  (761) 
nan

>  <Pocket>  (761) 
nan

>  <ATP_Site>  (761) 
nan

>  <Peripheral>  (761) 
nan

>  <Num_H_Atoms_ProtBoundConf>  (761) 
nan

>  <Num_Resolved_Atoms>  (761) 
nan

>  <Num_Not_Resolved_Atoms>  (761) 
nan

$$$$
CHEMBL2387467
     RDKit          3D

  0  0  0  0  0  0  0  0  0  0999 V3000
M  V30 BEGIN CTAB
M  V30 COUNTS 43 46 0 0 0
M  V30 BEGIN ATOM
M  V30 1 N 3.539047 -5.003170 4.673928 0
M  V30 2 C 3.372818 -4.408404 3.692352 0
M  V30 3 C 3.150197 -3.672829 2.483839 0
M  V30 4 C 1.881810 -3.254276 2.154927 0
M  V30 5 C 1.707168 -2.540498 0.969080 0
M  V30 6 C 2.813775 -2.269619 0.150774 0
M  V30 7 C 2.377914 -1.509161 -1.049721 0
M  V30 8 C 2.373336 -0.039704 -0.829574 0
M  V30 9 C 3.312250 0.929345 -1.093861 0
M  V30 10 C 3.016284 2.238055 -0.766921 0
M  V30 11 O 3.994230 3.163064 -1.055229 0
M  V30 12 N 1.834143 2.548391 -0.202676 0
M  V30 13 N 1.396960 3.735231 0.169515 0
M  V30 14 C 0.143318 3.617840 0.701691 0
M  V30 15 C -0.178130 2.259626 0.636989 0
M  V30 16 C -1.340931 1.431699 1.025096 0
M  V30 17 O -1.314580 1.479355 2.283124 0
M  V30 18 N -2.252306 0.755205 0.186179 0
M  V30 19 C -3.270122 0.031511 0.875981 0
M  V30 20 C -4.523321 0.431752 1.289772 0
M  V30 21 C -5.338200 -0.454308 1.945334 0
M  V30 22 C -4.932548 -1.742879 2.202614 0
M  V30 23 F -5.743237 -2.635463 2.858283 0
M  V30 24 C -3.676659 -2.186612 1.802385 0
M  V30 25 C -2.859161 -1.280456 1.139010 0
M  V30 26 C 0.924012 1.621360 0.055663 0
M  V30 27 N 1.195729 0.326468 -0.259063 0
M  V30 28 C 4.057833 -2.707411 0.520488 0
M  V30 29 C 4.246784 -3.412316 1.685998 0
M  V30 30 H 1.086069 -3.506442 2.844672 0
M  V30 31 H 0.666933 -2.256255 0.799123 0
M  V30 32 H 1.415379 -1.872596 -1.461456 0
M  V30 33 H 3.131677 -1.783994 -1.848884 0
M  V30 34 H 4.190339 0.515024 -1.540949 0
M  V30 35 H 4.447264 3.627685 -0.271108 0
M  V30 36 H -0.593818 4.284891 1.126937 0
M  V30 37 H -2.044680 0.882955 -0.849210 0
M  V30 38 H -4.728284 1.445139 1.038215 0
M  V30 39 H -6.294936 -0.107715 2.246067 0
M  V30 40 H -3.371314 -3.207562 2.014331 0
M  V30 41 H -1.893468 -1.715741 0.861114 0
M  V30 42 H 4.793681 -2.418692 -0.214053 0
M  V30 43 H 5.261711 -3.717874 1.898014 0
M  V30 END ATOM
M  V30 BEGIN BOND
M  V30 1 3 1 2
M  V30 2 1 2 3
M  V30 3 2 3 4
M  V30 4 1 4 5
M  V30 5 2 5 6
M  V30 6 1 6 7
M  V30 7 1 7 8
M  V30 8 1 8 9
M  V30 9 2 9 10
M  V30 10 1 10 11
M  V30 11 1 10 12
M  V30 12 1 12 13
M  V30 13 2 13 14
M  V30 14 1 14 15
M  V30 15 1 15 16
M  V30 16 2 16 17
M  V30 17 1 16 18
M  V30 18 1 18 19
M  V30 19 2 19 20
M  V30 20 1 20 21
M  V30 21 2 21 22
M  V30 22 1 22 23
M  V30 23 1 22 24
M  V30 24 2 24 25
M  V30 25 2 15 26
M  V30 26 1 26 27
M  V30 27 1 6 28
M  V30 28 2 28 29
M  V30 29 1 29 3
M  V30 30 2 27 8
M  V30 31 1 26 12
M  V30 32 1 25 19
M  V30 33 1 4 30
M  V30 34 1 5 31
M  V30 35 1 7 32
M  V30 36 1 7 33
M  V30 37 1 9 34
M  V30 38 1 11 35
M  V30 39 1 14 36
M  V30 40 1 18 37
M  V30 41 1 20 38
M  V30 42 1 21 39
M  V30 43 1 24 40
M  V30 44 1 25 41
M  V30 45 1 28 42
M  V30 46 1 29 43
M  V30 END BOND
M  V30 END CTAB
M  END
>  <Dataset>  (762) 
ChEMBL_Kinases

>  <Ligand_Instance>  (762) 
nan

>  <PDB_ID>  (762) 
nan

>  <Standardized_SMILES>  (762) 
N#Cc1ccc(Cc2cc(O)n3ncc(C(=O)Nc4ccc(F)cc4)c3n2)cc1

>  <Name>  (762) 
nan

>  <Pocket>  (762) 
nan

>  <ATP_Site>  (762) 
nan

>  <Peripheral>  (762) 
nan

>  <Num_H_Atoms_ProtBoundConf>  (762) 
nan

>  <Num_Resolved_Atoms>  (762) 
nan

>  <Num_Not_Resolved_Atoms>  (762) 
nan

$$$$
CHEMBL2387466
     RDKit          3D

  0  0  0  0  0  0  0  0  0  0999 V3000
M  V30 BEGIN CTAB
M  V30 COUNTS 44 47 0 0 0
M  V30 BEGIN ATOM
M  V30 1 O -0.212970 -3.456360 -0.261659 0
M  V30 2 C 0.064713 -2.302202 -0.660894 0
M  V30 3 N 1.391339 -1.889231 -0.824774 0
M  V30 4 C 2.575076 -2.621853 -0.592743 0
M  V30 5 C 2.674634 -3.913838 -0.146890 0
M  V30 6 C 3.857655 -4.583699 0.064844 0
M  V30 7 C 5.035274 -3.945512 -0.176328 0
M  V30 8 F 6.220251 -4.567538 0.021298 0
M  V30 9 C 4.982406 -2.644205 -0.626223 0
M  V30 10 C 3.776241 -2.000321 -0.828882 0
M  V30 11 C -1.200389 -1.619625 -0.872761 0
M  V30 12 C -2.211302 -1.889037 -1.775595 0
M  V30 13 N -3.212095 -0.987627 -1.608607 0
M  V30 14 N -2.868052 -0.152444 -0.626942 0
M  V30 15 C -3.610148 0.876669 -0.176340 0
M  V30 16 O -4.851466 1.210740 -0.682057 0
M  V30 17 C -3.085748 1.627558 0.846390 0
M  V30 18 C -1.857975 1.288485 1.338120 0
M  V30 19 C -1.110191 1.962936 2.439923 0
M  V30 20 C -0.742090 1.017158 3.530021 0
M  V30 21 C 0.722942 1.015887 3.841225 0
M  V30 22 N 1.495379 0.843038 2.647175 0
M  V30 23 C 1.269809 1.792105 1.613265 0
M  V30 24 C 0.072821 2.661060 1.808995 0
M  V30 25 N -1.183555 0.248428 0.833718 0
M  V30 26 C -1.668985 -0.511752 -0.172587 0
M  V30 27 H 1.430871 -0.906026 -1.162226 0
M  V30 28 H 1.779046 -4.472936 0.060975 0
M  V30 29 H 3.854516 -5.617049 0.422543 0
M  V30 30 H 5.873258 -2.071071 -0.839560 0
M  V30 31 H 3.775854 -0.961259 -1.189311 0
M  V30 32 H -2.105080 -2.731261 -2.469127 0
M  V30 33 H -4.992714 1.931474 -1.374260 0
M  V30 34 H -3.562684 2.480700 1.310152 0
M  V30 35 H -1.765625 2.768496 2.837906 0
M  V30 36 H -0.989173 -0.032723 3.217528 0
M  V30 37 H -1.296136 1.180568 4.491209 0
M  V30 38 H 1.026726 1.965888 4.332292 0
M  V30 39 H 0.937944 0.109088 4.479167 0
M  V30 40 H 1.693941 -0.123758 2.369104 0
M  V30 41 H 2.162504 2.480638 1.568235 0
M  V30 42 H 1.207975 1.258462 0.638427 0
M  V30 43 H 0.300426 3.578352 2.416663 0
M  V30 44 H -0.257336 3.032776 0.816178 0
M  V30 END ATOM
M  V30 BEGIN BOND
M  V30 1 2 1 2
M  V30 2 1 2 3
M  V30 3 1 3 4
M  V30 4 2 4 5
M  V30 5 1 5 6
M  V30 6 2 6 7
M  V30 7 1 7 8
M  V30 8 1 7 9
M  V30 9 2 9 10
M  V30 10 1 2 11
M  V30 11 1 11 12
M  V30 12 2 12 13
M  V30 13 1 13 14
M  V30 14 1 14 15
M  V30 15 1 15 16
M  V30 16 2 15 17
M  V30 17 1 17 18
M  V30 18 1 18 19
M  V30 19 1 19 20
M  V30 20 1 20 21
M  V30 21 1 21 22
M  V30 22 1 22 23
M  V30 23 1 23 24
M  V30 24 2 18 25
M  V30 25 1 25 26
M  V30 26 1 10 4
M  V30 27 2 26 11
M  V30 28 1 26 14
M  V30 29 1 24 19
M  V30 30 1 3 27
M  V30 31 1 5 28
M  V30 32 1 6 29
M  V30 33 1 9 30
M  V30 34 1 10 31
M  V30 35 1 12 32
M  V30 36 1 16 33
M  V30 37 1 17 34
M  V30 38 1 19 35
M  V30 39 1 20 36
M  V30 40 1 20 37
M  V30 41 1 21 38
M  V30 42 1 21 39
M  V30 43 1 22 40
M  V30 44 1 23 41
M  V30 45 1 23 42
M  V30 46 1 24 43
M  V30 47 1 24 44
M  V30 END BOND
M  V30 END CTAB
M  END
>  <Dataset>  (763) 
ChEMBL_Kinases

>  <Ligand_Instance>  (763) 
nan

>  <PDB_ID>  (763) 
nan

>  <Standardized_SMILES>  (763) 
O=C(Nc1ccc(F)cc1)c1cnn2c(O)cc(C3CCNCC3)nc12

>  <Name>  (763) 
nan

>  <Pocket>  (763) 
nan

>  <ATP_Site>  (763) 
nan

>  <Peripheral>  (763) 
nan

>  <Num_H_Atoms_ProtBoundConf>  (763) 
nan

>  <Num_Resolved_Atoms>  (763) 
nan

>  <Num_Not_Resolved_Atoms>  (763) 
nan

$$$$
CHEMBL2387462
     RDKit          3D

  0  0  0  0  0  0  0  0  0  0999 V3000
M  V30 BEGIN CTAB
M  V30 COUNTS 51 55 0 0 0
M  V30 BEGIN ATOM
M  V30 1 O 2.810342 -0.154889 -0.351329 0
M  V30 2 C 2.948943 -1.423872 -0.176240 0
M  V30 3 N 4.087115 -1.761328 0.582190 0
M  V30 4 C 4.768512 -0.567125 0.942152 0
M  V30 5 C 4.574616 0.158510 2.109716 0
M  V30 6 N 5.410319 1.213155 2.041948 0
M  V30 7 C 6.105584 1.172504 0.896938 0
M  V30 8 N 7.027684 2.048705 0.473776 0
M  V30 9 C 7.643928 1.871220 -0.718071 0
M  V30 10 C 7.274019 0.755615 -1.460176 0
M  V30 11 C 6.319672 -0.175530 -1.051710 0
M  V30 12 C 5.727674 0.063628 0.177393 0
M  V30 13 C 1.866650 -2.148597 -0.825850 0
M  V30 14 C 2.072142 -3.303302 -1.578561 0
M  V30 15 N 0.823845 -3.625376 -1.989294 0
M  V30 16 N -0.073406 -2.784742 -1.556732 0
M  V30 17 C -1.427426 -2.747747 -1.745537 0
M  V30 18 C -2.162522 -1.723404 -1.169096 0
M  V30 19 C -1.508861 -0.764788 -0.417010 0
M  V30 20 N -2.183009 0.317247 0.204755 0
M  V30 21 C -2.864656 0.706199 1.384439 0
M  V30 22 C -4.145356 0.008305 1.691486 0
M  V30 23 F -5.081780 0.190886 0.672749 0
M  V30 24 C -4.050486 -1.438768 2.024491 0
M  V30 25 C -5.475911 -1.989259 1.982916 0
M  V30 26 N -6.292257 -1.320185 2.939073 0
M  V30 27 C -6.221989 0.101507 2.954664 0
M  V30 28 C -4.824682 0.660857 2.916511 0
M  V30 29 N -0.161634 -0.812619 -0.235715 0
M  V30 30 C 0.526297 -1.830910 -0.816232 0
M  V30 31 H 4.135927 -2.819414 0.685457 0
M  V30 32 H 3.871793 -0.109726 2.905307 0
M  V30 33 H 5.419308 1.893266 2.835157 0
M  V30 34 H 8.408012 2.510429 -1.168852 0
M  V30 35 H 7.709139 0.525137 -2.433878 0
M  V30 36 H 6.037093 -1.037602 -1.629741 0
M  V30 37 H 2.967917 -3.868346 -1.825417 0
M  V30 38 H -1.862710 -3.530657 -2.343880 0
M  V30 39 H -3.229279 -1.673058 -1.301827 0
M  V30 40 H -2.063471 0.996453 -0.608965 0
M  V30 41 H -3.111489 1.796940 1.277887 0
M  V30 42 H -2.227150 0.670874 2.300572 0
M  V30 43 H -3.340475 -2.033875 1.445263 0
M  V30 44 H -3.744988 -1.533202 3.107394 0
M  V30 45 H -5.898027 -1.900444 0.945416 0
M  V30 46 H -5.500784 -3.068423 2.211254 0
M  V30 47 H -6.203892 -1.763492 3.857187 0
M  V30 48 H -6.702550 0.467814 3.882958 0
M  V30 49 H -6.803854 0.541913 2.120650 0
M  V30 50 H -4.896157 1.747193 2.755073 0
M  V30 51 H -4.230024 0.365617 3.804003 0
M  V30 END ATOM
M  V30 BEGIN BOND
M  V30 1 2 1 2
M  V30 2 1 2 3
M  V30 3 1 3 4
M  V30 4 2 4 5
M  V30 5 1 5 6
M  V30 6 1 6 7
M  V30 7 2 7 8
M  V30 8 1 8 9
M  V30 9 2 9 10
M  V30 10 1 10 11
M  V30 11 2 11 12
M  V30 12 1 2 13
M  V30 13 1 13 14
M  V30 14 2 14 15
M  V30 15 1 15 16
M  V30 16 1 16 17
M  V30 17 2 17 18
M  V30 18 1 18 19
M  V30 19 1 19 20
M  V30 20 1 20 21
M  V30 21 1 21 22
M  V30 22 1 22 23
M  V30 23 1 22 24
M  V30 24 1 24 25
M  V30 25 1 25 26
M  V30 26 1 26 27
M  V30 27 1 27 28
M  V30 28 2 19 29
M  V30 29 1 29 30
M  V30 30 1 12 4
M  V30 31 2 30 13
M  V30 32 1 12 7
M  V30 33 1 30 16
M  V30 34 1 28 22
M  V30 35 1 3 31
M  V30 36 1 5 32
M  V30 37 1 6 33
M  V30 38 1 9 34
M  V30 39 1 10 35
M  V30 40 1 11 36
M  V30 41 1 14 37
M  V30 42 1 17 38
M  V30 43 1 18 39
M  V30 44 1 20 40
M  V30 45 1 21 41
M  V30 46 1 21 42
M  V30 47 1 24 43
M  V30 48 1 24 44
M  V30 49 1 25 45
M  V30 50 1 25 46
M  V30 51 1 26 47
M  V30 52 1 27 48
M  V30 53 1 27 49
M  V30 54 1 28 50
M  V30 55 1 28 51
M  V30 END BOND
M  V30 END CTAB
M  END
>  <Dataset>  (764) 
ChEMBL_Kinases

>  <Ligand_Instance>  (764) 
nan

>  <PDB_ID>  (764) 
nan

>  <Standardized_SMILES>  (764) 
O=C(Nc1c[nH]c2ncccc12)c1cnn2ccc(NCC3(F)CCNCC3)nc12

>  <Name>  (764) 
nan

>  <Pocket>  (764) 
nan

>  <ATP_Site>  (764) 
nan

>  <Peripheral>  (764) 
nan

>  <Num_H_Atoms_ProtBoundConf>  (764) 
nan

>  <Num_Resolved_Atoms>  (764) 
nan

>  <Num_Not_Resolved_Atoms>  (764) 
nan

$$$$
CHEMBL4741620
     RDKit          3D

  0  0  0  0  0  0  0  0  0  0999 V3000
M  V30 BEGIN CTAB
M  V30 COUNTS 47 51 0 0 0
M  V30 BEGIN ATOM
M  V30 1 N -4.226444 -5.768505 -0.848702 0
M  V30 2 C -3.179278 -6.608851 -0.330259 0
M  V30 3 C -2.000978 -6.816860 -1.263924 0
M  V30 4 N -1.401286 -5.617759 -0.682923 0
M  V30 5 C -0.484608 -4.557678 -1.030334 0
M  V30 6 C -0.152145 -3.547865 -0.156726 0
M  V30 7 C 0.737083 -2.607986 -0.635101 0
M  V30 8 C 1.107244 -1.525442 0.270796 0
M  V30 9 O 0.610128 -1.494792 1.426637 0
M  V30 10 N 2.009477 -0.482822 -0.071789 0
M  V30 11 C 2.262015 0.497771 0.933097 0
M  V30 12 C 1.430735 1.607037 0.953000 0
M  V30 13 C 1.629530 2.587974 1.904443 0
M  V30 14 C 0.800688 3.715862 1.941074 0
M  V30 15 C 0.991531 4.686861 2.876942 0
M  V30 16 C 0.089038 5.832761 2.853718 0
M  V30 17 C 0.040323 6.956604 3.667380 0
M  V30 18 N -0.971046 7.750082 3.264847 0
M  V30 19 C -1.533872 7.109635 2.210552 0
M  V30 20 O -0.884750 5.989323 2.000028 0
M  V30 21 C 2.003200 4.569191 3.798257 0
M  V30 22 C 2.852182 3.472964 3.806057 0
M  V30 23 C 2.646386 2.504264 2.857001 0
M  V30 24 C 3.450188 1.360970 2.783510 0
M  V30 25 N 3.254384 0.406447 1.855326 0
M  V30 26 C 1.247077 -2.691887 -1.905230 0
M  V30 27 C 0.879093 -3.728140 -2.741977 0
M  V30 28 N 0.013225 -4.647515 -2.282859 0
M  V30 29 C -2.155316 -5.913853 0.523530 0
M  V30 30 H -5.119317 -6.310865 -0.839906 0
M  V30 31 H -4.042940 -5.456502 -1.823986 0
M  V30 32 H -3.505103 -7.597448 0.066532 0
M  V30 33 H -1.448202 -7.750580 -1.105940 0
M  V30 34 H -2.333028 -6.585456 -2.293194 0
M  V30 35 H -0.583268 -3.539107 0.817598 0
M  V30 36 H 2.440047 -0.472057 -1.013244 0
M  V30 37 H 0.641671 1.693602 0.230405 0
M  V30 38 H 0.018844 3.744923 1.181585 0
M  V30 39 H 0.747061 7.091353 4.477547 0
M  V30 40 H -2.382270 7.540672 1.692876 0
M  V30 41 H 2.161117 5.351310 4.556271 0
M  V30 42 H 3.660554 3.351307 4.521029 0
M  V30 43 H 4.256968 1.256091 3.509759 0
M  V30 44 H 1.932965 -1.977743 -2.291519 0
M  V30 45 H 1.288098 -3.783661 -3.741791 0
M  V30 46 H -1.646565 -6.567368 1.256589 0
M  V30 47 H -2.560350 -4.970532 0.944615 0
M  V30 END ATOM
M  V30 BEGIN BOND
M  V30 1 1 1 2
M  V30 2 1 2 3
M  V30 3 1 3 4
M  V30 4 1 4 5
M  V30 5 2 5 6
M  V30 6 1 6 7
M  V30 7 1 7 8
M  V30 8 2 8 9
M  V30 9 1 8 10
M  V30 10 1 10 11
M  V30 11 2 11 12
M  V30 12 1 12 13
M  V30 13 2 13 14
M  V30 14 1 14 15
M  V30 15 1 15 16
M  V30 16 2 16 17
M  V30 17 1 17 18
M  V30 18 2 18 19
M  V30 19 1 19 20
M  V30 20 2 15 21
M  V30 21 1 21 22
M  V30 22 2 22 23
M  V30 23 1 23 24
M  V30 24 2 24 25
M  V30 25 2 7 26
M  V30 26 1 26 27
M  V30 27 2 27 28
M  V30 28 1 4 29
M  V30 29 1 29 2
M  V30 30 1 28 5
M  V30 31 1 25 11
M  V30 32 1 23 13
M  V30 33 1 20 16
M  V30 34 1 1 30
M  V30 35 1 1 31
M  V30 36 1 2 32
M  V30 37 1 3 33
M  V30 38 1 3 34
M  V30 39 1 6 35
M  V30 40 1 10 36
M  V30 41 1 12 37
M  V30 42 1 14 38
M  V30 43 1 17 39
M  V30 44 1 19 40
M  V30 45 1 21 41
M  V30 46 1 22 42
M  V30 47 1 24 43
M  V30 48 1 26 44
M  V30 49 1 27 45
M  V30 50 1 29 46
M  V30 51 1 29 47
M  V30 END BOND
M  V30 END CTAB
M  END
>  <Dataset>  (765) 
ChEMBL_Kinases

>  <Ligand_Instance>  (765) 
nan

>  <PDB_ID>  (765) 
nan

>  <Standardized_SMILES>  (765) 
NC1CN(c2cc(C(=O)Nc3cc4cc(-c5cnco5)ccc4cn3)ccn2)C1

>  <Name>  (765) 
nan

>  <Pocket>  (765) 
nan

>  <ATP_Site>  (765) 
nan

>  <Peripheral>  (765) 
nan

>  <Num_H_Atoms_ProtBoundConf>  (765) 
nan

>  <Num_Resolved_Atoms>  (765) 
nan

>  <Num_Not_Resolved_Atoms>  (765) 
nan

$$$$
CHEMBL4741593
     RDKit          3D

  0  0  0  0  0  0  0  0  0  0999 V3000
M  V30 BEGIN CTAB
M  V30 COUNTS 56 61 0 0 0
M  V30 BEGIN ATOM
M  V30 1 C 1.868591 -4.529236 4.567707 0
M  V30 2 C 3.237632 -4.652070 4.678223 0
M  V30 3 N 4.080689 -3.799795 4.064417 0
M  V30 4 C 3.573618 -2.802523 3.323499 0
M  V30 5 N 4.172596 -1.808794 2.602034 0
M  V30 6 C 3.288698 -0.998992 1.993174 0
M  V30 7 C 3.728783 0.112431 1.181960 0
M  V30 8 N 5.007850 0.438700 0.962032 0
M  V30 9 N 5.130699 1.494814 0.183959 0
M  V30 10 C 3.908664 1.934491 -0.160799 0
M  V30 11 C 3.502179 2.979227 -0.940680 0
M  V30 12 C 2.142669 3.173175 -1.107836 0
M  V30 13 C 1.237628 2.329567 -0.499936 0
M  V30 14 C -0.141851 2.643803 -0.760388 0
M  V30 15 C -0.515086 3.953893 -0.953029 0
M  V30 16 N -1.783760 4.368256 -1.208665 0
M  V30 17 C -2.793767 3.453489 -1.288963 0
M  V30 18 C -2.460795 2.123194 -1.101021 0
M  V30 19 O -3.403344 1.136532 -1.162934 0
M  V30 20 C -3.165470 -0.245967 -0.985516 0
M  V30 21 C -4.466761 -0.957219 -1.136627 0
M  V30 22 N -4.438053 -2.369603 -0.990875 0
M  V30 23 C -4.152584 -2.837592 0.330794 0
M  V30 24 C -3.180704 -3.966555 0.255917 0
M  V30 25 C -2.889318 -4.153825 -1.202126 0
M  V30 26 C -3.690066 -3.101855 -1.934709 0
M  V30 27 C -1.172088 1.700800 -0.841414 0
M  V30 28 C 1.717989 1.297229 0.271919 0
M  V30 29 C 3.049578 1.063119 0.468640 0
M  V30 30 C 2.082455 -1.516929 2.355978 0
M  V30 31 C 2.207383 -2.620238 3.169099 0
M  V30 32 C 1.355730 -3.504926 3.806839 0
M  V30 33 H 1.185700 -5.207418 5.056739 0
M  V30 34 H 3.662050 -5.473361 5.283723 0
M  V30 35 H 5.232118 -1.769224 2.588829 0
M  V30 36 H 6.069993 1.867164 -0.076438 0
M  V30 37 H 4.234015 3.623058 -1.404405 0
M  V30 38 H 1.856666 4.009941 -1.730208 0
M  V30 39 H 0.149543 4.791593 -0.922094 0
M  V30 40 H -3.806056 3.769057 -1.491744 0
M  V30 41 H -2.388090 -0.535236 -1.692507 0
M  V30 42 H -2.767297 -0.468162 0.032372 0
M  V30 43 H -5.165364 -0.550031 -0.371065 0
M  V30 44 H -4.900366 -0.679749 -2.110781 0
M  V30 45 H -3.860381 -2.028409 1.024623 0
M  V30 46 H -5.117365 -3.239858 0.736938 0
M  V30 47 H -3.578733 -4.894203 0.739095 0
M  V30 48 H -2.240964 -3.751716 0.834081 0
M  V30 49 H -1.806030 -4.063629 -1.381140 0
M  V30 50 H -3.189157 -5.184139 -1.464746 0
M  V30 51 H -4.415745 -3.670609 -2.587499 0
M  V30 52 H -3.085032 -2.524188 -2.651782 0
M  V30 53 H -0.916646 0.659632 -0.694859 0
M  V30 54 H 0.996337 0.653213 0.735090 0
M  V30 55 H 1.132626 -1.161838 2.079680 0
M  V30 56 H 0.301901 -3.314353 3.650269 0
M  V30 END ATOM
M  V30 BEGIN BOND
M  V30 1 2 1 2
M  V30 2 1 2 3
M  V30 3 2 3 4
M  V30 4 1 4 5
M  V30 5 1 5 6
M  V30 6 1 6 7
M  V30 7 2 7 8
M  V30 8 1 8 9
M  V30 9 1 9 10
M  V30 10 2 10 11
M  V30 11 1 11 12
M  V30 12 2 12 13
M  V30 13 1 13 14
M  V30 14 2 14 15
M  V30 15 1 15 16
M  V30 16 2 16 17
M  V30 17 1 17 18
M  V30 18 1 18 19
M  V30 19 1 19 20
M  V30 20 1 20 21
M  V30 21 1 21 22
M  V30 22 1 22 23
M  V30 23 1 23 24
M  V30 24 1 24 25
M  V30 25 1 25 26
M  V30 26 2 18 27
M  V30 27 1 13 28
M  V30 28 2 28 29
M  V30 29 2 6 30
M  V30 30 1 30 31
M  V30 31 2 31 32
M  V30 32 1 32 1
M  V30 33 1 31 4
M  V30 34 1 29 7
M  V30 35 1 29 10
M  V30 36 1 27 14
M  V30 37 1 26 22
M  V30 38 1 1 33
M  V30 39 1 2 34
M  V30 40 1 5 35
M  V30 41 1 9 36
M  V30 42 1 11 37
M  V30 43 1 12 38
M  V30 44 1 15 39
M  V30 45 1 17 40
M  V30 46 1 20 41
M  V30 47 1 20 42
M  V30 48 1 21 43
M  V30 49 1 21 44
M  V30 50 1 23 45
M  V30 51 1 23 46
M  V30 52 1 24 47
M  V30 53 1 24 48
M  V30 54 1 25 49
M  V30 55 1 25 50
M  V30 56 1 26 51
M  V30 57 1 26 52
M  V30 58 1 27 53
M  V30 59 1 28 54
M  V30 60 1 30 55
M  V30 61 1 32 56
M  V30 END BOND
M  V30 END CTAB
M  END
>  <Dataset>  (766) 
ChEMBL_Kinases

>  <Ligand_Instance>  (766) 
nan

>  <PDB_ID>  (766) 
nan

>  <Standardized_SMILES>  (766) 
c1cnc2[nH]c(-c3n[nH]c4ccc(-c5cncc(OCCN6CCCC6)c5)cc34)cc2c1

>  <Name>  (766) 
nan

>  <Pocket>  (766) 
nan

>  <ATP_Site>  (766) 
nan

>  <Peripheral>  (766) 
nan

>  <Num_H_Atoms_ProtBoundConf>  (766) 
nan

>  <Num_Resolved_Atoms>  (766) 
nan

>  <Num_Not_Resolved_Atoms>  (766) 
nan

$$$$
CHEMBL4741555
     RDKit          3D

  0  0  0  0  0  0  0  0  0  0999 V3000
M  V30 BEGIN CTAB
M  V30 COUNTS 61 67 0 0 0
M  V30 BEGIN ATOM
M  V30 1 C 2.760916 -4.585396 1.949266 0
M  V30 2 C 1.426300 -4.234809 1.758205 0
M  V30 3 S 1.550581 -2.368954 1.462313 0
M  V30 4 C 3.421763 -2.330194 1.642650 0
M  V30 5 C 4.269961 -1.199867 1.541925 0
M  V30 6 N 5.577620 -1.414863 1.716468 0
M  V30 7 C 6.471706 -0.418614 1.647742 0
M  V30 8 C 6.012505 0.854374 1.389517 0
M  V30 9 C 4.671386 1.118253 1.203343 0
M  V30 10 N 3.935748 2.212436 0.945206 0
M  V30 11 C 2.618585 1.952555 0.847602 0
M  V30 12 C 1.667989 3.004000 0.578136 0
M  V30 13 N 2.002621 4.295380 0.408186 0
M  V30 14 N 0.942772 5.036971 0.177499 0
M  V30 15 C -0.169674 4.283792 0.178993 0
M  V30 16 C -1.502522 4.577195 -0.009945 0
M  V30 17 N -2.347188 3.533708 0.065281 0
M  V30 18 C -1.961917 2.262094 0.308023 0
M  V30 19 C -2.980873 1.251517 0.360231 0
M  V30 20 C -4.292992 1.614565 0.167208 0
M  V30 21 N -5.346258 0.770137 0.186450 0
M  V30 22 C -5.111587 -0.534808 0.411018 0
M  V30 23 C -3.812087 -1.011107 0.619940 0
M  V30 24 C -3.623225 -2.446670 0.861878 0
M  V30 25 N -3.446510 -3.259277 -0.283902 0
M  V30 26 C -3.250546 -4.645726 -0.093625 0
M  V30 27 C -1.964986 -5.219573 -0.581133 0
M  V30 28 C -1.015198 -4.160733 -1.110890 0
M  V30 29 C -1.723944 -3.248413 -2.061719 0
M  V30 30 C -2.982901 -2.663796 -1.473965 0
M  V30 31 C -2.760152 -0.088196 0.588710 0
M  V30 32 C -0.626784 2.020543 0.489176 0
M  V30 33 C 0.306225 3.015078 0.431316 0
M  V30 34 C 2.566297 0.605882 1.063335 0
M  V30 35 C 3.804715 0.059869 1.285079 0
M  V30 36 C 3.738713 -3.643671 1.891239 0
M  V30 37 H 2.846762 -5.640295 2.132018 0
M  V30 38 H 0.491119 -4.671043 1.736984 0
M  V30 39 H 7.511149 -0.649647 1.796324 0
M  V30 40 H 6.716391 1.672599 1.329927 0
M  V30 41 H 4.460202 3.122482 0.851400 0
M  V30 42 H 0.989579 6.073423 0.017615 0
M  V30 43 H -1.850689 5.582029 -0.206483 0
M  V30 44 H -4.576668 2.643694 -0.020358 0
M  V30 45 H -5.922924 -1.245176 0.435127 0
M  V30 46 H -4.556375 -2.817854 1.381249 0
M  V30 47 H -2.820264 -2.639214 1.632905 0
M  V30 48 H -3.337999 -4.842324 1.011051 0
M  V30 49 H -4.105070 -5.229396 -0.528693 0
M  V30 50 H -2.166120 -5.884219 -1.472021 0
M  V30 51 H -1.433232 -5.858826 0.133768 0
M  V30 52 H -0.202454 -4.652387 -1.681236 0
M  V30 53 H -0.586410 -3.659944 -0.241875 0
M  V30 54 H -1.934918 -3.851743 -2.986588 0
M  V30 55 H -1.050031 -2.427213 -2.357692 0
M  V30 56 H -3.784303 -2.785596 -2.260497 0
M  V30 57 H -2.876579 -1.576169 -1.356920 0
M  V30 58 H -1.759841 -0.429196 0.745933 0
M  V30 59 H -0.327732 1.021020 0.679446 0
M  V30 60 H 1.658035 0.041404 1.059212 0
M  V30 61 H 4.763499 -3.950705 2.044080 0
M  V30 END ATOM
M  V30 BEGIN BOND
M  V30 1 2 1 2
M  V30 2 1 2 3
M  V30 3 1 3 4
M  V30 4 1 4 5
M  V30 5 2 5 6
M  V30 6 1 6 7
M  V30 7 2 7 8
M  V30 8 1 8 9
M  V30 9 1 9 10
M  V30 10 1 10 11
M  V30 11 1 11 12
M  V30 12 2 12 13
M  V30 13 1 13 14
M  V30 14 1 14 15
M  V30 15 2 15 16
M  V30 16 1 16 17
M  V30 17 2 17 18
M  V30 18 1 18 19
M  V30 19 2 19 20
M  V30 20 1 20 21
M  V30 21 2 21 22
M  V30 22 1 22 23
M  V30 23 1 23 24
M  V30 24 1 24 25
M  V30 25 1 25 26
M  V30 26 1 26 27
M  V30 27 1 27 28
M  V30 28 1 28 29
M  V30 29 1 29 30
M  V30 30 2 23 31
M  V30 31 1 18 32
M  V30 32 2 32 33
M  V30 33 2 11 34
M  V30 34 1 34 35
M  V30 35 2 4 36
M  V30 36 1 36 1
M  V30 37 1 35 5
M  V30 38 2 35 9
M  V30 39 1 33 12
M  V30 40 1 33 15
M  V30 41 1 31 19
M  V30 42 1 30 25
M  V30 43 1 1 37
M  V30 44 1 2 38
M  V30 45 1 7 39
M  V30 46 1 8 40
M  V30 47 1 10 41
M  V30 48 1 14 42
M  V30 49 1 16 43
M  V30 50 1 20 44
M  V30 51 1 22 45
M  V30 52 1 24 46
M  V30 53 1 24 47
M  V30 54 1 26 48
M  V30 55 1 26 49
M  V30 56 1 27 50
M  V30 57 1 27 51
M  V30 58 1 28 52
M  V30 59 1 28 53
M  V30 60 1 29 54
M  V30 61 1 29 55
M  V30 62 1 30 56
M  V30 63 1 30 57
M  V30 64 1 31 58
M  V30 65 1 32 59
M  V30 66 1 34 60
M  V30 67 1 36 61
M  V30 END BOND
M  V30 END CTAB
M  END
>  <Dataset>  (767) 
ChEMBL_Kinases

>  <Ligand_Instance>  (767) 
nan

>  <PDB_ID>  (767) 
nan

>  <Standardized_SMILES>  (767) 
c1csc(-c2nccc3[nH]c(-c4n[nH]c5cnc(-c6cncc(CN7CCCCC7)c6)cc45)cc23)c1

>  <Name>  (767) 
nan

>  <Pocket>  (767) 
nan

>  <ATP_Site>  (767) 
nan

>  <Peripheral>  (767) 
nan

>  <Num_H_Atoms_ProtBoundConf>  (767) 
nan

>  <Num_Resolved_Atoms>  (767) 
nan

>  <Num_Not_Resolved_Atoms>  (767) 
nan

$$$$
CHEMBL4741533
     RDKit          3D

  0  0  0  0  0  0  0  0  0  0999 V3000
M  V30 BEGIN CTAB
M  V30 COUNTS 61 66 0 0 0
M  V30 BEGIN ATOM
M  V30 1 C 4.194455 -0.991062 7.398841 0
M  V30 2 C 4.623047 -1.434291 6.012384 0
M  V30 3 C 3.561752 -2.387811 5.474247 0
M  V30 4 C 3.947714 -2.853270 4.096841 0
M  V30 5 C 4.071665 -1.690356 3.147861 0
M  V30 6 O 3.948507 -0.435775 3.162595 0
M  V30 7 N 4.438699 -2.052178 1.803394 0
M  V30 8 C 4.544737 -0.906006 0.933428 0
M  V30 9 C 5.759327 -0.239375 0.798152 0
M  V30 10 N 5.814469 0.827323 -0.025164 0
M  V30 11 C 4.714592 1.245482 -0.708315 0
M  V30 12 C 3.496537 0.614748 -0.602444 0
M  V30 13 C 2.382149 1.143377 -1.377035 0
M  V30 14 C 1.114470 0.607462 -1.362071 0
M  V30 15 C 0.094787 1.137172 -2.107144 0
M  V30 16 C -1.218538 0.755129 -2.228089 0
M  V30 17 C -1.993048 -0.311438 -1.636432 0
M  V30 18 C -3.336719 -0.493676 -1.924673 0
M  V30 19 C -3.865839 -1.567121 -1.249005 0
M  V30 20 C -5.111536 -2.152536 -1.185806 0
M  V30 21 C -6.222120 -1.627035 -1.967357 0
M  V30 22 C -7.382689 -1.491023 -1.196981 0
M  V30 23 C -8.550384 -1.011851 -1.752644 0
M  V30 24 C -8.571236 -0.662757 -3.086294 0
M  V30 25 N -7.450608 -0.801716 -3.800830 0
M  V30 26 C -6.298123 -1.264094 -3.293804 0
M  V30 27 C -5.327696 -3.264164 -0.376269 0
M  V30 28 C -4.237266 -3.720913 0.334314 0
M  V30 29 N -3.020801 -3.151102 0.273761 0
M  V30 30 C -2.823759 -2.079322 -0.510228 0
M  V30 31 N -1.764176 -1.305278 -0.779671 0
M  V30 32 N -1.691671 1.677996 -3.107331 0
M  V30 33 N -0.753107 2.524419 -3.472732 0
M  V30 34 C 0.397945 2.230642 -2.871374 0
M  V30 35 C 1.654534 2.794968 -2.912295 0
M  V30 36 N 2.618007 2.219000 -2.148873 0
M  V30 37 C 3.431896 -0.474254 0.235389 0
M  V30 38 H 3.152905 -0.583220 7.299145 0
M  V30 39 H 4.140311 -1.814283 8.122358 0
M  V30 40 H 4.867448 -0.167871 7.751553 0
M  V30 41 H 5.594059 -1.961788 6.058575 0
M  V30 42 H 4.648964 -0.525618 5.390395 0
M  V30 43 H 2.561130 -1.957861 5.530579 0
M  V30 44 H 3.572433 -3.286253 6.122418 0
M  V30 45 H 3.178585 -3.568032 3.732752 0
M  V30 46 H 4.917653 -3.368332 4.144568 0
M  V30 47 H 4.627601 -3.020017 1.412531 0
M  V30 48 H 6.597952 -0.622131 1.369363 0
M  V30 49 H 4.911301 2.103574 -1.321617 0
M  V30 50 H 0.967311 -0.236273 -0.744497 0
M  V30 51 H -3.971369 0.092142 -2.587454 0
M  V30 52 H -7.462356 -1.742353 -0.130827 0
M  V30 53 H -9.485930 -0.878669 -1.223138 0
M  V30 54 H -9.436287 -0.275433 -3.623296 0
M  V30 55 H -5.360015 -1.404846 -3.811103 0
M  V30 56 H -6.309895 -3.721155 -0.329775 0
M  V30 57 H -4.434995 -4.593110 0.960442 0
M  V30 58 H -0.853524 -1.501175 -0.332627 0
M  V30 59 H -0.975567 3.289644 -4.147201 0
M  V30 60 H 1.824701 3.658597 -3.538159 0
M  V30 61 H 2.509794 -0.985467 0.342101 0
M  V30 END ATOM
M  V30 BEGIN BOND
M  V30 1 1 1 2
M  V30 2 1 2 3
M  V30 3 1 3 4
M  V30 4 1 4 5
M  V30 5 2 5 6
M  V30 6 1 5 7
M  V30 7 1 7 8
M  V30 8 2 8 9
M  V30 9 1 9 10
M  V30 10 2 10 11
M  V30 11 1 11 12
M  V30 12 1 12 13
M  V30 13 2 13 14
M  V30 14 1 14 15
M  V30 15 1 15 16
M  V30 16 1 16 17
M  V30 17 2 17 18
M  V30 18 1 18 19
M  V30 19 2 19 20
M  V30 20 1 20 21
M  V30 21 2 21 22
M  V30 22 1 22 23
M  V30 23 2 23 24
M  V30 24 1 24 25
M  V30 25 2 25 26
M  V30 26 1 20 27
M  V30 27 2 27 28
M  V30 28 1 28 29
M  V30 29 2 29 30
M  V30 30 1 30 31
M  V30 31 2 16 32
M  V30 32 1 32 33
M  V30 33 1 33 34
M  V30 34 1 34 35
M  V30 35 2 35 36
M  V30 36 2 12 37
M  V30 37 1 37 8
M  V30 38 1 36 13
M  V30 39 2 34 15
M  V30 40 1 31 17
M  V30 41 1 30 19
M  V30 42 1 26 21
M  V30 43 1 1 38
M  V30 44 1 1 39
M  V30 45 1 1 40
M  V30 46 1 2 41
M  V30 47 1 2 42
M  V30 48 1 3 43
M  V30 49 1 3 44
M  V30 50 1 4 45
M  V30 51 1 4 46
M  V30 52 1 7 47
M  V30 53 1 9 48
M  V30 54 1 11 49
M  V30 55 1 14 50
M  V30 56 1 18 51
M  V30 57 1 22 52
M  V30 58 1 23 53
M  V30 59 1 24 54
M  V30 60 1 26 55
M  V30 61 1 27 56
M  V30 62 1 28 57
M  V30 63 1 31 58
M  V30 64 1 33 59
M  V30 65 1 35 60
M  V30 66 1 37 61
M  V30 END BOND
M  V30 END CTAB
M  END
>  <Dataset>  (768) 
ChEMBL_Kinases

>  <Ligand_Instance>  (768) 
nan

>  <PDB_ID>  (768) 
nan

>  <Standardized_SMILES>  (768) 
CCCCC(=O)Nc1cncc(-c2cc3c(-c4cc5c(-c6cccnc6)ccnc5[nH]4)n[nH]c3cn2)c1

>  <Name>  (768) 
nan

>  <Pocket>  (768) 
nan

>  <ATP_Site>  (768) 
nan

>  <Peripheral>  (768) 
nan

>  <Num_H_Atoms_ProtBoundConf>  (768) 
nan

>  <Num_Resolved_Atoms>  (768) 
nan

>  <Num_Not_Resolved_Atoms>  (768) 
nan

$$$$
CHEMBL4741528
     RDKit          3D

  0  0  0  0  0  0  0  0  0  0999 V3000
M  V30 BEGIN CTAB
M  V30 COUNTS 45 50 0 0 0
M  V30 BEGIN ATOM
M  V30 1 F -2.739039 -3.736021 -2.445820 0
M  V30 2 C -1.828748 -2.736675 -2.542688 0
M  V30 3 C -0.727826 -2.905035 -3.342436 0
M  V30 4 C 0.217804 -1.920834 -3.469587 0
M  V30 5 C 0.068152 -0.733405 -2.783373 0
M  V30 6 C 0.893829 0.469049 -2.740952 0
M  V30 7 C 1.290881 1.090176 -3.921782 0
M  V30 8 N 2.034696 2.204251 -3.801262 0
M  V30 9 C 2.396049 2.721087 -2.613691 0
M  V30 10 C 2.030501 2.146047 -1.412369 0
M  V30 11 N 2.211422 2.378750 -0.104076 0
M  V30 12 C 1.620430 1.466190 0.687254 0
M  V30 13 C 1.719072 1.565907 2.125202 0
M  V30 14 N 2.377901 2.527703 2.790043 0
M  V30 15 N 2.295702 2.362808 4.095030 0
M  V30 16 C 1.572860 1.274177 4.399739 0
M  V30 17 N 1.188285 0.665384 5.524576 0
M  V30 18 C 0.429395 -0.464196 5.491803 0
M  V30 19 C 0.037921 -1.008649 4.270677 0
M  V30 20 C -0.785533 -2.232893 4.186641 0
M  V30 21 C -0.645663 -3.203990 5.159730 0
M  V30 22 N -1.377434 -4.327163 5.118218 0
M  V30 23 C -2.265358 -4.505967 4.104090 0
M  V30 24 N -2.390077 -3.554907 3.167018 0
M  V30 25 C -1.683724 -2.402241 3.151349 0
M  V30 26 C 0.455516 -0.350362 3.136586 0
M  V30 27 C 1.220363 0.789198 3.137338 0
M  V30 28 C 1.041656 0.623030 -0.220081 0
M  V30 29 C 1.266326 1.001139 -1.522556 0
M  V30 30 C -1.056162 -0.568594 -1.970520 0
M  V30 31 C -2.016916 -1.560454 -1.837054 0
M  V30 32 H -0.525274 -3.799377 -3.917473 0
M  V30 33 H 1.131882 -1.908648 -4.058690 0
M  V30 34 H 0.997667 0.670262 -4.882218 0
M  V30 35 H 3.000130 3.626896 -2.558286 0
M  V30 36 H 2.778160 3.225269 0.129702 0
M  V30 37 H 2.743507 3.009729 4.775817 0
M  V30 38 H 0.123676 -0.948543 6.413633 0
M  V30 39 H 0.041560 -3.122424 5.990360 0
M  V30 40 H -2.922669 -5.358813 3.939822 0
M  V30 41 H -1.782113 -1.638463 2.400919 0
M  V30 42 H 0.145988 -0.781373 2.213297 0
M  V30 43 H 0.474959 -0.247002 0.047872 0
M  V30 44 H -1.328755 0.311897 -1.367122 0
M  V30 45 H -2.902168 -1.485926 -1.224536 0
M  V30 END ATOM
M  V30 BEGIN BOND
M  V30 1 1 1 2
M  V30 2 2 2 3
M  V30 3 1 3 4
M  V30 4 2 4 5
M  V30 5 1 5 6
M  V30 6 2 6 7
M  V30 7 1 7 8
M  V30 8 2 8 9
M  V30 9 1 9 10
M  V30 10 1 10 11
M  V30 11 1 11 12
M  V30 12 1 12 13
M  V30 13 2 13 14
M  V30 14 1 14 15
M  V30 15 1 15 16
M  V30 16 2 16 17
M  V30 17 1 17 18
M  V30 18 2 18 19
M  V30 19 1 19 20
M  V30 20 2 20 21
M  V30 21 1 21 22
M  V30 22 2 22 23
M  V30 23 1 23 24
M  V30 24 2 24 25
M  V30 25 1 19 26
M  V30 26 2 26 27
M  V30 27 2 12 28
M  V30 28 1 28 29
M  V30 29 1 5 30
M  V30 30 2 30 31
M  V30 31 1 31 2
M  V30 32 1 29 6
M  V30 33 2 29 10
M  V30 34 1 27 13
M  V30 35 1 27 16
M  V30 36 1 25 20
M  V30 37 1 3 32
M  V30 38 1 4 33
M  V30 39 1 7 34
M  V30 40 1 9 35
M  V30 41 1 11 36
M  V30 42 1 15 37
M  V30 43 1 18 38
M  V30 44 1 21 39
M  V30 45 1 23 40
M  V30 46 1 25 41
M  V30 47 1 26 42
M  V30 48 1 28 43
M  V30 49 1 30 44
M  V30 50 1 31 45
M  V30 END BOND
M  V30 END CTAB
M  END
>  <Dataset>  (769) 
ChEMBL_Kinases

>  <Ligand_Instance>  (769) 
nan

>  <PDB_ID>  (769) 
nan

>  <Standardized_SMILES>  (769) 
Fc1ccc(-c2cncc3[nH]c(-c4n[nH]c5ncc(-c6cncnc6)cc45)cc23)cc1

>  <Name>  (769) 
nan

>  <Pocket>  (769) 
nan

>  <ATP_Site>  (769) 
nan

>  <Peripheral>  (769) 
nan

>  <Num_H_Atoms_ProtBoundConf>  (769) 
nan

>  <Num_Resolved_Atoms>  (769) 
nan

>  <Num_Not_Resolved_Atoms>  (769) 
nan

$$$$
CHEMBL4741476
     RDKit          3D

  0  0  0  0  0  0  0  0  0  0999 V3000
M  V30 BEGIN CTAB
M  V30 COUNTS 55 60 0 0 0
M  V30 BEGIN ATOM
M  V30 1 C -2.077212 -4.036239 0.943943 0
M  V30 2 N -0.737364 -3.541934 1.187658 0
M  V30 3 C -0.347163 -3.728662 2.577986 0
M  V30 4 C 0.834677 -2.818873 2.830544 0
M  V30 5 N 1.828301 -3.116146 1.826143 0
M  V30 6 C 2.957628 -2.265153 1.778377 0
M  V30 7 N 4.146801 -2.736285 2.202545 0
M  V30 8 C 5.257239 -1.980505 2.218557 0
M  V30 9 C 5.201438 -0.667969 1.788477 0
M  V30 10 C 4.017408 -0.122557 1.341168 0
M  V30 11 N 3.599426 1.061928 0.859858 0
M  V30 12 C 2.284700 1.067448 0.547273 0
M  V30 13 C 1.675860 2.267011 0.019461 0
M  V30 14 N 2.319681 3.426467 -0.195698 0
M  V30 15 N 1.524037 4.348159 -0.683618 0
M  V30 16 C 0.280155 3.859881 -0.828606 0
M  V30 17 C -0.904612 4.394549 -1.287741 0
M  V30 18 N -1.980296 3.589306 -1.291481 0
M  V30 19 C -1.934093 2.309247 -0.870423 0
M  V30 20 C -3.174789 1.548929 -0.928624 0
M  V30 21 C -4.305319 2.164798 -1.398158 0
M  V30 22 N -5.517372 1.585990 -1.509474 0
M  V30 23 C -5.682857 0.292729 -1.140584 0
M  V30 24 C -4.552450 -0.351372 -0.662177 0
M  V30 25 N -4.778803 -1.704261 -0.290991 0
M  V30 26 C -3.308381 0.240366 -0.547070 0
M  V30 27 C -0.745892 1.808643 -0.421412 0
M  V30 28 C 0.399772 2.560497 -0.383704 0
M  V30 29 C 1.891017 -0.201363 0.864702 0
M  V30 30 C 2.926205 -0.955855 1.353900 0
M  V30 31 C 1.527207 -4.269592 0.983442 0
M  V30 32 C 0.222483 -4.030526 0.251316 0
M  V30 33 H -2.767357 -3.178534 1.082457 0
M  V30 34 H -2.361431 -4.794896 1.727351 0
M  V30 35 H -2.225318 -4.416996 -0.079693 0
M  V30 36 H -0.123148 -4.796241 2.818944 0
M  V30 37 H -1.213977 -3.471063 3.221912 0
M  V30 38 H 0.490727 -1.787012 2.694957 0
M  V30 39 H 1.235809 -2.995982 3.861829 0
M  V30 40 H 6.170311 -2.412105 2.566415 0
M  V30 41 H 6.072550 -0.036474 1.789474 0
M  V30 42 H 4.332214 1.807669 0.792470 0
M  V30 43 H 1.873080 5.309800 -0.907126 0
M  V30 44 H -0.878613 5.423247 -1.610397 0
M  V30 45 H -4.338384 3.194758 -1.731637 0
M  V30 46 H -6.649747 -0.186326 -1.223392 0
M  V30 47 H -4.130418 -2.401172 -0.729234 0
M  V30 48 H -4.087628 -2.326228 -0.773971 0
M  V30 49 H -2.464320 -0.286497 -0.175693 0
M  V30 50 H -0.721413 0.790152 -0.090280 0
M  V30 51 H 0.897092 -0.554156 0.737818 0
M  V30 52 H 2.323526 -4.429688 0.224570 0
M  V30 53 H 1.443398 -5.184883 1.580059 0
M  V30 54 H 0.332180 -3.263947 -0.545498 0
M  V30 55 H -0.111484 -4.943019 -0.259676 0
M  V30 END ATOM
M  V30 BEGIN BOND
M  V30 1 1 1 2
M  V30 2 1 2 3
M  V30 3 1 3 4
M  V30 4 1 4 5
M  V30 5 1 5 6
M  V30 6 2 6 7
M  V30 7 1 7 8
M  V30 8 2 8 9
M  V30 9 1 9 10
M  V30 10 1 10 11
M  V30 11 1 11 12
M  V30 12 1 12 13
M  V30 13 2 13 14
M  V30 14 1 14 15
M  V30 15 1 15 16
M  V30 16 2 16 17
M  V30 17 1 17 18
M  V30 18 2 18 19
M  V30 19 1 19 20
M  V30 20 2 20 21
M  V30 21 1 21 22
M  V30 22 2 22 23
M  V30 23 1 23 24
M  V30 24 1 24 25
M  V30 25 2 24 26
M  V30 26 1 19 27
M  V30 27 2 27 28
M  V30 28 2 12 29
M  V30 29 1 29 30
M  V30 30 1 5 31
M  V30 31 1 31 32
M  V30 32 1 32 2
M  V30 33 1 30 6
M  V30 34 2 30 10
M  V30 35 1 28 13
M  V30 36 1 28 16
M  V30 37 1 26 20
M  V30 38 1 1 33
M  V30 39 1 1 34
M  V30 40 1 1 35
M  V30 41 1 3 36
M  V30 42 1 3 37
M  V30 43 1 4 38
M  V30 44 1 4 39
M  V30 45 1 8 40
M  V30 46 1 9 41
M  V30 47 1 11 42
M  V30 48 1 15 43
M  V30 49 1 17 44
M  V30 50 1 21 45
M  V30 51 1 23 46
M  V30 52 1 25 47
M  V30 53 1 25 48
M  V30 54 1 26 49
M  V30 55 1 27 50
M  V30 56 1 29 51
M  V30 57 1 31 52
M  V30 58 1 31 53
M  V30 59 1 32 54
M  V30 60 1 32 55
M  V30 END BOND
M  V30 END CTAB
M  END
>  <Dataset>  (770) 
ChEMBL_Kinases

>  <Ligand_Instance>  (770) 
nan

>  <PDB_ID>  (770) 
nan

>  <Standardized_SMILES>  (770) 
CN1CCN(c2nccc3[nH]c(-c4n[nH]c5cnc(-c6cncc(N)c6)cc45)cc23)CC1

>  <Name>  (770) 
nan

>  <Pocket>  (770) 
nan

>  <ATP_Site>  (770) 
nan

>  <Peripheral>  (770) 
nan

>  <Num_H_Atoms_ProtBoundConf>  (770) 
nan

>  <Num_Resolved_Atoms>  (770) 
nan

>  <Num_Not_Resolved_Atoms>  (770) 
nan

$$$$
CHEMBL4741472
     RDKit          3D

  0  0  0  0  0  0  0  0  0  0999 V3000
M  V30 BEGIN CTAB
M  V30 COUNTS 63 67 0 0 0
M  V30 BEGIN ATOM
M  V30 1 C 6.405746 -2.371988 5.987091 0
M  V30 2 N 5.059042 -2.247080 5.523090 0
M  V30 3 C 4.303283 -1.304103 6.286691 0
M  V30 4 C 4.937545 -2.135415 4.104708 0
M  V30 5 C 5.691543 -0.909765 3.653604 0
M  V30 6 C 5.418262 -0.527789 2.226867 0
M  V30 7 N 4.022519 -0.711274 1.839762 0
M  V30 8 C 3.259721 0.326318 1.233032 0
M  V30 9 C 1.943184 0.241646 0.854256 0
M  V30 10 C 1.326600 1.329987 0.274010 0
M  V30 11 C -0.073290 1.133019 -0.090800 0
M  V30 12 O -0.649669 0.034662 0.120404 0
M  V30 13 N -0.922308 2.096676 -0.697040 0
M  V30 14 C -2.215234 1.481543 -0.879682 0
M  V30 15 C -2.691861 0.769352 -1.957778 0
M  V30 16 C -3.978587 0.277433 -1.886899 0
M  V30 17 C -4.408023 -0.426508 -2.986887 0
M  V30 18 C -5.698950 -0.928338 -2.931776 0
M  V30 19 C -6.263056 -1.690949 -4.038810 0
M  V30 20 C -5.434974 -2.490368 -4.834800 0
M  V30 21 N -6.253931 -3.055499 -5.758162 0
M  V30 22 N -7.494513 -2.645523 -5.559532 0
M  V30 23 C -8.731009 -2.950515 -6.262282 0
M  V30 24 C -7.557099 -1.797909 -4.506000 0
M  V30 25 C -6.497901 -0.719198 -1.815667 0
M  V30 26 C -5.994614 0.005527 -0.735457 0
M  V30 27 C -4.714971 0.525216 -0.743594 0
M  V30 28 C -4.248594 1.230920 0.329523 0
M  V30 29 N -2.982077 1.691377 0.210590 0
M  V30 30 C 1.947187 2.536102 0.036198 0
M  V30 31 C 3.269075 2.543974 0.444150 0
M  V30 32 N 3.889217 1.493845 1.011782 0
M  V30 33 C 3.530159 -2.042681 2.142786 0
M  V30 34 C 3.498606 -2.115852 3.676734 0
M  V30 35 H 6.967333 -1.443225 5.700442 0
M  V30 36 H 6.915587 -3.208976 5.458717 0
M  V30 37 H 6.472294 -2.493650 7.077856 0
M  V30 38 H 4.688712 -0.276724 6.179921 0
M  V30 39 H 4.490769 -1.571463 7.367790 0
M  V30 40 H 3.213416 -1.394496 6.159344 0
M  V30 41 H 5.417078 -3.027898 3.651208 0
M  V30 42 H 5.573908 -0.058539 4.355793 0
M  V30 43 H 6.778847 -1.192752 3.683653 0
M  V30 44 H 6.057604 -1.070782 1.492093 0
M  V30 45 H 5.689113 0.555744 2.117208 0
M  V30 46 H 1.432839 -0.687845 1.027676 0
M  V30 47 H -0.492735 3.047760 -0.901866 0
M  V30 48 H -1.973694 0.680945 -2.753552 0
M  V30 49 H -3.789385 -0.585315 -3.844449 0
M  V30 50 H -4.371457 -2.704320 -4.831672 0
M  V30 51 H -9.474025 -3.314590 -5.500449 0
M  V30 52 H -8.592519 -3.667856 -7.095746 0
M  V30 53 H -9.138662 -1.982924 -6.622057 0
M  V30 54 H -8.387074 -1.270349 -4.053354 0
M  V30 55 H -7.514228 -1.080356 -1.702171 0
M  V30 56 H -6.591493 0.192397 0.160811 0
M  V30 57 H -4.853808 1.406682 1.210887 0
M  V30 58 H 1.455496 3.375566 -0.416492 0
M  V30 59 H 3.858167 3.461919 0.299569 0
M  V30 60 H 2.533928 -2.239130 1.732581 0
M  V30 61 H 4.296373 -2.762398 1.763060 0
M  V30 62 H 3.022388 -3.055734 4.007033 0
M  V30 63 H 2.968735 -1.211102 4.026345 0
M  V30 END ATOM
M  V30 BEGIN BOND
M  V30 1 1 1 2
M  V30 2 1 2 3
M  V30 3 1 2 4
M  V30 4 1 4 5
M  V30 5 1 5 6
M  V30 6 1 6 7
M  V30 7 1 7 8
M  V30 8 2 8 9
M  V30 9 1 9 10
M  V30 10 1 10 11
M  V30 11 2 11 12
M  V30 12 1 11 13
M  V30 13 1 13 14
M  V30 14 2 14 15
M  V30 15 1 15 16
M  V30 16 2 16 17
M  V30 17 1 17 18
M  V30 18 1 18 19
M  V30 19 1 19 20
M  V30 20 2 20 21
M  V30 21 1 21 22
M  V30 22 1 22 23
M  V30 23 1 22 24
M  V30 24 2 18 25
M  V30 25 1 25 26
M  V30 26 2 26 27
M  V30 27 1 27 28
M  V30 28 2 28 29
M  V30 29 2 10 30
M  V30 30 1 30 31
M  V30 31 2 31 32
M  V30 32 1 7 33
M  V30 33 1 33 34
M  V30 34 1 34 4
M  V30 35 1 32 8
M  V30 36 1 29 14
M  V30 37 1 27 16
M  V30 38 2 24 19
M  V30 39 1 1 35
M  V30 40 1 1 36
M  V30 41 1 1 37
M  V30 42 1 3 38
M  V30 43 1 3 39
M  V30 44 1 3 40
M  V30 45 1 4 41
M  V30 46 1 5 42
M  V30 47 1 5 43
M  V30 48 1 6 44
M  V30 49 1 6 45
M  V30 50 1 9 46
M  V30 51 1 13 47
M  V30 52 1 15 48
M  V30 53 1 17 49
M  V30 54 1 20 50
M  V30 55 1 23 51
M  V30 56 1 23 52
M  V30 57 1 23 53
M  V30 58 1 24 54
M  V30 59 1 25 55
M  V30 60 1 26 56
M  V30 61 1 28 57
M  V30 62 1 30 58
M  V30 63 1 31 59
M  V30 64 1 33 60
M  V30 65 1 33 61
M  V30 66 1 34 62
M  V30 67 1 34 63
M  V30 END BOND
M  V30 END CTAB
M  END
>  <Dataset>  (771) 
ChEMBL_Kinases

>  <Ligand_Instance>  (771) 
nan

>  <PDB_ID>  (771) 
nan

>  <Standardized_SMILES>  (771) 
CN(C)C1CCN(c2cc(C(=O)Nc3cc4cc(-c5cnn(C)c5)ccc4cn3)ccn2)CC1

>  <Name>  (771) 
nan

>  <Pocket>  (771) 
nan

>  <ATP_Site>  (771) 
nan

>  <Peripheral>  (771) 
nan

>  <Num_H_Atoms_ProtBoundConf>  (771) 
nan

>  <Num_Resolved_Atoms>  (771) 
nan

>  <Num_Not_Resolved_Atoms>  (771) 
nan

$$$$
CHEMBL4741420
     RDKit          3D

  0  0  0  0  0  0  0  0  0  0999 V3000
M  V30 BEGIN CTAB
M  V30 COUNTS 48 53 0 0 0
M  V30 BEGIN ATOM
M  V30 1 C 4.046336 2.087604 5.091518 0
M  V30 2 C 3.801674 0.675166 4.738546 0
M  V30 3 C 4.267958 -0.310041 5.578372 0
M  V30 4 C 4.058652 -1.640864 5.364616 0
M  V30 5 N 3.355939 -1.929204 4.262594 0
M  V30 6 C 2.898605 -0.978474 3.438982 0
M  V30 7 C 3.091044 0.381298 3.620672 0
M  V30 8 C 2.498367 1.229688 2.624124 0
M  V30 9 C 2.736430 2.532299 2.301244 0
M  V30 10 C 2.141980 3.257970 1.305151 0
M  V30 11 C 1.193578 2.647611 0.515119 0
M  V30 12 N 0.405744 2.981037 -0.520715 0
M  V30 13 N -0.313800 1.930465 -0.854603 0
M  V30 14 C -0.018288 0.872329 -0.044537 0
M  V30 15 C -0.617343 -0.454419 -0.118058 0
M  V30 16 C -1.579519 -0.844205 -1.023494 0
M  V30 17 C -1.902513 -2.162743 -0.790757 0
M  V30 18 C -2.809674 -2.971220 -1.444730 0
M  V30 19 C -3.643264 -2.558316 -2.570190 0
M  V30 20 C -3.289195 -1.842792 -3.695952 0
M  V30 21 C -4.245123 -1.555873 -4.648832 0
M  V30 22 C -5.557852 -1.961527 -4.518551 0
M  V30 23 N -5.894368 -2.664487 -3.407430 0
M  V30 24 C -4.980182 -2.958549 -2.460737 0
M  V30 25 C -2.940590 -4.282151 -0.998911 0
M  V30 26 N -2.175468 -4.701581 0.050749 0
M  V30 27 C -1.296122 -3.897840 0.675548 0
M  V30 28 C -1.136702 -2.591027 0.263672 0
M  V30 29 N -0.387053 -1.536984 0.630043 0
M  V30 30 C 0.942337 1.332540 0.826860 0
M  V30 31 N 1.565648 0.702764 1.812638 0
M  V30 32 H 4.867779 2.565095 4.540390 0
M  V30 33 H 3.118627 2.697171 5.008051 0
M  V30 34 H 4.308688 2.090035 6.212049 0
M  V30 35 H 4.839394 -0.023971 6.469703 0
M  V30 36 H 4.455161 -2.356368 6.066922 0
M  V30 37 H 2.354451 -1.427833 2.606396 0
M  V30 38 H 3.474557 3.082474 2.837786 0
M  V30 39 H 2.377398 4.286788 1.104743 0
M  V30 40 H 0.415411 3.942035 -0.943962 0
M  V30 41 H -1.985185 -0.181650 -1.778465 0
M  V30 42 H -2.246105 -1.566557 -3.717561 0
M  V30 43 H -3.835387 -0.982638 -5.493117 0
M  V30 44 H -6.239857 -1.690982 -5.316870 0
M  V30 45 H -5.368947 -3.523614 -1.621610 0
M  V30 46 H -3.602179 -5.024878 -1.406556 0
M  V30 47 H -0.689505 -4.230404 1.507763 0
M  V30 48 H 0.282487 -1.610387 1.416112 0
M  V30 END ATOM
M  V30 BEGIN BOND
M  V30 1 1 1 2
M  V30 2 2 2 3
M  V30 3 1 3 4
M  V30 4 2 4 5
M  V30 5 1 5 6
M  V30 6 2 6 7
M  V30 7 1 7 8
M  V30 8 2 8 9
M  V30 9 1 9 10
M  V30 10 2 10 11
M  V30 11 1 11 12
M  V30 12 1 12 13
M  V30 13 2 13 14
M  V30 14 1 14 15
M  V30 15 2 15 16
M  V30 16 1 16 17
M  V30 17 2 17 18
M  V30 18 1 18 19
M  V30 19 2 19 20
M  V30 20 1 20 21
M  V30 21 2 21 22
M  V30 22 1 22 23
M  V30 23 2 23 24
M  V30 24 1 18 25
M  V30 25 2 25 26
M  V30 26 1 26 27
M  V30 27 2 27 28
M  V30 28 1 28 29
M  V30 29 1 14 30
M  V30 30 2 30 31
M  V30 31 1 7 2
M  V30 32 1 31 8
M  V30 33 1 30 11
M  V30 34 1 29 15
M  V30 35 1 28 17
M  V30 36 1 24 19
M  V30 37 1 1 32
M  V30 38 1 1 33
M  V30 39 1 1 34
M  V30 40 1 3 35
M  V30 41 1 4 36
M  V30 42 1 6 37
M  V30 43 1 9 38
M  V30 44 1 10 39
M  V30 45 1 12 40
M  V30 46 1 16 41
M  V30 47 1 20 42
M  V30 48 1 21 43
M  V30 49 1 22 44
M  V30 50 1 24 45
M  V30 51 1 25 46
M  V30 52 1 27 47
M  V30 53 1 29 48
M  V30 END BOND
M  V30 END CTAB
M  END
>  <Dataset>  (772) 
ChEMBL_Kinases

>  <Ligand_Instance>  (772) 
nan

>  <PDB_ID>  (772) 
nan

>  <Standardized_SMILES>  (772) 
Cc1ccncc1-c1ccc2[nH]nc(-c3cc4c(-c5cccnc5)cncc4[nH]3)c2n1

>  <Name>  (772) 
nan

>  <Pocket>  (772) 
nan

>  <ATP_Site>  (772) 
nan

>  <Peripheral>  (772) 
nan

>  <Num_H_Atoms_ProtBoundConf>  (772) 
nan

>  <Num_Resolved_Atoms>  (772) 
nan

>  <Num_Not_Resolved_Atoms>  (772) 
nan

$$$$
CHEMBL4741393
     RDKit          3D

  0  0  0  0  0  0  0  0  0  0999 V3000
M  V30 BEGIN CTAB
M  V30 COUNTS 47 52 0 0 0
M  V30 BEGIN ATOM
M  V30 1 N 3.119460 -3.836298 2.107372 0
M  V30 2 C 3.531350 -2.562931 2.592778 0
M  V30 3 C 4.348559 -2.442056 3.703346 0
M  V30 4 N 4.753789 -1.235497 4.184039 0
M  V30 5 C 4.369050 -0.089473 3.587656 0
M  V30 6 C 3.553079 -0.178718 2.476591 0
M  V30 7 C 3.109011 1.045511 1.794147 0
M  V30 8 C 3.920688 2.162066 1.767673 0
M  V30 9 N 3.433271 3.257511 1.112513 0
M  V30 10 C 2.227140 3.260995 0.520174 0
M  V30 11 N 1.522814 4.166666 -0.169447 0
M  V30 12 N 0.363880 3.657178 -0.543408 0
M  V30 13 C 0.213992 2.384649 -0.132956 0
M  V30 14 C -0.933024 1.575516 -0.386069 0
M  V30 15 C -1.336202 0.306106 -0.100937 0
M  V30 16 C -2.587948 0.012558 -0.601059 0
M  V30 17 C -3.383676 -1.113371 -0.559639 0
M  V30 18 C -2.933575 -2.327763 0.108307 0
M  V30 19 C -1.693245 -2.960183 -0.019498 0
M  V30 20 C -1.408891 -4.098508 0.679799 0
M  V30 21 N -2.314811 -4.639477 1.508512 0
M  V30 22 C -3.521291 -4.060732 1.659611 0
M  V30 23 C -3.843402 -2.906296 0.966418 0
M  V30 24 C -4.629270 -1.119929 -1.161620 0
M  V30 25 N -4.990447 0.031271 -1.774768 0
M  V30 26 C -4.228892 1.131428 -1.823401 0
M  V30 27 C -2.983382 1.161964 -1.230186 0
M  V30 28 N -1.988973 2.048614 -1.081185 0
M  V30 29 C 1.389057 2.139239 0.535975 0
M  V30 30 C 1.870527 1.048465 1.186283 0
M  V30 31 C 3.114772 -1.398848 1.951598 0
M  V30 32 H 3.673068 -4.388571 1.427543 0
M  V30 33 H 2.210206 -3.936712 2.631419 0
M  V30 34 H 4.686211 -3.332804 4.219262 0
M  V30 35 H 4.695667 0.861376 3.975703 0
M  V30 36 H 4.886790 2.131035 2.252657 0
M  V30 37 H 1.808954 5.134337 -0.397535 0
M  V30 38 H -0.760215 -0.412105 0.454981 0
M  V30 39 H -1.011614 -2.475636 -0.704466 0
M  V30 40 H -0.431186 -4.558778 0.550982 0
M  V30 41 H -4.154033 -4.610360 2.364820 0
M  V30 42 H -4.840232 -2.537674 1.171719 0
M  V30 43 H -5.293221 -1.955268 -1.166071 0
M  V30 44 H -4.567890 2.021341 -2.326401 0
M  V30 45 H -2.149057 2.997612 -1.519309 0
M  V30 46 H 1.288470 0.174935 1.234080 0
M  V30 47 H 2.484757 -1.476651 1.093593 0
M  V30 END ATOM
M  V30 BEGIN BOND
M  V30 1 1 1 2
M  V30 2 2 2 3
M  V30 3 1 3 4
M  V30 4 2 4 5
M  V30 5 1 5 6
M  V30 6 1 6 7
M  V30 7 2 7 8
M  V30 8 1 8 9
M  V30 9 2 9 10
M  V30 10 1 10 11
M  V30 11 1 11 12
M  V30 12 2 12 13
M  V30 13 1 13 14
M  V30 14 2 14 15
M  V30 15 1 15 16
M  V30 16 2 16 17
M  V30 17 1 17 18
M  V30 18 2 18 19
M  V30 19 1 19 20
M  V30 20 2 20 21
M  V30 21 1 21 22
M  V30 22 2 22 23
M  V30 23 1 17 24
M  V30 24 2 24 25
M  V30 25 1 25 26
M  V30 26 2 26 27
M  V30 27 1 27 28
M  V30 28 1 13 29
M  V30 29 2 29 30
M  V30 30 2 6 31
M  V30 31 1 31 2
M  V30 32 1 30 7
M  V30 33 1 29 10
M  V30 34 1 28 14
M  V30 35 1 27 16
M  V30 36 1 23 18
M  V30 37 1 1 32
M  V30 38 1 1 33
M  V30 39 1 3 34
M  V30 40 1 5 35
M  V30 41 1 8 36
M  V30 42 1 11 37
M  V30 43 1 15 38
M  V30 44 1 19 39
M  V30 45 1 20 40
M  V30 46 1 22 41
M  V30 47 1 23 42
M  V30 48 1 24 43
M  V30 49 1 26 44
M  V30 50 1 28 45
M  V30 51 1 30 46
M  V30 52 1 31 47
M  V30 END BOND
M  V30 END CTAB
M  END
>  <Dataset>  (773) 
ChEMBL_Kinases

>  <Ligand_Instance>  (773) 
nan

>  <PDB_ID>  (773) 
nan

>  <Standardized_SMILES>  (773) 
Nc1cncc(-c2cnc3[nH]nc(-c4cc5c(-c6ccncc6)cncc5[nH]4)c3c2)c1

>  <Name>  (773) 
nan

>  <Pocket>  (773) 
nan

>  <ATP_Site>  (773) 
nan

>  <Peripheral>  (773) 
nan

>  <Num_H_Atoms_ProtBoundConf>  (773) 
nan

>  <Num_Resolved_Atoms>  (773) 
nan

>  <Num_Not_Resolved_Atoms>  (773) 
nan

$$$$
CHEMBL2386717
     RDKit          3D

  0  0  0  0  0  0  0  0  0  0999 V3000
M  V30 BEGIN CTAB
M  V30 COUNTS 54 58 0 0 0
M  V30 BEGIN ATOM
M  V30 1 C 1.926874 -1.556611 0.873933 0
M  V30 2 C 1.436683 -1.381960 2.301673 0
M  V30 3 C 0.642510 -2.539295 2.807979 0
M  V30 4 O -0.610009 -2.695127 2.281001 0
M  V30 5 N 0.837897 -0.082433 2.541109 0
M  V30 6 C 1.659664 1.107310 2.537069 0
M  V30 7 C 2.258014 1.483250 1.269594 0
M  V30 8 C 3.594311 1.227387 0.948313 0
M  V30 9 C 4.118462 1.616975 -0.290425 0
M  V30 10 F 5.398761 1.385329 -0.622653 0
M  V30 11 C 3.265776 2.256517 -1.167349 0
M  V30 12 C 1.936264 2.525777 -0.881415 0
M  V30 13 N 1.014182 3.125616 -1.615636 0
M  V30 14 N -0.126158 3.150282 -0.899808 0
M  V30 15 C 0.121282 2.552031 0.288236 0
M  V30 16 C 1.433053 2.135143 0.345503 0
M  V30 17 C -0.579832 0.009677 2.788014 0
M  V30 18 N -1.180505 0.305608 3.981285 0
M  V30 19 C -2.537671 0.329375 4.057901 0
M  V30 20 C -3.300483 0.055208 2.936285 0
M  V30 21 C -2.703377 -0.244770 1.728159 0
M  V30 22 N -3.486691 -0.549804 0.581939 0
M  V30 23 C -2.946472 -0.862334 -0.695331 0
M  V30 24 C -2.577967 -2.211982 -0.789590 0
M  V30 25 C -2.058186 -2.438804 -2.069288 0
M  V30 26 C -1.511679 -3.687473 -2.680912 0
M  V30 27 C -0.598431 -4.533608 -1.857896 0
M  V30 28 C -2.005319 -4.961150 -2.087574 0
M  V30 29 N -2.135160 -1.227424 -2.687796 0
M  V30 30 N -2.656036 -0.299472 -1.884165 0
M  V30 31 N -1.385217 -0.242561 1.749739 0
M  V30 32 H 1.465609 -2.470710 0.409232 0
M  V30 33 H 1.569395 -0.713325 0.257343 0
M  V30 34 H 3.022331 -1.609314 0.782384 0
M  V30 35 H 2.399249 -1.404569 2.915049 0
M  V30 36 H 1.237263 -3.467921 2.684763 0
M  V30 37 H 0.550952 -2.412218 3.915385 0
M  V30 38 H -1.014713 -3.568936 2.420196 0
M  V30 39 H 1.038822 1.955229 2.919220 0
M  V30 40 H 2.518364 0.974618 3.271517 0
M  V30 41 H 4.237834 0.731404 1.643061 0
M  V30 42 H 3.683313 2.558801 -2.135429 0
M  V30 43 H 1.094815 3.533690 -2.593160 0
M  V30 44 H -0.595889 2.403670 1.108221 0
M  V30 45 H -2.958236 0.573003 5.026950 0
M  V30 46 H -4.392323 0.078783 3.015584 0
M  V30 47 H -4.519727 -0.553267 0.653230 0
M  V30 48 H -2.597469 -3.083731 -0.140671 0
M  V30 49 H -1.227266 -3.613301 -3.741374 0
M  V30 50 H 0.202878 -5.103934 -2.359212 0
M  V30 51 H -0.371577 -4.229013 -0.801082 0
M  V30 52 H -2.154625 -5.869563 -2.719943 0
M  V30 53 H -2.716152 -4.937887 -1.240098 0
M  V30 54 H -1.826431 -1.045640 -3.670361 0
M  V30 END ATOM
M  V30 BEGIN BOND
M  V30 1 1 1 2
M  V30 2 1 2 3
M  V30 3 1 3 4
M  V30 4 1 2 5
M  V30 5 1 5 6
M  V30 6 1 6 7
M  V30 7 2 7 8
M  V30 8 1 8 9
M  V30 9 1 9 10
M  V30 10 2 9 11
M  V30 11 1 11 12
M  V30 12 1 12 13
M  V30 13 1 13 14
M  V30 14 2 14 15
M  V30 15 1 15 16
M  V30 16 1 5 17
M  V30 17 2 17 18
M  V30 18 1 18 19
M  V30 19 2 19 20
M  V30 20 1 20 21
M  V30 21 1 21 22
M  V30 22 1 22 23
M  V30 23 1 23 24
M  V30 24 2 24 25
M  V30 25 1 25 26
M  V30 26 1 26 27
M  V30 27 1 27 28
M  V30 28 1 25 29
M  V30 29 1 29 30
M  V30 30 2 21 31
M  V30 31 1 16 7
M  V30 32 1 31 17
M  V30 33 2 16 12
M  V30 34 2 30 23
M  V30 35 1 28 26
M  V30 36 1 1 32
M  V30 37 1 1 33
M  V30 38 1 1 34
M  V30 39 1 2 35
M  V30 40 1 3 36
M  V30 41 1 3 37
M  V30 42 1 4 38
M  V30 43 1 6 39
M  V30 44 1 6 40
M  V30 45 1 8 41
M  V30 46 1 11 42
M  V30 47 1 13 43
M  V30 48 1 15 44
M  V30 49 1 19 45
M  V30 50 1 20 46
M  V30 51 1 22 47
M  V30 52 1 24 48
M  V30 53 1 26 49
M  V30 54 1 27 50
M  V30 55 1 27 51
M  V30 56 1 28 52
M  V30 57 1 28 53
M  V30 58 1 29 54
M  V30 END BOND
M  V30 END CTAB
M  END
>  <Dataset>  (774) 
ChEMBL_Kinases

>  <Ligand_Instance>  (774) 
nan

>  <PDB_ID>  (774) 
nan

>  <Standardized_SMILES>  (774) 
CC(CO)N(Cc1cc(F)cc2[nH]ncc12)c1nccc(Nc2cc(C3CC3)[nH]n2)n1

>  <Name>  (774) 
nan

>  <Pocket>  (774) 
nan

>  <ATP_Site>  (774) 
nan

>  <Peripheral>  (774) 
nan

>  <Num_H_Atoms_ProtBoundConf>  (774) 
nan

>  <Num_Resolved_Atoms>  (774) 
nan

>  <Num_Not_Resolved_Atoms>  (774) 
nan

$$$$
CHEMBL4741309
     RDKit          3D

  0  0  0  0  0  0  0  0  0  0999 V3000
M  V30 BEGIN CTAB
M  V30 COUNTS 49 53 0 0 0
M  V30 BEGIN ATOM
M  V30 1 O -3.468491 -3.375706 2.164510 0
M  V30 2 C -2.895776 -4.458732 1.878229 0
M  V30 3 N -2.168535 -4.473234 0.642683 0
M  V30 4 C -2.262680 -3.208638 -0.006489 0
M  V30 5 C -1.367726 -2.179744 0.198586 0
M  V30 6 C -1.601036 -1.019671 -0.508109 0
M  V30 7 C -0.747033 0.052330 -0.353973 0
M  V30 8 C -0.954902 1.208534 -1.040020 0
M  V30 9 C -0.077501 2.368319 -0.909301 0
M  V30 10 C -0.343878 3.511193 -1.632741 0
M  V30 11 N 0.487042 4.549027 -1.481160 0
M  V30 12 C 1.544914 4.504728 -0.663577 0
M  V30 13 C 1.844507 3.360751 0.085434 0
M  V30 14 N 2.959408 3.286804 0.964243 0
M  V30 15 C 3.349855 2.158219 1.755681 0
M  V30 16 C 3.711831 0.928601 0.968635 0
M  V30 17 F 2.732735 0.414952 0.174662 0
M  V30 18 C 4.298432 -0.115568 1.909445 0
M  V30 19 N 5.616740 0.364650 1.537039 0
M  V30 20 C 5.091971 0.959591 0.345915 0
M  V30 21 N 0.985666 2.344224 -0.096980 0
M  V30 22 N -2.015525 1.255409 -1.862132 0
M  V30 23 C -2.853276 0.217668 -2.019629 0
M  V30 24 C -2.692907 -0.983493 -1.348907 0
M  V30 25 C -3.583660 -2.007966 -1.552810 0
M  V30 26 N -3.320859 -3.140257 -0.836593 0
M  V30 27 C -2.980746 -5.636192 2.778336 0
M  V30 28 C -3.026751 -5.288366 4.269104 0
M  V30 29 C -4.202563 -5.870281 3.593000 0
M  V30 30 H -1.698480 -5.392892 0.427474 0
M  V30 31 H -0.544633 -2.319459 0.883821 0
M  V30 32 H 0.081075 -0.062135 0.323887 0
M  V30 33 H -1.175929 3.614774 -2.307293 0
M  V30 34 H 2.212363 5.350640 -0.547447 0
M  V30 35 H 3.537051 4.169927 1.015093 0
M  V30 36 H 4.150201 2.458216 2.459958 0
M  V30 37 H 2.477029 1.857337 2.398963 0
M  V30 38 H 4.142635 -1.168608 1.615397 0
M  V30 39 H 4.103152 0.086245 2.983436 0
M  V30 40 H 6.283654 -0.426118 1.311383 0
M  V30 41 H 5.430974 1.996740 0.149752 0
M  V30 42 H 5.159398 0.342539 -0.568831 0
M  V30 43 H -3.676599 0.363027 -2.707622 0
M  V30 44 H -4.421736 -1.912276 -2.229218 0
M  V30 45 H -2.452018 -6.549886 2.459366 0
M  V30 46 H -2.407237 -5.950625 4.939774 0
M  V30 47 H -3.053943 -4.239592 4.563902 0
M  V30 48 H -4.573002 -6.894294 3.777946 0
M  V30 49 H -5.040311 -5.158163 3.342778 0
M  V30 END ATOM
M  V30 BEGIN BOND
M  V30 1 2 1 2
M  V30 2 1 2 3
M  V30 3 1 3 4
M  V30 4 2 4 5
M  V30 5 1 5 6
M  V30 6 2 6 7
M  V30 7 1 7 8
M  V30 8 1 8 9
M  V30 9 2 9 10
M  V30 10 1 10 11
M  V30 11 2 11 12
M  V30 12 1 12 13
M  V30 13 1 13 14
M  V30 14 1 14 15
M  V30 15 1 15 16
M  V30 16 1 16 17
M  V30 17 1 16 18
M  V30 18 1 18 19
M  V30 19 1 19 20
M  V30 20 2 13 21
M  V30 21 2 8 22
M  V30 22 1 22 23
M  V30 23 2 23 24
M  V30 24 1 24 25
M  V30 25 2 25 26
M  V30 26 1 2 27
M  V30 27 1 27 28
M  V30 28 1 28 29
M  V30 29 1 26 4
M  V30 30 1 29 27
M  V30 31 1 24 6
M  V30 32 1 21 9
M  V30 33 1 20 16
M  V30 34 1 3 30
M  V30 35 1 5 31
M  V30 36 1 7 32
M  V30 37 1 10 33
M  V30 38 1 12 34
M  V30 39 1 14 35
M  V30 40 1 15 36
M  V30 41 1 15 37
M  V30 42 1 18 38
M  V30 43 1 18 39
M  V30 44 1 19 40
M  V30 45 1 20 41
M  V30 46 1 20 42
M  V30 47 1 23 43
M  V30 48 1 25 44
M  V30 49 1 27 45
M  V30 50 1 28 46
M  V30 51 1 28 47
M  V30 52 1 29 48
M  V30 53 1 29 49
M  V30 END BOND
M  V30 END CTAB
M  END
>  <Dataset>  (775) 
ChEMBL_Kinases

>  <Ligand_Instance>  (775) 
nan

>  <PDB_ID>  (775) 
nan

>  <Standardized_SMILES>  (775) 
O=C(Nc1cc2cc(-c3cncc(NCC4(F)CNC4)n3)ncc2cn1)C1CC1

>  <Name>  (775) 
nan

>  <Pocket>  (775) 
nan

>  <ATP_Site>  (775) 
nan

>  <Peripheral>  (775) 
nan

>  <Num_H_Atoms_ProtBoundConf>  (775) 
nan

>  <Num_Resolved_Atoms>  (775) 
nan

>  <Num_Not_Resolved_Atoms>  (775) 
nan

$$$$
CHEMBL4741293
     RDKit          3D

  0  0  0  0  0  0  0  0  0  0999 V3000
M  V30 BEGIN CTAB
M  V30 COUNTS 57 62 0 0 0
M  V30 BEGIN ATOM
M  V30 1 C 3.325220 -2.276093 -0.340883 0
M  V30 2 N 4.382526 -1.920205 0.570242 0
M  V30 3 C 4.587923 -3.043895 1.467169 0
M  V30 4 C 4.041324 -0.794019 1.399716 0
M  V30 5 C 3.741553 0.443860 0.632937 0
M  V30 6 C 4.827769 1.257114 0.384511 0
M  V30 7 N 4.603766 2.400616 -0.313241 0
M  V30 8 C 3.342866 2.706111 -0.738625 0
M  V30 9 C 2.248835 1.902755 -0.497409 0
M  V30 10 C 0.960396 2.350737 -1.009663 0
M  V30 11 C -0.206884 1.641986 -0.836982 0
M  V30 12 C -1.415868 2.074475 -1.324529 0
M  V30 13 C -2.667934 1.527819 -1.261324 0
M  V30 14 C -3.184645 0.314646 -0.671122 0
M  V30 15 C -2.684892 -0.744590 0.033560 0
M  V30 16 C -3.650950 -1.667034 0.368068 0
M  V30 17 C -3.577444 -2.854555 1.063556 0
M  V30 18 C -2.324142 -3.363308 1.606889 0
M  V30 19 C -1.065473 -3.484499 1.056703 0
M  V30 20 C -0.043892 -4.002988 1.813478 0
M  V30 21 C -0.206077 -4.413323 3.103767 0
M  V30 22 C -1.465067 -4.300401 3.677172 0
M  V30 23 F -1.568089 -4.721072 4.954603 0
M  V30 24 C -2.502785 -3.781464 2.930931 0
M  V30 25 N -4.731139 -3.526817 1.221141 0
M  V30 26 C -5.906629 -3.092933 0.739803 0
M  V30 27 C -5.948739 -1.901569 0.048006 0
M  V30 28 C -4.812799 -1.147425 -0.159861 0
M  V30 29 N -4.494917 0.011872 -0.758953 0
M  V30 30 N -3.404972 2.432146 -1.924545 0
M  V30 31 N -2.685367 3.436810 -2.355313 0
M  V30 32 C -1.398419 3.273438 -2.005967 0
M  V30 33 C -0.240466 4.000798 -2.191128 0
M  V30 34 N 0.912209 3.493703 -1.672165 0
M  V30 35 C 2.477439 0.744602 0.209632 0
M  V30 36 H 2.313220 -2.177930 0.096050 0
M  V30 37 H 3.500457 -3.356210 -0.600234 0
M  V30 38 H 3.402554 -1.678470 -1.288694 0
M  V30 39 H 5.223970 -2.721394 2.340607 0
M  V30 40 H 3.601346 -3.283314 1.917726 0
M  V30 41 H 5.047848 -3.908807 0.962304 0
M  V30 42 H 3.125659 -1.116778 1.976215 0
M  V30 43 H 4.826811 -0.641661 2.152380 0
M  V30 44 H 5.841775 1.015983 0.724002 0
M  V30 45 H 3.295295 3.646128 -1.285042 0
M  V30 46 H -0.149158 0.717620 -0.297495 0
M  V30 47 H -1.653355 -0.853311 0.304119 0
M  V30 48 H -1.050178 -3.135453 0.034000 0
M  V30 49 H 0.898648 -4.040047 1.248269 0
M  V30 50 H 0.707071 -4.801000 3.563331 0
M  V30 51 H -3.423411 -3.753041 3.505251 0
M  V30 52 H -6.811349 -3.680921 0.898235 0
M  V30 53 H -6.876859 -1.524081 -0.352202 0
M  V30 54 H -5.290357 0.523346 -1.209520 0
M  V30 55 H -3.094239 4.233860 -2.891964 0
M  V30 56 H -0.291152 4.935296 -2.735047 0
M  V30 57 H 1.653183 0.109135 0.408626 0
M  V30 END ATOM
M  V30 BEGIN BOND
M  V30 1 1 1 2
M  V30 2 1 2 3
M  V30 3 1 2 4
M  V30 4 1 4 5
M  V30 5 2 5 6
M  V30 6 1 6 7
M  V30 7 2 7 8
M  V30 8 1 8 9
M  V30 9 1 9 10
M  V30 10 2 10 11
M  V30 11 1 11 12
M  V30 12 1 12 13
M  V30 13 1 13 14
M  V30 14 2 14 15
M  V30 15 1 15 16
M  V30 16 2 16 17
M  V30 17 1 17 18
M  V30 18 2 18 19
M  V30 19 1 19 20
M  V30 20 2 20 21
M  V30 21 1 21 22
M  V30 22 1 22 23
M  V30 23 2 22 24
M  V30 24 1 17 25
M  V30 25 2 25 26
M  V30 26 1 26 27
M  V30 27 2 27 28
M  V30 28 1 28 29
M  V30 29 2 13 30
M  V30 30 1 30 31
M  V30 31 1 31 32
M  V30 32 1 32 33
M  V30 33 2 33 34
M  V30 34 2 9 35
M  V30 35 1 35 5
M  V30 36 1 34 10
M  V30 37 2 32 12
M  V30 38 1 29 14
M  V30 39 1 28 16
M  V30 40 1 24 18
M  V30 41 1 1 36
M  V30 42 1 1 37
M  V30 43 1 1 38
M  V30 44 1 3 39
M  V30 45 1 3 40
M  V30 46 1 3 41
M  V30 47 1 4 42
M  V30 48 1 4 43
M  V30 49 1 6 44
M  V30 50 1 8 45
M  V30 51 1 11 46
M  V30 52 1 15 47
M  V30 53 1 19 48
M  V30 54 1 20 49
M  V30 55 1 21 50
M  V30 56 1 24 51
M  V30 57 1 26 52
M  V30 58 1 27 53
M  V30 59 1 29 54
M  V30 60 1 31 55
M  V30 61 1 33 56
M  V30 62 1 35 57
M  V30 END BOND
M  V30 END CTAB
M  END
>  <Dataset>  (776) 
ChEMBL_Kinases

>  <Ligand_Instance>  (776) 
nan

>  <PDB_ID>  (776) 
nan

>  <Standardized_SMILES>  (776) 
CN(C)Cc1cncc(-c2cc3c(-c4cc5c(-c6cccc(F)c6)nccc5[nH]4)n[nH]c3cn2)c1

>  <Name>  (776) 
nan

>  <Pocket>  (776) 
nan

>  <ATP_Site>  (776) 
nan

>  <Peripheral>  (776) 
nan

>  <Num_H_Atoms_ProtBoundConf>  (776) 
nan

>  <Num_Resolved_Atoms>  (776) 
nan

>  <Num_Not_Resolved_Atoms>  (776) 
nan

$$$$
CHEMBL4741101
     RDKit          3D

  0  0  0  0  0  0  0  0  0  0999 V3000
M  V30 BEGIN CTAB
M  V30 COUNTS 60 65 0 0 0
M  V30 BEGIN ATOM
M  V30 1 C 3.079179 -2.908636 1.239924 0
M  V30 2 N 2.140668 -2.282424 2.116623 0
M  V30 3 C 2.769908 -1.515760 3.168031 0
M  V30 4 C 3.438943 -0.318415 2.566020 0
M  V30 5 C 2.427382 0.525589 1.845330 0
M  V30 6 C 1.402604 1.029124 2.799025 0
M  V30 7 N 0.438528 1.922291 2.114159 0
M  V30 8 C -0.518002 2.395606 3.088582 0
M  V30 9 C 0.175670 2.454038 0.817189 0
M  V30 10 N 0.907650 3.575507 0.779283 0
M  V30 11 C 0.872161 4.337472 -0.359402 0
M  V30 12 C 0.109759 3.980621 -1.452566 0
M  V30 13 C -0.620424 2.820293 -1.355509 0
M  V30 14 N -1.465683 2.165576 -2.194163 0
M  V30 15 C -1.934536 1.039394 -1.592539 0
M  V30 16 N -1.379045 0.978152 -0.354801 0
M  V30 17 C -0.603753 2.036500 -0.225949 0
M  V30 18 C -2.864563 0.081117 -2.171156 0
M  V30 19 C -3.947396 0.275285 -2.998555 0
M  V30 20 N -4.503428 -0.918165 -3.267186 0
M  V30 21 C -3.815871 -1.881261 -2.640418 0
M  V30 22 C -3.872265 -3.268481 -2.512833 0
M  V30 23 C -2.961139 -3.990095 -1.747615 0
M  V30 24 C -1.965802 -3.297822 -1.092585 0
M  V30 25 C -1.873179 -1.926224 -1.191229 0
M  V30 26 C -2.787684 -1.276562 -1.949923 0
M  V30 27 C -0.967074 -3.946443 -0.272625 0
M  V30 28 C -0.632411 -5.238279 -0.615511 0
M  V30 29 N 0.297254 -5.876520 0.118021 0
M  V30 30 C 0.850953 -5.219397 1.147594 0
M  V30 31 C 0.563252 -3.927019 1.545853 0
M  V30 32 C -0.387989 -3.285089 0.789614 0
M  V30 33 C 1.226377 -3.262091 2.696224 0
M  V30 34 H 4.065692 -2.462000 1.293248 0
M  V30 35 H 3.151069 -4.003947 1.449435 0
M  V30 36 H 2.662758 -2.862063 0.199855 0
M  V30 37 H 2.025871 -1.243512 3.940705 0
M  V30 38 H 3.509851 -2.169936 3.709618 0
M  V30 39 H 3.873647 0.340737 3.389390 0
M  V30 40 H 4.296474 -0.592680 1.918437 0
M  V30 41 H 1.934520 -0.100646 1.043204 0
M  V30 42 H 2.955653 1.343353 1.311167 0
M  V30 43 H 0.875300 0.260446 3.359125 0
M  V30 44 H 1.907121 1.705536 3.528581 0
M  V30 45 H -1.111578 1.478511 3.377244 0
M  V30 46 H -1.245340 3.122286 2.746215 0
M  V30 47 H -0.025656 2.821421 3.987520 0
M  V30 48 H 1.410946 5.281505 -0.553139 0
M  V30 49 H 0.029018 4.513991 -2.367835 0
M  V30 50 H -1.682511 2.525820 -3.148199 0
M  V30 51 H -4.351240 1.205671 -3.410818 0
M  V30 52 H -5.333611 -1.130206 -3.858177 0
M  V30 53 H -4.654858 -3.786397 -3.031008 0
M  V30 54 H -2.988517 -5.046479 -1.638093 0
M  V30 55 H -1.131453 -1.339647 -0.713776 0
M  V30 56 H -1.095204 -5.738050 -1.449483 0
M  V30 57 H 1.588143 -5.799590 1.689988 0
M  V30 58 H -0.670171 -2.287440 1.027792 0
M  V30 59 H 0.532955 -2.699771 3.333943 0
M  V30 60 H 1.827748 -3.959759 3.293022 0
M  V30 END ATOM
M  V30 BEGIN BOND
M  V30 1 1 1 2
M  V30 2 1 2 3
M  V30 3 1 3 4
M  V30 4 1 4 5
M  V30 5 1 5 6
M  V30 6 1 6 7
M  V30 7 1 7 8
M  V30 8 1 7 9
M  V30 9 1 9 10
M  V30 10 2 10 11
M  V30 11 1 11 12
M  V30 12 2 12 13
M  V30 13 1 13 14
M  V30 14 1 14 15
M  V30 15 2 15 16
M  V30 16 1 16 17
M  V30 17 1 15 18
M  V30 18 2 18 19
M  V30 19 1 19 20
M  V30 20 1 20 21
M  V30 21 2 21 22
M  V30 22 1 22 23
M  V30 23 2 23 24
M  V30 24 1 24 25
M  V30 25 2 25 26
M  V30 26 1 24 27
M  V30 27 1 27 28
M  V30 28 2 28 29
M  V30 29 1 29 30
M  V30 30 2 30 31
M  V30 31 1 31 32
M  V30 32 1 31 33
M  V30 33 1 33 2
M  V30 34 2 17 9
M  V30 35 1 26 18
M  V30 36 2 32 27
M  V30 37 1 17 13
M  V30 38 1 26 21
M  V30 39 1 1 34
M  V30 40 1 1 35
M  V30 41 1 1 36
M  V30 42 1 3 37
M  V30 43 1 3 38
M  V30 44 1 4 39
M  V30 45 1 4 40
M  V30 46 1 5 41
M  V30 47 1 5 42
M  V30 48 1 6 43
M  V30 49 1 6 44
M  V30 50 1 8 45
M  V30 51 1 8 46
M  V30 52 1 8 47
M  V30 53 1 11 48
M  V30 54 1 12 49
M  V30 55 1 14 50
M  V30 56 1 19 51
M  V30 57 1 20 52
M  V30 58 1 22 53
M  V30 59 1 23 54
M  V30 60 1 25 55
M  V30 61 1 28 56
M  V30 62 1 30 57
M  V30 63 1 32 58
M  V30 64 1 33 59
M  V30 65 1 33 60
M  V30 END BOND
M  V30 END CTAB
M  END
>  <Dataset>  (777) 
ChEMBL_Kinases

>  <Ligand_Instance>  (777) 
nan

>  <PDB_ID>  (777) 
nan

>  <Standardized_SMILES>  (777) 
CN1CCCCN(C)c2nccc3[nH]c(nc23)-c2c[nH]c3ccc(cc23)-c2cncc(c2)C1

>  <Name>  (777) 
nan

>  <Pocket>  (777) 
nan

>  <ATP_Site>  (777) 
nan

>  <Peripheral>  (777) 
nan

>  <Num_H_Atoms_ProtBoundConf>  (777) 
nan

>  <Num_Resolved_Atoms>  (777) 
nan

>  <Num_Not_Resolved_Atoms>  (777) 
nan

$$$$
CHEMBL4741100
     RDKit          3D

  0  0  0  0  0  0  0  0  0  0999 V3000
M  V30 BEGIN CTAB
M  V30 COUNTS 57 62 0 0 0
M  V30 BEGIN ATOM
M  V30 1 C 1.489758 -1.420446 3.242698 0
M  V30 2 N 2.806353 -1.981185 3.106708 0
M  V30 3 C 2.828610 -3.376771 3.420745 0
M  V30 4 C 3.346911 -1.671803 1.806638 0
M  V30 5 C 3.388567 -0.193480 1.669508 0
M  V30 6 C 4.521125 0.420336 2.125780 0
M  V30 7 N 4.539736 1.778859 1.992802 0
M  V30 8 C 3.502654 2.436378 1.447882 0
M  V30 9 C 2.350116 1.845667 0.979758 0
M  V30 10 C 1.231942 2.570369 0.399596 0
M  V30 11 C 1.248967 3.943654 0.289859 0
M  V30 12 C 0.192861 4.650296 -0.250029 0
M  V30 13 C -0.886611 3.903478 -0.676381 0
M  V30 14 N -2.039810 4.303843 -1.233562 0
M  V30 15 N -2.758113 3.219521 -1.467279 0
M  V30 16 C -2.093555 2.118701 -1.072345 0
M  V30 17 C -2.629851 0.771051 -1.205548 0
M  V30 18 N -2.107670 -0.423670 -0.879430 0
M  V30 19 C -2.983785 -1.405538 -1.203344 0
M  V30 20 C -2.957199 -2.772765 -1.091651 0
M  V30 21 C -1.841619 -3.481026 -0.534857 0
M  V30 22 C -1.109746 -3.261938 0.592441 0
M  V30 23 C -0.084456 -4.105245 0.891872 0
M  V30 24 C 0.298154 -5.194690 0.141197 0
M  V30 25 C -0.437368 -5.426647 -1.005093 0
M  V30 26 F -0.080346 -6.492615 -1.760635 0
M  V30 27 C -1.486101 -4.580435 -1.329362 0
M  V30 28 C -4.064942 -3.459598 -1.544276 0
M  V30 29 C -5.207382 -2.925186 -2.101743 0
M  V30 30 C -5.196725 -1.549816 -2.197387 0
M  V30 31 C -4.095887 -0.807482 -1.752011 0
M  V30 32 N -3.855455 0.528387 -1.742843 0
M  V30 33 C -0.882954 2.528768 -0.557495 0
M  V30 34 N 0.151959 1.853059 -0.029686 0
M  V30 35 C 2.321214 0.476174 1.109026 0
M  V30 36 H 0.821392 -1.644209 2.388347 0
M  V30 37 H 1.013641 -1.783836 4.184297 0
M  V30 38 H 1.559095 -0.300915 3.316602 0
M  V30 39 H 3.571805 -3.621194 4.211487 0
M  V30 40 H 3.105280 -4.011741 2.538185 0
M  V30 41 H 1.818150 -3.678683 3.781667 0
M  V30 42 H 2.590213 -2.058315 1.063006 0
M  V30 43 H 4.326454 -2.135639 1.623734 0
M  V30 44 H 5.347258 -0.105455 2.560018 0
M  V30 45 H 3.613908 3.504152 1.387820 0
M  V30 46 H 2.078842 4.555062 0.614347 0
M  V30 47 H 0.200737 5.729035 -0.338593 0
M  V30 48 H -2.354111 5.275698 -1.458732 0
M  V30 49 H -1.426744 -2.412379 1.155045 0
M  V30 50 H 0.495480 -3.929734 1.790996 0
M  V30 51 H 1.121848 -5.834667 0.423410 0
M  V30 52 H -1.981016 -4.881732 -2.262272 0
M  V30 53 H -4.034973 -4.556774 -1.450635 0
M  V30 54 H -6.013570 -3.554761 -2.421569 0
M  V30 55 H -6.057536 -1.053169 -2.624344 0
M  V30 56 H -4.572141 1.190846 -2.117108 0
M  V30 57 H 1.418647 -0.023545 0.743829 0
M  V30 END ATOM
M  V30 BEGIN BOND
M  V30 1 1 1 2
M  V30 2 1 2 3
M  V30 3 1 2 4
M  V30 4 1 4 5
M  V30 5 2 5 6
M  V30 6 1 6 7
M  V30 7 2 7 8
M  V30 8 1 8 9
M  V30 9 1 9 10
M  V30 10 2 10 11
M  V30 11 1 11 12
M  V30 12 2 12 13
M  V30 13 1 13 14
M  V30 14 1 14 15
M  V30 15 2 15 16
M  V30 16 1 16 17
M  V30 17 2 17 18
M  V30 18 1 18 19
M  V30 19 2 19 20
M  V30 20 1 20 21
M  V30 21 2 21 22
M  V30 22 1 22 23
M  V30 23 2 23 24
M  V30 24 1 24 25
M  V30 25 1 25 26
M  V30 26 2 25 27
M  V30 27 1 20 28
M  V30 28 2 28 29
M  V30 29 1 29 30
M  V30 30 2 30 31
M  V30 31 1 31 32
M  V30 32 1 16 33
M  V30 33 2 33 34
M  V30 34 2 9 35
M  V30 35 1 35 5
M  V30 36 1 34 10
M  V30 37 1 33 13
M  V30 38 1 32 17
M  V30 39 1 31 19
M  V30 40 1 27 21
M  V30 41 1 1 36
M  V30 42 1 1 37
M  V30 43 1 1 38
M  V30 44 1 3 39
M  V30 45 1 3 40
M  V30 46 1 3 41
M  V30 47 1 4 42
M  V30 48 1 4 43
M  V30 49 1 6 44
M  V30 50 1 8 45
M  V30 51 1 11 46
M  V30 52 1 12 47
M  V30 53 1 14 48
M  V30 54 1 22 49
M  V30 55 1 23 50
M  V30 56 1 24 51
M  V30 57 1 27 52
M  V30 58 1 28 53
M  V30 59 1 29 54
M  V30 60 1 30 55
M  V30 61 1 32 56
M  V30 62 1 35 57
M  V30 END BOND
M  V30 END CTAB
M  END
>  <Dataset>  (778) 
ChEMBL_Kinases

>  <Ligand_Instance>  (778) 
nan

>  <PDB_ID>  (778) 
nan

>  <Standardized_SMILES>  (778) 
CN(C)Cc1cncc(-c2ccc3[nH]nc(-c4nc5c(-c6cccc(F)c6)cccc5[nH]4)c3n2)c1

>  <Name>  (778) 
nan

>  <Pocket>  (778) 
nan

>  <ATP_Site>  (778) 
nan

>  <Peripheral>  (778) 
nan

>  <Num_H_Atoms_ProtBoundConf>  (778) 
nan

>  <Num_Resolved_Atoms>  (778) 
nan

>  <Num_Not_Resolved_Atoms>  (778) 
nan

$$$$
CHEMBL4741036
     RDKit          3D

  0  0  0  0  0  0  0  0  0  0999 V3000
M  V30 BEGIN CTAB
M  V30 COUNTS 53 58 0 0 0
M  V30 BEGIN ATOM
M  V30 1 O -1.441452 -3.968458 -1.763904 0
M  V30 2 C -0.551622 -4.011698 -2.653679 0
M  V30 3 N 0.730453 -3.413978 -2.511377 0
M  V30 4 C 0.842981 -2.770142 -1.223639 0
M  V30 5 C 1.310554 -3.453387 -0.109533 0
M  V30 6 N 1.414353 -2.851074 1.088355 0
M  V30 7 C 1.064674 -1.546717 1.255422 0
M  V30 8 C 0.594874 -0.829837 0.174176 0
M  V30 9 C 0.231811 0.568308 0.399898 0
M  V30 10 C -0.248078 1.403643 -0.586574 0
M  V30 11 C -0.563102 2.711675 -0.278876 0
M  V30 12 C -0.413888 3.218055 0.991434 0
M  V30 13 N -0.627524 4.411951 1.586345 0
M  V30 14 N -0.299903 4.309794 2.849183 0
M  V30 15 C 0.132866 3.068780 3.125673 0
M  V30 16 C 0.577668 2.606117 4.436381 0
M  V30 17 C 1.020537 1.330198 4.718820 0
M  V30 18 C 1.335246 1.340700 6.075756 0
M  V30 19 C 1.819472 0.404448 6.965226 0
M  V30 20 C 2.030934 0.749460 8.304920 0
M  V30 21 N 1.759779 1.996071 8.718428 0
M  V30 22 C 1.282209 2.931709 7.856842 0
M  V30 23 C 1.063241 2.613043 6.518241 0
M  V30 24 N 0.600493 3.397620 5.531462 0
M  V30 25 C 0.068711 2.349867 1.948478 0
M  V30 26 N 0.378227 1.061024 1.641468 0
M  V30 27 C 0.493538 -1.459773 -1.048328 0
M  V30 28 C -0.857636 -4.734121 -3.939018 0
M  V30 29 C -2.262456 -5.300268 -3.901337 0
M  V30 30 C -3.170573 -4.254305 -4.485790 0
M  V30 31 C -2.278043 -3.032654 -4.615158 0
M  V30 32 C -0.980416 -3.707115 -5.070612 0
M  V30 33 H 1.474279 -3.442702 -3.240020 0
M  V30 34 H 1.591141 -4.502043 -0.245628 0
M  V30 35 H 1.189999 -1.156622 2.276838 0
M  V30 36 H -0.371852 1.022767 -1.590510 0
M  V30 37 H -0.937993 3.353195 -1.063706 0
M  V30 38 H -0.989634 5.260925 1.116651 0
M  V30 39 H 1.113303 0.489580 4.055490 0
M  V30 40 H 2.036043 -0.597884 6.626804 0
M  V30 41 H 2.408404 0.049390 9.035116 0
M  V30 42 H 1.070872 3.927725 8.209709 0
M  V30 43 H 0.319182 4.397375 5.590647 0
M  V30 44 H 0.134852 -0.924181 -1.888698 0
M  V30 45 H -0.097908 -5.500987 -4.168451 0
M  V30 46 H -2.320128 -6.284062 -4.398845 0
M  V30 47 H -2.565848 -5.415493 -2.820073 0
M  V30 48 H -4.086968 -4.064757 -3.891342 0
M  V30 49 H -3.383803 -4.567475 -5.535821 0
M  V30 50 H -2.071694 -2.658389 -3.593158 0
M  V30 51 H -2.645552 -2.279453 -5.310093 0
M  V30 52 H -0.133903 -3.012890 -5.104048 0
M  V30 53 H -1.204653 -4.246938 -5.991942 0
M  V30 END ATOM
M  V30 BEGIN BOND
M  V30 1 2 1 2
M  V30 2 1 2 3
M  V30 3 1 3 4
M  V30 4 2 4 5
M  V30 5 1 5 6
M  V30 6 2 6 7
M  V30 7 1 7 8
M  V30 8 1 8 9
M  V30 9 2 9 10
M  V30 10 1 10 11
M  V30 11 2 11 12
M  V30 12 1 12 13
M  V30 13 1 13 14
M  V30 14 2 14 15
M  V30 15 1 15 16
M  V30 16 2 16 17
M  V30 17 1 17 18
M  V30 18 2 18 19
M  V30 19 1 19 20
M  V30 20 2 20 21
M  V30 21 1 21 22
M  V30 22 2 22 23
M  V30 23 1 23 24
M  V30 24 1 15 25
M  V30 25 2 25 26
M  V30 26 2 8 27
M  V30 27 1 2 28
M  V30 28 1 28 29
M  V30 29 1 29 30
M  V30 30 1 30 31
M  V30 31 1 31 32
M  V30 32 1 27 4
M  V30 33 1 32 28
M  V30 34 1 26 9
M  V30 35 1 25 12
M  V30 36 1 24 16
M  V30 37 1 23 18
M  V30 38 1 3 33
M  V30 39 1 5 34
M  V30 40 1 7 35
M  V30 41 1 10 36
M  V30 42 1 11 37
M  V30 43 1 13 38
M  V30 44 1 17 39
M  V30 45 1 19 40
M  V30 46 1 20 41
M  V30 47 1 22 42
M  V30 48 1 24 43
M  V30 49 1 27 44
M  V30 50 1 28 45
M  V30 51 1 29 46
M  V30 52 1 29 47
M  V30 53 1 30 48
M  V30 54 1 30 49
M  V30 55 1 31 50
M  V30 56 1 31 51
M  V30 57 1 32 52
M  V30 58 1 32 53
M  V30 END BOND
M  V30 END CTAB
M  END
>  <Dataset>  (779) 
ChEMBL_Kinases

>  <Ligand_Instance>  (779) 
nan

>  <PDB_ID>  (779) 
nan

>  <Standardized_SMILES>  (779) 
O=C(Nc1cncc(-c2ccc3[nH]nc(-c4cc5ccncc5[nH]4)c3n2)c1)C1CCCC1

>  <Name>  (779) 
nan

>  <Pocket>  (779) 
nan

>  <ATP_Site>  (779) 
nan

>  <Peripheral>  (779) 
nan

>  <Num_H_Atoms_ProtBoundConf>  (779) 
nan

>  <Num_Resolved_Atoms>  (779) 
nan

>  <Num_Not_Resolved_Atoms>  (779) 
nan

$$$$
CHEMBL4740976
     RDKit          3D

  0  0  0  0  0  0  0  0  0  0999 V3000
M  V30 BEGIN CTAB
M  V30 COUNTS 47 52 0 0 0
M  V30 BEGIN ATOM
M  V30 1 O -0.526637 -5.874623 4.424832 0
M  V30 2 C -1.154181 -6.032971 3.350100 0
M  V30 3 N -1.176736 -4.988284 2.395054 0
M  V30 4 C -0.565347 -3.714197 2.465028 0
M  V30 5 C 0.185269 -3.208251 3.473777 0
M  V30 6 N 0.737108 -1.987425 3.475038 0
M  V30 7 C 0.566677 -1.171975 2.434610 0
M  V30 8 C -0.183287 -1.606909 1.365195 0
M  V30 9 C -0.427650 -0.790481 0.180996 0
M  V30 10 C 0.060323 0.484796 0.011123 0
M  V30 11 C -0.169326 1.253469 -1.103012 0
M  V30 12 C 0.226486 2.521451 -1.444533 0
M  V30 13 C 1.028252 3.510075 -0.758200 0
M  V30 14 C 1.691189 3.617213 0.428653 0
M  V30 15 C 2.322708 4.831293 0.589455 0
M  V30 16 C 3.086299 5.338230 1.622003 0
M  V30 17 C 3.605071 6.621176 1.504966 0
M  V30 18 C 3.290081 7.271051 0.329877 0
M  V30 19 N 2.543202 6.756501 -0.663759 0
M  V30 20 C 2.030313 5.514674 -0.571220 0
M  V30 21 N 1.272921 4.708029 -1.330448 0
M  V30 22 N -0.325353 2.688750 -2.656415 0
M  V30 23 N -1.004662 1.625798 -3.041374 0
M  V30 24 C -0.938885 0.689270 -2.097371 0
M  V30 25 C -1.444537 -0.585414 -1.962176 0
M  V30 26 N -1.174326 -1.263964 -0.848300 0
M  V30 27 C -0.735314 -2.866335 1.397233 0
M  V30 28 C -1.828041 -7.343826 3.191320 0
M  V30 29 C -2.937245 -7.536875 2.224258 0
M  V30 30 C -1.595048 -7.996125 1.818746 0
M  V30 31 H -1.731530 -5.266965 1.566013 0
M  V30 32 H 0.371505 -3.793884 4.344383 0
M  V30 33 H 1.012713 -0.196168 2.445167 0
M  V30 34 H 0.647743 0.886985 0.794999 0
M  V30 35 H 1.723813 2.843181 1.166686 0
M  V30 36 H 3.271464 4.749889 2.492753 0
M  V30 37 H 4.209550 7.071693 2.279425 0
M  V30 38 H 3.692716 8.281657 0.226080 0
M  V30 39 H 0.972777 5.113665 -2.263913 0
M  V30 40 H -1.496718 1.585139 -3.956420 0
M  V30 41 H -2.039738 -0.989918 -2.759052 0
M  V30 42 H -1.329311 -3.200983 0.541661 0
M  V30 43 H -1.700865 -8.031792 4.037184 0
M  V30 44 H -3.661420 -8.346331 2.441520 0
M  V30 45 H -3.391555 -6.655093 1.726352 0
M  V30 46 H -1.093163 -7.387471 1.038713 0
M  V30 47 H -1.327221 -9.071995 1.794594 0
M  V30 END ATOM
M  V30 BEGIN BOND
M  V30 1 2 1 2
M  V30 2 1 2 3
M  V30 3 1 3 4
M  V30 4 2 4 5
M  V30 5 1 5 6
M  V30 6 2 6 7
M  V30 7 1 7 8
M  V30 8 1 8 9
M  V30 9 2 9 10
M  V30 10 1 10 11
M  V30 11 1 11 12
M  V30 12 1 12 13
M  V30 13 2 13 14
M  V30 14 1 14 15
M  V30 15 2 15 16
M  V30 16 1 16 17
M  V30 17 2 17 18
M  V30 18 1 18 19
M  V30 19 2 19 20
M  V30 20 1 20 21
M  V30 21 2 12 22
M  V30 22 1 22 23
M  V30 23 1 23 24
M  V30 24 1 24 25
M  V30 25 2 25 26
M  V30 26 2 8 27
M  V30 27 1 2 28
M  V30 28 1 28 29
M  V30 29 1 29 30
M  V30 30 1 27 4
M  V30 31 1 30 28
M  V30 32 1 26 9
M  V30 33 2 24 11
M  V30 34 1 21 13
M  V30 35 1 20 15
M  V30 36 1 3 31
M  V30 37 1 5 32
M  V30 38 1 7 33
M  V30 39 1 10 34
M  V30 40 1 14 35
M  V30 41 1 16 36
M  V30 42 1 17 37
M  V30 43 1 18 38
M  V30 44 1 21 39
M  V30 45 1 23 40
M  V30 46 1 25 41
M  V30 47 1 27 42
M  V30 48 1 28 43
M  V30 49 1 29 44
M  V30 50 1 29 45
M  V30 51 1 30 46
M  V30 52 1 30 47
M  V30 END BOND
M  V30 END CTAB
M  END
>  <Dataset>  (780) 
ChEMBL_Kinases

>  <Ligand_Instance>  (780) 
nan

>  <PDB_ID>  (780) 
nan

>  <Standardized_SMILES>  (780) 
O=C(Nc1cncc(-c2cc3c(-c4cc5cccnc5[nH]4)n[nH]c3cn2)c1)C1CC1

>  <Name>  (780) 
nan

>  <Pocket>  (780) 
nan

>  <ATP_Site>  (780) 
nan

>  <Peripheral>  (780) 
nan

>  <Num_H_Atoms_ProtBoundConf>  (780) 
nan

>  <Num_Resolved_Atoms>  (780) 
nan

>  <Num_Not_Resolved_Atoms>  (780) 
nan

$$$$
CHEMBL202639
     RDKit          3D

  0  0  0  0  0  0  0  0  0  0999 V3000
M  V30 BEGIN CTAB
M  V30 COUNTS 56 59 0 0 0
M  V30 BEGIN ATOM
M  V30 1 C 4.147995 -1.796698 5.199503 0
M  V30 2 C 5.151004 -1.374164 4.198608 0
M  V30 3 O 6.367751 -1.531748 4.429226 0
M  V30 4 N 4.956180 -0.778520 2.931419 0
M  V30 5 C 6.140625 -0.470248 2.157419 0
M  V30 6 C 6.026843 0.996888 1.782127 0
M  V30 7 C 4.851002 1.133639 0.848608 0
M  V30 8 C 3.597324 0.834319 1.637183 0 CFG=1
M  V30 9 C 2.408901 0.714879 0.748215 0
M  V30 10 O 1.688678 -0.340190 0.659590 0
M  V30 11 N 1.895605 1.731595 -0.125123 0
M  V30 12 C 0.741665 1.147996 -0.775279 0
M  V30 13 C -0.524426 1.261056 -0.238077 0
M  V30 14 C -1.486833 0.650781 -0.977534 0
M  V30 15 C -2.880569 0.682572 -0.542254 0
M  V30 16 C -3.401489 1.755516 0.156507 0
M  V30 17 C -4.728266 1.691282 0.523849 0
M  V30 18 N -5.529683 0.658559 0.244010 0
M  V30 19 C -5.081181 -0.413219 -0.431945 0
M  V30 20 N -5.965677 -1.473346 -0.721453 0
M  V30 21 C -5.848947 -2.765021 -1.270823 0
M  V30 22 C -6.847925 -3.363303 -2.051967 0
M  V30 23 C -6.657041 -4.636503 -2.528874 0
M  V30 24 C -5.520047 -5.373639 -2.279934 0
M  V30 25 F -5.450056 -6.613678 -2.804150 0
M  V30 26 C -4.531697 -4.797592 -1.514255 0
M  V30 27 C -4.720540 -3.520308 -1.033885 0
M  V30 28 C -3.762371 -0.347195 -0.796624 0
M  V30 29 C -1.224504 -0.021542 -2.158198 0
M  V30 30 C 0.063763 -0.100952 -2.646066 0
M  V30 31 N 1.050515 0.501655 -1.926349 0
M  V30 32 C 3.667496 -0.474551 2.393967 0
M  V30 33 H 4.088516 -2.902140 5.282193 0
M  V30 34 H 4.484615 -1.440478 6.195805 0
M  V30 35 H 3.131017 -1.419105 4.978490 0
M  V30 36 H 7.057675 -0.705928 2.694515 0
M  V30 37 H 6.065020 -1.101014 1.231458 0
M  V30 38 H 5.780660 1.562717 2.704544 0
M  V30 39 H 6.935739 1.398185 1.299174 0
M  V30 40 H 4.794441 2.225547 0.589975 0
M  V30 41 H 4.932283 0.548485 -0.072065 0
M  V30 42 H 3.509323 1.638667 2.394513 0
M  V30 43 H 2.434370 2.650116 -0.117203 0
M  V30 44 H -0.697222 1.790264 0.681499 0
M  V30 45 H -2.777822 2.605026 0.397229 0
M  V30 46 H -5.167738 2.532324 1.080479 0
M  V30 47 H -6.989950 -1.305169 -0.481056 0
M  V30 48 H -7.753343 -2.775451 -2.249588 0
M  V30 49 H -7.468656 -5.056017 -3.133640 0
M  V30 50 H -3.671685 -5.425814 -1.358009 0
M  V30 51 H -3.868665 -3.219478 -0.445586 0
M  V30 52 H -3.320654 -1.158304 -1.353757 0
M  V30 53 H -1.988095 -0.513905 -2.759037 0
M  V30 54 H 0.347788 -0.608457 -3.560730 0
M  V30 55 H 2.934605 -0.373382 3.245060 0
M  V30 56 H 3.237190 -1.320874 1.791140 0
M  V30 END ATOM
M  V30 BEGIN BOND
M  V30 1 1 1 2
M  V30 2 2 2 3
M  V30 3 1 2 4
M  V30 4 1 4 5
M  V30 5 1 5 6
M  V30 6 1 6 7
M  V30 7 1 7 8
M  V30 8 1 8 9
M  V30 9 2 9 10
M  V30 10 1 9 11
M  V30 11 1 11 12
M  V30 12 2 12 13
M  V30 13 1 13 14
M  V30 14 1 14 15
M  V30 15 2 15 16
M  V30 16 1 16 17
M  V30 17 2 17 18
M  V30 18 1 18 19
M  V30 19 1 19 20
M  V30 20 1 20 21
M  V30 21 2 21 22
M  V30 22 1 22 23
M  V30 23 2 23 24
M  V30 24 1 24 25
M  V30 25 1 24 26
M  V30 26 2 26 27
M  V30 27 2 19 28
M  V30 28 2 14 29
M  V30 29 1 29 30
M  V30 30 2 30 31
M  V30 31 1 8 32
M  V30 32 1 32 4
M  V30 33 1 31 12
M  V30 34 1 28 15
M  V30 35 1 27 21
M  V30 36 1 1 33
M  V30 37 1 1 34
M  V30 38 1 1 35
M  V30 39 1 5 36
M  V30 40 1 5 37
M  V30 41 1 6 38
M  V30 42 1 6 39
M  V30 43 1 7 40
M  V30 44 1 7 41
M  V30 45 1 8 42 CFG=1
M  V30 46 1 11 43
M  V30 47 1 13 44
M  V30 48 1 16 45
M  V30 49 1 17 46
M  V30 50 1 20 47
M  V30 51 1 22 48
M  V30 52 1 23 49
M  V30 53 1 26 50
M  V30 54 1 27 51
M  V30 55 1 28 52
M  V30 56 1 29 53
M  V30 57 1 30 54
M  V30 58 1 32 55
M  V30 59 1 32 56
M  V30 END BOND
M  V30 END CTAB
M  END
>  <Dataset>  (781) 
ChEMBL_Kinases

>  <Ligand_Instance>  (781) 
nan

>  <PDB_ID>  (781) 
nan

>  <Standardized_SMILES>  (781) 
CC(=O)N1CCC[C@@H](C(=O)Nc2cc(-c3ccnc(Nc4ccc(F)cc4)c3)ccn2)C1

>  <Name>  (781) 
nan

>  <Pocket>  (781) 
nan

>  <ATP_Site>  (781) 
nan

>  <Peripheral>  (781) 
nan

>  <Num_H_Atoms_ProtBoundConf>  (781) 
nan

>  <Num_Resolved_Atoms>  (781) 
nan

>  <Num_Not_Resolved_Atoms>  (781) 
nan

$$$$
CHEMBL202666
     RDKit          3D

  0  0  0  0  0  0  0  0  0  0999 V3000
M  V30 BEGIN CTAB
M  V30 COUNTS 56 59 0 0 0
M  V30 BEGIN ATOM
M  V30 1 C 3.138118 -3.052573 1.485195 0
M  V30 2 C 4.397272 -2.465944 2.015028 0
M  V30 3 O 4.969573 -2.638570 3.123932 0
M  V30 4 N 5.104839 -1.560098 1.174015 0
M  V30 5 C 6.345034 -0.923916 1.583546 0
M  V30 6 C 6.090459 0.550029 1.581209 0
M  V30 7 C 4.684447 0.920519 1.208413 0
M  V30 8 C 4.374039 0.358695 -0.151576 0 CFG=2
M  V30 9 C 2.956872 0.500856 -0.550065 0
M  V30 10 O 2.208905 -0.501633 -0.818354 0
M  V30 11 N 2.311722 1.762142 -0.667283 0
M  V30 12 C 0.936496 1.542941 -1.073200 0
M  V30 13 C -0.105386 1.367974 -0.157357 0
M  V30 14 C -1.349523 1.167382 -0.660489 0
M  V30 15 C -2.481872 0.977935 0.251809 0
M  V30 16 C -2.600184 1.561403 1.504357 0
M  V30 17 C -3.709905 1.319960 2.292629 0
M  V30 18 N -4.701086 0.510457 1.857607 0
M  V30 19 C -4.649805 -0.091059 0.645725 0
M  V30 20 N -5.714669 -0.933395 0.226385 0
M  V30 21 C -6.037707 -2.314077 0.341647 0
M  V30 22 C -7.215548 -2.722878 -0.247039 0
M  V30 23 C -7.483856 -4.074441 -0.104369 0
M  V30 24 C -6.661346 -4.957007 0.563701 0
M  V30 25 F -7.005228 -6.276767 0.656243 0
M  V30 26 C -5.493429 -4.459876 1.127136 0
M  V30 27 C -5.161283 -3.124220 1.024666 0
M  V30 28 C -3.537327 0.151916 -0.142557 0
M  V30 29 C -1.609224 1.132128 -2.015111 0
M  V30 30 C -0.557864 1.308463 -2.886169 0
M  V30 31 N 0.705715 1.512361 -2.419191 0
M  V30 32 C 4.812620 -1.087772 -0.156026 0
M  V30 33 H 2.901726 -3.972942 2.075959 0
M  V30 34 H 2.324587 -2.287167 1.603990 0
M  V30 35 H 3.263091 -3.382435 0.426414 0
M  V30 36 H 6.561567 -1.275997 2.599655 0
M  V30 37 H 7.171380 -1.213765 0.890092 0
M  V30 38 H 6.387584 0.967528 2.568675 0
M  V30 39 H 6.815364 1.010045 0.849957 0
M  V30 40 H 3.991545 0.488381 1.942126 0
M  V30 41 H 4.596098 2.019967 1.261832 0
M  V30 42 H 4.965566 0.899761 -0.891817 0
M  V30 43 H 2.913824 2.594189 -0.450016 0
M  V30 44 H 0.135638 1.401772 0.900125 0
M  V30 45 H -1.787183 2.196623 1.804851 0
M  V30 46 H -3.746531 1.808700 3.271577 0
M  V30 47 H -6.310753 -0.230615 -0.261188 0
M  V30 48 H -7.874058 -2.045139 -0.775457 0
M  V30 49 H -8.407530 -4.447483 -0.554495 0
M  V30 50 H -4.818616 -5.119080 1.660640 0
M  V30 51 H -4.261245 -2.698271 1.449534 0
M  V30 52 H -3.485550 -0.317138 -1.100697 0
M  V30 53 H -2.583430 0.975310 -2.407301 0
M  V30 54 H -0.638131 1.301198 -3.976799 0
M  V30 55 H 3.933927 -1.697521 -0.505225 0
M  V30 56 H 5.613763 -1.242717 -0.874042 0
M  V30 END ATOM
M  V30 BEGIN BOND
M  V30 1 1 1 2
M  V30 2 2 2 3
M  V30 3 1 2 4
M  V30 4 1 4 5
M  V30 5 1 5 6
M  V30 6 1 6 7
M  V30 7 1 7 8
M  V30 8 1 8 9
M  V30 9 2 9 10
M  V30 10 1 9 11
M  V30 11 1 11 12
M  V30 12 2 12 13
M  V30 13 1 13 14
M  V30 14 1 14 15
M  V30 15 2 15 16
M  V30 16 1 16 17
M  V30 17 2 17 18
M  V30 18 1 18 19
M  V30 19 1 19 20
M  V30 20 1 20 21
M  V30 21 2 21 22
M  V30 22 1 22 23
M  V30 23 2 23 24
M  V30 24 1 24 25
M  V30 25 1 24 26
M  V30 26 2 26 27
M  V30 27 2 19 28
M  V30 28 2 14 29
M  V30 29 1 29 30
M  V30 30 2 30 31
M  V30 31 1 8 32
M  V30 32 1 32 4
M  V30 33 1 31 12
M  V30 34 1 28 15
M  V30 35 1 27 21
M  V30 36 1 1 33
M  V30 37 1 1 34
M  V30 38 1 1 35
M  V30 39 1 5 36
M  V30 40 1 5 37
M  V30 41 1 6 38
M  V30 42 1 6 39
M  V30 43 1 7 40
M  V30 44 1 7 41
M  V30 45 1 8 42 CFG=3
M  V30 46 1 11 43
M  V30 47 1 13 44
M  V30 48 1 16 45
M  V30 49 1 17 46
M  V30 50 1 20 47
M  V30 51 1 22 48
M  V30 52 1 23 49
M  V30 53 1 26 50
M  V30 54 1 27 51
M  V30 55 1 28 52
M  V30 56 1 29 53
M  V30 57 1 30 54
M  V30 58 1 32 55
M  V30 59 1 32 56
M  V30 END BOND
M  V30 END CTAB
M  END
>  <Dataset>  (782) 
ChEMBL_Kinases

>  <Ligand_Instance>  (782) 
nan

>  <PDB_ID>  (782) 
nan

>  <Standardized_SMILES>  (782) 
CC(=O)N1CCC[C@H](C(=O)Nc2cc(-c3ccnc(Nc4ccc(F)cc4)c3)ccn2)C1

>  <Name>  (782) 
nan

>  <Pocket>  (782) 
nan

>  <ATP_Site>  (782) 
nan

>  <Peripheral>  (782) 
nan

>  <Num_H_Atoms_ProtBoundConf>  (782) 
nan

>  <Num_Resolved_Atoms>  (782) 
nan

>  <Num_Not_Resolved_Atoms>  (782) 
nan

$$$$
CHEMBL202676
     RDKit          3D

  0  0  0  0  0  0  0  0  0  0999 V3000
M  V30 BEGIN CTAB
M  V30 COUNTS 56 59 0 0 0
M  V30 BEGIN ATOM
M  V30 1 C 1.706344 1.765070 5.238182 0
M  V30 2 O 1.814638 0.906169 4.147651 0
M  V30 3 C 3.167096 0.729308 3.782908 0 CFG=1
M  V30 4 C 3.428559 -0.736342 3.860813 0
M  V30 5 C 4.689918 -1.193263 3.175363 0
M  V30 6 C 4.828266 -0.658793 1.788047 0 CFG=1
M  V30 7 C 3.743879 -1.163118 0.887427 0
M  V30 8 O 2.821596 -1.966911 1.250166 0
M  V30 9 N 3.628153 -0.794211 -0.479105 0
M  V30 10 C 2.466930 -1.478655 -1.004504 0
M  V30 11 C 1.234473 -0.850616 -0.913734 0
M  V30 12 C 0.063211 -1.420759 -1.386489 0
M  V30 13 C -1.155884 -0.635067 -1.214354 0
M  V30 14 C -1.096394 0.746135 -1.250000 0
M  V30 15 C -2.242514 1.517149 -1.085463 0
M  V30 16 N -3.448297 0.922288 -0.885550 0
M  V30 17 C -3.530278 -0.425415 -0.847026 0
M  V30 18 N -4.742600 -1.137083 -0.640888 0
M  V30 19 C -5.774148 -1.656500 -1.456328 0
M  V30 20 C -6.796065 -2.312846 -0.816589 0
M  V30 21 C -7.792251 -2.809894 -1.632986 0
M  V30 22 C -7.745729 -2.647334 -3.000875 0
M  V30 23 F -8.767466 -3.168499 -3.718538 0
M  V30 24 C -6.708155 -1.983685 -3.623608 0
M  V30 25 C -5.689240 -1.472814 -2.813399 0
M  V30 26 C -2.420056 -1.200111 -1.005909 0
M  V30 27 C 0.177037 -2.667056 -1.964323 0
M  V30 28 C 1.401342 -3.298587 -2.058350 0
M  V30 29 N 2.529200 -2.701261 -1.579782 0
M  V30 30 C 4.738411 0.870206 1.875168 0
M  V30 31 C 3.361069 1.219061 2.373988 0
M  V30 32 H 2.122502 2.768425 5.033743 0
M  V30 33 H 0.627079 1.911289 5.448351 0
M  V30 34 H 2.186280 1.382063 6.159832 0
M  V30 35 H 3.815777 1.317646 4.456639 0
M  V30 36 H 3.544430 -1.003525 4.939778 0
M  V30 37 H 2.528733 -1.311304 3.526464 0
M  V30 38 H 5.554156 -0.882241 3.761710 0
M  V30 39 H 4.597102 -2.303637 3.083340 0
M  V30 40 H 5.808352 -0.898475 1.379996 0
M  V30 41 H 4.348164 -0.128935 -0.877285 0
M  V30 42 H 1.214253 0.127768 -0.448208 0
M  V30 43 H -0.178308 1.286966 -1.403866 0
M  V30 44 H -2.200825 2.607681 -1.112920 0
M  V30 45 H -4.712701 -1.210785 0.399755 0
M  V30 46 H -6.880077 -2.466535 0.242665 0
M  V30 47 H -8.627248 -3.340251 -1.169538 0
M  V30 48 H -6.682358 -1.862070 -4.696941 0
M  V30 49 H -4.891683 -0.962084 -3.297945 0
M  V30 50 H -2.370563 -2.294229 -0.993028 0
M  V30 51 H -0.750108 -3.090216 -2.325255 0
M  V30 52 H 1.458136 -4.276220 -2.517291 0
M  V30 53 H 5.544184 1.174570 2.587284 0
M  V30 54 H 4.866194 1.341232 0.880854 0
M  V30 55 H 2.632623 0.717457 1.706281 0
M  V30 56 H 3.178368 2.292981 2.356519 0
M  V30 END ATOM
M  V30 BEGIN BOND
M  V30 1 1 1 2
M  V30 2 1 2 3
M  V30 3 1 3 4
M  V30 4 1 4 5
M  V30 5 1 5 6
M  V30 6 1 6 7
M  V30 7 2 7 8
M  V30 8 1 7 9
M  V30 9 1 9 10
M  V30 10 2 10 11
M  V30 11 1 11 12
M  V30 12 1 12 13
M  V30 13 2 13 14
M  V30 14 1 14 15
M  V30 15 2 15 16
M  V30 16 1 16 17
M  V30 17 1 17 18
M  V30 18 1 18 19
M  V30 19 2 19 20
M  V30 20 1 20 21
M  V30 21 2 21 22
M  V30 22 1 22 23
M  V30 23 1 22 24
M  V30 24 2 24 25
M  V30 25 2 17 26
M  V30 26 2 12 27
M  V30 27 1 27 28
M  V30 28 2 28 29
M  V30 29 1 6 30
M  V30 30 1 30 31
M  V30 31 1 31 3
M  V30 32 1 29 10
M  V30 33 1 26 13
M  V30 34 1 25 19
M  V30 35 1 1 32
M  V30 36 1 1 33
M  V30 37 1 1 34
M  V30 38 1 3 35 CFG=1
M  V30 39 1 4 36
M  V30 40 1 4 37
M  V30 41 1 5 38
M  V30 42 1 5 39
M  V30 43 1 6 40 CFG=3
M  V30 44 1 9 41
M  V30 45 1 11 42
M  V30 46 1 14 43
M  V30 47 1 15 44
M  V30 48 1 18 45
M  V30 49 1 20 46
M  V30 50 1 21 47
M  V30 51 1 24 48
M  V30 52 1 25 49
M  V30 53 1 26 50
M  V30 54 1 27 51
M  V30 55 1 28 52
M  V30 56 1 30 53
M  V30 57 1 30 54
M  V30 58 1 31 55
M  V30 59 1 31 56
M  V30 END BOND
M  V30 END CTAB
M  END
>  <Dataset>  (783) 
ChEMBL_Kinases

>  <Ligand_Instance>  (783) 
nan

>  <PDB_ID>  (783) 
nan

>  <Standardized_SMILES>  (783) 
CO[C@H]1CC[C@@H](C(=O)Nc2cc(-c3ccnc(Nc4ccc(F)cc4)c3)ccn2)CC1

>  <Name>  (783) 
nan

>  <Pocket>  (783) 
nan

>  <ATP_Site>  (783) 
nan

>  <Peripheral>  (783) 
nan

>  <Num_H_Atoms_ProtBoundConf>  (783) 
nan

>  <Num_Resolved_Atoms>  (783) 
nan

>  <Num_Not_Resolved_Atoms>  (783) 
nan

$$$$
CHEMBL202721
     RDKit          3D

  0  0  0  0  0  0  0  0  0  0999 V3000
M  V30 BEGIN CTAB
M  V30 COUNTS 69 73 0 0 0
M  V30 BEGIN ATOM
M  V30 1 C 4.452249 -0.393311 2.809967 0
M  V30 2 O 3.419244 -1.238619 3.203476 0
M  V30 3 C 2.612971 -2.020289 2.385490 0
M  V30 4 C 2.810738 -1.982729 1.019658 0
M  V30 5 C 1.916777 -2.819414 0.360451 0
M  V30 6 C 2.099023 -2.802823 -1.041522 0
M  V30 7 N 3.009724 -1.967225 -1.834477 0
M  V30 8 C 2.116163 -0.967033 -2.312798 0
M  V30 9 C 2.480661 -0.667479 -3.656931 0
M  V30 10 C 1.773144 0.290239 -4.405238 0
M  V30 11 C 0.721517 0.870792 -3.670918 0
M  V30 12 N 0.001821 1.828675 -4.428138 0
M  V30 13 C 0.243998 3.151010 -4.686504 0
M  V30 14 O 0.992840 4.117125 -4.501662 0
M  V30 15 C -0.767768 3.722637 -5.538309 0
M  V30 16 C -1.899237 3.119269 -6.168500 0
M  V30 17 C -2.901541 3.396748 -6.953708 0
M  V30 18 C -2.842615 4.761721 -7.295769 0
M  V30 19 C -1.891094 5.637593 -6.869670 0
M  V30 20 C -0.931102 5.047749 -6.026135 0
M  V30 21 C 0.388042 0.593807 -2.422996 0
M  V30 22 C 1.068093 -0.340355 -1.683658 0
M  V30 23 N 1.278428 -3.597997 -1.788188 0
M  V30 24 C 0.319404 -4.372861 -1.185392 0
M  V30 25 N 0.154503 -4.375555 0.152776 0
M  V30 26 C 0.925942 -3.623798 0.921527 0
M  V30 27 C 0.841638 -3.560890 2.314060 0
M  V30 28 C 1.658156 -2.776247 3.087971 0
M  V30 29 O 1.602133 -2.664578 4.433674 0
M  V30 30 C 0.738965 -3.193864 5.375419 0
M  V30 31 C -0.681281 -2.672690 5.186561 0
M  V30 32 C -1.703507 -3.214831 6.112189 0
M  V30 33 N -3.030914 -2.633247 5.902810 0
M  V30 34 C -3.130942 -1.300610 6.392438 0
M  V30 35 C -3.362648 -0.204712 5.433838 0
M  V30 36 O -4.152056 -0.583935 4.345937 0
M  V30 37 C -3.356013 -1.578147 3.718218 0
M  V30 38 C -3.478905 -2.812007 4.549550 0
M  V30 39 H 4.510958 -0.211023 1.722254 0
M  V30 40 H 5.460486 -0.747964 3.188027 0
M  V30 41 H 4.269343 0.611578 3.296328 0
M  V30 42 H 3.533260 -1.405606 0.492695 0
M  V30 43 H 3.685707 -2.634156 -1.527592 0
M  V30 44 H 3.315335 -1.134575 -4.203265 0
M  V30 45 H 2.047233 0.538725 -5.423015 0
M  V30 46 H -0.763412 1.205594 -4.725286 0
M  V30 47 H -1.976598 2.023293 -5.915831 0
M  V30 48 H -3.682482 2.802319 -7.342138 0
M  V30 49 H -3.571525 5.241756 -7.950046 0
M  V30 50 H -1.770961 6.687416 -7.087495 0
M  V30 51 H -0.138095 5.741757 -5.659017 0
M  V30 52 H -0.443138 1.071247 -1.887556 0
M  V30 53 H 0.913131 -0.661609 -0.683355 0
M  V30 54 H -0.389696 -5.044024 -1.625070 0
M  V30 55 H 0.095547 -4.215513 2.685166 0
M  V30 56 H 1.049826 -2.722320 6.374387 0
M  V30 57 H 0.780080 -4.272852 5.548662 0
M  V30 58 H -0.959867 -2.854097 4.149087 0
M  V30 59 H -0.627876 -1.541106 5.269276 0
M  V30 60 H -1.788146 -4.312776 6.072969 0
M  V30 61 H -1.458602 -2.959801 7.184332 0
M  V30 62 H -2.263306 -1.084538 7.054365 0
M  V30 63 H -4.009088 -1.306223 7.119630 0
M  V30 64 H -3.776879 0.694992 5.917601 0
M  V30 65 H -2.385578 0.128136 4.984160 0
M  V30 66 H -3.677052 -1.726202 2.667999 0
M  V30 67 H -2.353771 -1.113609 3.679104 0
M  V30 68 H -2.954163 -3.701664 4.119393 0
M  V30 69 H -4.558383 -3.075052 4.573056 0
M  V30 END ATOM
M  V30 BEGIN BOND
M  V30 1 1 1 2
M  V30 2 1 2 3
M  V30 3 2 3 4
M  V30 4 1 4 5
M  V30 5 2 5 6
M  V30 6 1 6 7
M  V30 7 1 7 8
M  V30 8 2 8 9
M  V30 9 1 9 10
M  V30 10 2 10 11
M  V30 11 1 11 12
M  V30 12 1 12 13
M  V30 13 2 13 14
M  V30 14 1 13 15
M  V30 15 2 15 16
M  V30 16 1 16 17
M  V30 17 2 17 18
M  V30 18 1 18 19
M  V30 19 2 19 20
M  V30 20 1 11 21
M  V30 21 2 21 22
M  V30 22 1 6 23
M  V30 23 2 23 24
M  V30 24 1 24 25
M  V30 25 2 25 26
M  V30 26 1 26 27
M  V30 27 2 27 28
M  V30 28 1 28 29
M  V30 29 1 29 30
M  V30 30 1 30 31
M  V30 31 1 31 32
M  V30 32 1 32 33
M  V30 33 1 33 34
M  V30 34 1 34 35
M  V30 35 1 35 36
M  V30 36 1 36 37
M  V30 37 1 37 38
M  V30 38 1 28 3
M  V30 39 1 38 33
M  V30 40 1 26 5
M  V30 41 1 22 8
M  V30 42 1 20 15
M  V30 43 1 1 39
M  V30 44 1 1 40
M  V30 45 1 1 41
M  V30 46 1 4 42
M  V30 47 1 7 43
M  V30 48 1 9 44
M  V30 49 1 10 45
M  V30 50 1 12 46
M  V30 51 1 16 47
M  V30 52 1 17 48
M  V30 53 1 18 49
M  V30 54 1 19 50
M  V30 55 1 20 51
M  V30 56 1 21 52
M  V30 57 1 22 53
M  V30 58 1 24 54
M  V30 59 1 27 55
M  V30 60 1 30 56
M  V30 61 1 30 57
M  V30 62 1 31 58
M  V30 63 1 31 59
M  V30 64 1 32 60
M  V30 65 1 32 61
M  V30 66 1 34 62
M  V30 67 1 34 63
M  V30 68 1 35 64
M  V30 69 1 35 65
M  V30 70 1 37 66
M  V30 71 1 37 67
M  V30 72 1 38 68
M  V30 73 1 38 69
M  V30 END BOND
M  V30 END CTAB
M  END
>  <Dataset>  (784) 
ChEMBL_Kinases

>  <Ligand_Instance>  (784) 
nan

>  <PDB_ID>  (784) 
nan

>  <Standardized_SMILES>  (784) 
COc1cc2c(Nc3ccc(NC(=O)c4ccccc4)cc3)ncnc2cc1OCCCN1CCOCC1

>  <Name>  (784) 
nan

>  <Pocket>  (784) 
nan

>  <ATP_Site>  (784) 
nan

>  <Peripheral>  (784) 
nan

>  <Num_H_Atoms_ProtBoundConf>  (784) 
nan

>  <Num_Resolved_Atoms>  (784) 
nan

>  <Num_Not_Resolved_Atoms>  (784) 
nan

$$$$
CHEMBL4740862
     RDKit          3D

  0  0  0  0  0  0  0  0  0  0999 V3000
M  V30 BEGIN CTAB
M  V30 COUNTS 61 66 0 0 0
M  V30 BEGIN ATOM
M  V30 1 C 6.316582 -0.692645 5.523752 0
M  V30 2 C 6.575957 -1.628077 4.347837 0
M  V30 3 C 7.855296 -1.188493 3.720723 0
M  V30 4 C 6.754831 -3.006070 4.919206 0
M  V30 5 C 5.416013 -1.545050 3.425627 0
M  V30 6 O 4.760486 -2.603811 3.194551 0
M  V30 7 N 5.095096 -0.287695 2.846595 0
M  V30 8 C 3.946194 -0.369721 1.975890 0
M  V30 9 C 4.266624 -0.660122 0.663956 0
M  V30 10 N 3.235241 -0.750914 -0.199600 0
M  V30 11 C 1.969008 -0.559131 0.244520 0
M  V30 12 C 1.673276 -0.269766 1.561114 0
M  V30 13 C 0.266508 -0.086505 1.909739 0
M  V30 14 C -0.175561 0.205771 3.182665 0
M  V30 15 C -1.524922 0.373925 3.479244 0
M  V30 16 C -2.425258 0.235978 2.437043 0
M  V30 17 N -3.764316 0.344942 2.443863 0
M  V30 18 N -4.204470 0.131627 1.210787 0
M  V30 19 C -3.142148 -0.115120 0.410811 0
M  V30 20 C -3.140894 -0.404394 -1.021694 0
M  V30 21 N -4.253906 -0.467797 -1.777007 0
M  V30 22 C -3.934620 -0.754843 -3.069401 0
M  V30 23 C -4.667075 -0.930482 -4.226882 0
M  V30 24 C -6.119588 -0.803750 -4.178013 0
M  V30 25 C -6.870523 0.167355 -3.553455 0
M  V30 26 C -8.255233 0.105076 -3.627834 0
M  V30 27 C -8.897464 -0.921493 -4.322353 0
M  V30 28 F -10.260925 -0.908220 -4.346368 0
M  V30 29 C -8.131645 -1.884695 -4.941294 0
M  V30 30 C -6.738856 -1.827902 -4.870395 0
M  V30 31 C -3.954255 -1.219190 -5.370275 0
M  V30 32 N -2.614208 -1.329050 -5.381968 0
M  V30 33 C -1.862600 -1.163350 -4.265850 0
M  V30 34 C -2.558161 -0.872389 -3.104576 0
M  V30 35 N -2.108458 -0.653301 -1.842833 0
M  V30 36 C -1.980807 -0.057587 1.158730 0
M  V30 37 N -0.648535 -0.210236 0.932328 0
M  V30 38 C 2.698335 -0.167748 2.477577 0
M  V30 39 H 5.272484 -0.382638 5.616248 0
M  V30 40 H 6.902903 0.252619 5.413438 0
M  V30 41 H 6.650515 -1.148234 6.475267 0
M  V30 42 H 8.683779 -1.758115 4.188877 0
M  V30 43 H 7.912539 -1.418075 2.620464 0
M  V30 44 H 8.100650 -0.122213 3.906412 0
M  V30 45 H 7.804807 -3.391185 4.827406 0
M  V30 46 H 6.464023 -3.085524 5.985475 0
M  V30 47 H 6.099382 -3.695124 4.346218 0
M  V30 48 H 5.678750 0.562871 3.076829 0
M  V30 49 H 5.281597 -0.811317 0.320284 0
M  V30 50 H 1.215771 -0.653724 -0.525902 0
M  V30 51 H 0.527009 0.309053 3.975405 0
M  V30 52 H -1.841478 0.606185 4.504396 0
M  V30 53 H -4.365491 0.564087 3.291312 0
M  V30 54 H -6.283509 0.899783 -3.054857 0
M  V30 55 H -8.769171 0.913130 -3.105512 0
M  V30 56 H -8.693094 -2.665616 -5.471414 0
M  V30 57 H -6.293343 -2.655065 -5.407364 0
M  V30 58 H -4.559872 -1.353275 -6.272194 0
M  V30 59 H -0.775573 -1.252307 -4.275408 0
M  V30 60 H -1.123693 -0.655812 -1.463854 0
M  V30 61 H 2.488183 0.054751 3.497142 0
M  V30 END ATOM
M  V30 BEGIN BOND
M  V30 1 1 1 2
M  V30 2 1 2 3
M  V30 3 1 2 4
M  V30 4 1 2 5
M  V30 5 2 5 6
M  V30 6 1 5 7
M  V30 7 1 7 8
M  V30 8 2 8 9
M  V30 9 1 9 10
M  V30 10 2 10 11
M  V30 11 1 11 12
M  V30 12 1 12 13
M  V30 13 2 13 14
M  V30 14 1 14 15
M  V30 15 2 15 16
M  V30 16 1 16 17
M  V30 17 1 17 18
M  V30 18 2 18 19
M  V30 19 1 19 20
M  V30 20 2 20 21
M  V30 21 1 21 22
M  V30 22 2 22 23
M  V30 23 1 23 24
M  V30 24 2 24 25
M  V30 25 1 25 26
M  V30 26 2 26 27
M  V30 27 1 27 28
M  V30 28 1 27 29
M  V30 29 2 29 30
M  V30 30 1 23 31
M  V30 31 2 31 32
M  V30 32 1 32 33
M  V30 33 2 33 34
M  V30 34 1 34 35
M  V30 35 1 19 36
M  V30 36 2 36 37
M  V30 37 2 12 38
M  V30 38 1 38 8
M  V30 39 1 37 13
M  V30 40 1 36 16
M  V30 41 1 35 20
M  V30 42 1 34 22
M  V30 43 1 30 24
M  V30 44 1 1 39
M  V30 45 1 1 40
M  V30 46 1 1 41
M  V30 47 1 3 42
M  V30 48 1 3 43
M  V30 49 1 3 44
M  V30 50 1 4 45
M  V30 51 1 4 46
M  V30 52 1 4 47
M  V30 53 1 7 48
M  V30 54 1 9 49
M  V30 55 1 11 50
M  V30 56 1 14 51
M  V30 57 1 15 52
M  V30 58 1 17 53
M  V30 59 1 25 54
M  V30 60 1 26 55
M  V30 61 1 29 56
M  V30 62 1 30 57
M  V30 63 1 31 58
M  V30 64 1 33 59
M  V30 65 1 35 60
M  V30 66 1 38 61
M  V30 END BOND
M  V30 END CTAB
M  END
>  <Dataset>  (785) 
ChEMBL_Kinases

>  <Ligand_Instance>  (785) 
nan

>  <PDB_ID>  (785) 
nan

>  <Standardized_SMILES>  (785) 
CC(C)(C)C(=O)Nc1cncc(-c2ccc3[nH]nc(-c4nc5c(-c6ccc(F)cc6)cncc5[nH]4)c3n2)c1

>  <Name>  (785) 
nan

>  <Pocket>  (785) 
nan

>  <ATP_Site>  (785) 
nan

>  <Peripheral>  (785) 
nan

>  <Num_H_Atoms_ProtBoundConf>  (785) 
nan

>  <Num_Resolved_Atoms>  (785) 
nan

>  <Num_Not_Resolved_Atoms>  (785) 
nan

$$$$
CHEMBL4740858
     RDKit          3D

  0  0  0  0  0  0  0  0  0  0999 V3000
M  V30 BEGIN CTAB
M  V30 COUNTS 54 59 0 0 0
M  V30 BEGIN ATOM
M  V30 1 O 3.762412 -0.730286 -0.632187 0
M  V30 2 C 2.976949 -1.054171 -1.535188 0
M  V30 3 C 3.923920 -2.225210 -1.494631 0
M  V30 4 C 4.898447 -1.901246 -0.419008 0
M  V30 5 C 4.571859 -2.329513 0.859444 0
M  V30 6 C 5.353131 -2.119230 1.973504 0
M  V30 7 C 6.542754 -1.434977 1.803903 0
M  V30 8 C 6.886516 -0.997559 0.526480 0
M  V30 9 C 6.084732 -1.219314 -0.586249 0
M  V30 10 N 1.839215 -0.716010 -2.301254 0
M  V30 11 C 1.429420 0.571377 -1.795519 0
M  V30 12 C 1.988188 1.680795 -2.426279 0
M  V30 13 N 1.579920 2.858606 -1.919900 0
M  V30 14 C 0.716740 2.941375 -0.904472 0
M  V30 15 C 0.165342 1.841051 -0.282294 0
M  V30 16 C -0.777982 1.869917 0.829744 0
M  V30 17 C -0.718639 2.885641 1.761423 0
M  V30 18 C -1.631850 2.895266 2.819876 0
M  V30 19 C -2.568161 1.891171 2.906963 0
M  V30 20 N -3.553059 1.624631 3.776721 0
M  V30 21 N -4.189951 0.527035 3.428109 0
M  V30 22 C -3.674432 -0.015459 2.301246 0
M  V30 23 C -4.128063 -1.218507 1.637990 0
M  V30 24 C -5.201803 -1.961795 2.145119 0
M  V30 25 C -5.474374 -3.066191 1.372592 0
M  V30 26 C -6.412882 -4.074111 1.462960 0
M  V30 27 N -6.414805 -5.040461 0.513405 0
M  V30 28 C -5.524553 -5.015261 -0.489193 0
M  V30 29 C -4.565162 -4.001154 -0.597335 0
M  V30 30 C -4.554545 -3.012114 0.364593 0
M  V30 31 N -3.802726 -1.927301 0.564942 0
M  V30 32 C -2.662459 0.863209 2.003258 0
M  V30 33 C -1.742956 0.899267 0.982557 0
M  V30 34 C 0.542305 0.587517 -0.753665 0
M  V30 35 H 3.333276 -3.102999 -1.231691 0
M  V30 36 H 4.440306 -2.318419 -2.482316 0
M  V30 37 H 3.650038 -2.868687 1.035828 0
M  V30 38 H 5.085368 -2.457845 2.958181 0
M  V30 39 H 7.161846 -1.265243 2.672001 0
M  V30 40 H 7.813642 -0.468039 0.411759 0
M  V30 41 H 6.327151 -0.894932 -1.570352 0
M  V30 42 H 1.700647 -1.514709 -2.957640 0
M  V30 43 H 2.675027 1.546544 -3.236444 0
M  V30 44 H 0.391312 3.899155 -0.500368 0
M  V30 45 H 0.024085 3.687314 1.697263 0
M  V30 46 H -1.626936 3.680720 3.587298 0
M  V30 47 H -3.839734 2.157247 4.630940 0
M  V30 48 H -5.804103 -1.755236 3.043383 0
M  V30 49 H -7.116545 -4.077074 2.272343 0
M  V30 50 H -5.538896 -5.793821 -1.239839 0
M  V30 51 H -3.835059 -3.953882 -1.393443 0
M  V30 52 H -3.049577 -1.689097 -0.069774 0
M  V30 53 H -1.743126 0.136727 0.232147 0
M  V30 54 H 0.178788 -0.348168 -0.348232 0
M  V30 END ATOM
M  V30 BEGIN BOND
M  V30 1 2 1 2
M  V30 2 1 2 3
M  V30 3 1 3 4
M  V30 4 2 4 5
M  V30 5 1 5 6
M  V30 6 2 6 7
M  V30 7 1 7 8
M  V30 8 2 8 9
M  V30 9 1 2 10
M  V30 10 1 10 11
M  V30 11 2 11 12
M  V30 12 1 12 13
M  V30 13 2 13 14
M  V30 14 1 14 15
M  V30 15 1 15 16
M  V30 16 2 16 17
M  V30 17 1 17 18
M  V30 18 2 18 19
M  V30 19 1 19 20
M  V30 20 1 20 21
M  V30 21 2 21 22
M  V30 22 1 22 23
M  V30 23 2 23 24
M  V30 24 1 24 25
M  V30 25 2 25 26
M  V30 26 1 26 27
M  V30 27 2 27 28
M  V30 28 1 28 29
M  V30 29 2 29 30
M  V30 30 1 30 31
M  V30 31 1 22 32
M  V30 32 2 32 33
M  V30 33 2 15 34
M  V30 34 1 9 4
M  V30 35 1 34 11
M  V30 36 1 33 16
M  V30 37 1 32 19
M  V30 38 1 31 23
M  V30 39 1 30 25
M  V30 40 1 3 35
M  V30 41 1 3 36
M  V30 42 1 5 37
M  V30 43 1 6 38
M  V30 44 1 7 39
M  V30 45 1 8 40
M  V30 46 1 9 41
M  V30 47 1 10 42
M  V30 48 1 12 43
M  V30 49 1 14 44
M  V30 50 1 17 45
M  V30 51 1 18 46
M  V30 52 1 20 47
M  V30 53 1 24 48
M  V30 54 1 26 49
M  V30 55 1 28 50
M  V30 56 1 29 51
M  V30 57 1 31 52
M  V30 58 1 33 53
M  V30 59 1 34 54
M  V30 END BOND
M  V30 END CTAB
M  END
>  <Dataset>  (786) 
ChEMBL_Kinases

>  <Ligand_Instance>  (786) 
nan

>  <PDB_ID>  (786) 
nan

>  <Standardized_SMILES>  (786) 
O=C(Cc1ccccc1)Nc1cncc(-c2ccc3[nH]nc(-c4cc5cnccc5[nH]4)c3c2)c1

>  <Name>  (786) 
nan

>  <Pocket>  (786) 
nan

>  <ATP_Site>  (786) 
nan

>  <Peripheral>  (786) 
nan

>  <Num_H_Atoms_ProtBoundConf>  (786) 
nan

>  <Num_Resolved_Atoms>  (786) 
nan

>  <Num_Not_Resolved_Atoms>  (786) 
nan

$$$$
CHEMBL4740717
     RDKit          3D

  0  0  0  0  0  0  0  0  0  0999 V3000
M  V30 BEGIN CTAB
M  V30 COUNTS 62 67 0 0 0
M  V30 BEGIN ATOM
M  V30 1 C -2.175193 -1.741739 4.089903 0
M  V30 2 C -0.791682 -1.774889 3.497983 0
M  V30 3 C 0.138363 -0.785024 3.423782 0
M  V30 4 N 1.262510 -1.256046 2.804765 0
M  V30 5 C 2.310303 -0.310291 2.700920 0
M  V30 6 N 3.472091 -0.664176 3.279025 0
M  V30 7 C 4.504936 0.202152 3.267069 0
M  V30 8 C 4.468587 1.469463 2.689418 0
M  V30 9 C 3.257601 1.711626 2.142346 0
M  V30 10 N 2.653630 2.679512 1.514694 0
M  V30 11 C 1.541761 2.923663 1.018027 0
M  V30 12 C 0.264066 3.202871 0.447496 0
M  V30 13 N 0.380279 4.559289 0.346833 0
M  V30 14 N -0.748037 5.076605 -0.198779 0
M  V30 15 C -1.582090 4.056979 -0.446923 0
M  V30 16 C -2.815872 3.744876 -0.959742 0
M  V30 17 C -3.383607 2.506034 -1.087748 0
M  V30 18 C -2.611648 1.443138 -0.643270 0
M  V30 19 C -3.223592 0.129898 -0.782466 0
M  V30 20 C -4.545218 -0.135215 -0.616769 0
M  V30 21 N -5.164396 -1.307502 -0.796877 0
M  V30 22 C -4.426022 -2.386159 -1.191808 0
M  V30 23 C -3.059747 -2.211522 -1.389024 0
M  V30 24 N -2.097233 -3.157668 -1.801299 0
M  V30 25 C -0.938451 -3.706794 -1.247170 0
M  V30 26 O -0.695932 -3.229021 -0.112535 0
M  V30 27 C 0.015884 -4.711147 -1.748176 0
M  V30 28 C 1.277282 -4.595502 -0.900494 0
M  V30 29 C 1.822224 -3.187723 -1.096639 0
M  V30 30 C 2.304815 -5.571993 -1.374320 0
M  V30 31 C -2.443450 -0.961569 -1.187395 0
M  V30 32 C -1.331302 1.568411 -0.085663 0
M  V30 33 C -0.950383 2.889588 -0.046530 0
M  V30 34 N 1.175902 1.620139 1.444894 0
M  V30 35 C 2.137719 0.960775 2.070464 0
M  V30 36 C 1.002855 -2.537436 2.505446 0
M  V30 37 N -0.248720 -2.862321 2.925675 0
M  V30 38 H -2.841421 -2.481336 3.647972 0
M  V30 39 H -2.030308 -1.850471 5.198018 0
M  V30 40 H -2.597845 -0.727119 3.956758 0
M  V30 41 H -0.132395 0.192300 3.849419 0
M  V30 42 H 5.481735 -0.031604 3.725653 0
M  V30 43 H 5.181382 2.257211 2.596046 0
M  V30 44 H 3.089955 3.652347 1.254471 0
M  V30 45 H -1.194674 5.996458 -0.497552 0
M  V30 46 H -3.401864 4.609359 -1.301402 0
M  V30 47 H -4.364141 2.353562 -1.502430 0
M  V30 48 H -5.185189 0.669374 -0.310880 0
M  V30 49 H -4.645121 -3.415249 -1.403327 0
M  V30 50 H -2.325730 -3.536843 -2.774681 0
M  V30 51 H -0.406167 -5.724211 -1.524490 0
M  V30 52 H 0.287030 -4.565674 -2.794960 0
M  V30 53 H 1.065249 -4.784180 0.168369 0
M  V30 54 H 2.927309 -3.215855 -1.126802 0
M  V30 55 H 1.516337 -2.480175 -0.323002 0
M  V30 56 H 1.517771 -2.838563 -2.116008 0
M  V30 57 H 3.321402 -5.118275 -1.412752 0
M  V30 58 H 2.053311 -5.976335 -2.360210 0
M  V30 59 H 2.388814 -6.442316 -0.668002 0
M  V30 60 H -1.379639 -0.745758 -1.319000 0
M  V30 61 H -0.726629 0.749066 0.265680 0
M  V30 62 H 1.841413 -3.019234 2.001706 0
M  V30 END ATOM
M  V30 BEGIN BOND
M  V30 1 1 1 2
M  V30 2 2 2 3
M  V30 3 1 3 4
M  V30 4 1 4 5
M  V30 5 2 5 6
M  V30 6 1 6 7
M  V30 7 2 7 8
M  V30 8 1 8 9
M  V30 9 1 9 10
M  V30 10 1 10 11
M  V30 11 1 11 12
M  V30 12 2 12 13
M  V30 13 1 13 14
M  V30 14 1 14 15
M  V30 15 2 15 16
M  V30 16 1 16 17
M  V30 17 2 17 18
M  V30 18 1 18 19
M  V30 19 2 19 20
M  V30 20 1 20 21
M  V30 21 2 21 22
M  V30 22 1 22 23
M  V30 23 1 23 24
M  V30 24 1 24 25
M  V30 25 2 25 26
M  V30 26 1 25 27
M  V30 27 1 27 28
M  V30 28 1 28 29
M  V30 29 1 28 30
M  V30 30 2 23 31
M  V30 31 1 18 32
M  V30 32 2 32 33
M  V30 33 2 11 34
M  V30 34 1 34 35
M  V30 35 1 4 36
M  V30 36 2 36 37
M  V30 37 1 37 2
M  V30 38 1 35 5
M  V30 39 2 35 9
M  V30 40 1 33 12
M  V30 41 1 33 15
M  V30 42 1 31 19
M  V30 43 1 1 38
M  V30 44 1 1 39
M  V30 45 1 1 40
M  V30 46 1 3 41
M  V30 47 1 7 42
M  V30 48 1 8 43
M  V30 49 1 10 44
M  V30 50 1 14 45
M  V30 51 1 16 46
M  V30 52 1 17 47
M  V30 53 1 20 48
M  V30 54 1 22 49
M  V30 55 1 24 50
M  V30 56 1 27 51
M  V30 57 1 27 52
M  V30 58 1 28 53
M  V30 59 1 29 54
M  V30 60 1 29 55
M  V30 61 1 29 56
M  V30 62 1 30 57
M  V30 63 1 30 58
M  V30 64 1 30 59
M  V30 65 1 31 60
M  V30 66 1 32 61
M  V30 67 1 36 62
M  V30 END BOND
M  V30 END CTAB
M  END
>  <Dataset>  (787) 
ChEMBL_Kinases

>  <Ligand_Instance>  (787) 
nan

>  <PDB_ID>  (787) 
nan

>  <Standardized_SMILES>  (787) 
Cc1cn(-c2nccc3[nH]c(-c4n[nH]c5ccc(-c6cncc(NC(=O)CC(C)C)c6)cc45)nc23)cn1

>  <Name>  (787) 
nan

>  <Pocket>  (787) 
nan

>  <ATP_Site>  (787) 
nan

>  <Peripheral>  (787) 
nan

>  <Num_H_Atoms_ProtBoundConf>  (787) 
nan

>  <Num_Resolved_Atoms>  (787) 
nan

>  <Num_Not_Resolved_Atoms>  (787) 
nan

$$$$
CHEMBL4740704
     RDKit          3D

  0  0  0  0  0  0  0  0  0  0999 V3000
M  V30 BEGIN CTAB
M  V30 COUNTS 61 66 0 0 0
M  V30 BEGIN ATOM
M  V30 1 C -0.073534 -2.509265 5.592810 0
M  V30 2 N 0.613925 -3.287001 4.613534 0
M  V30 3 C 1.099559 -4.556949 5.053974 0
M  V30 4 C 0.060956 -3.255993 3.294745 0
M  V30 5 C 0.240164 -1.862526 2.687268 0
M  V30 6 N 1.643313 -1.513514 2.610996 0
M  V30 7 C 2.171574 -0.297525 2.097929 0
M  V30 8 C 3.532205 -0.042533 2.071510 0
M  V30 9 C 4.030811 1.142111 1.572495 0
M  V30 10 F 5.358083 1.334713 1.571357 0
M  V30 11 C 3.113358 2.057487 1.102711 0
M  V30 12 C 1.733494 1.838263 1.111499 0
M  V30 13 C 0.967384 2.952013 0.567350 0
M  V30 14 C 1.291746 4.229211 1.028390 0
M  V30 15 N 0.613623 5.293123 0.567479 0
M  V30 16 C -0.383960 5.211508 -0.332541 0
M  V30 17 C -0.696700 3.925137 -0.784648 0
M  V30 18 N -1.609658 3.473183 -1.663753 0
M  V30 19 C -1.535300 2.132034 -1.781205 0
M  V30 20 C -2.397464 1.352065 -2.660220 0
M  V30 21 N -3.349713 1.900505 -3.434681 0
M  V30 22 N -3.981365 0.977927 -4.133135 0
M  V30 23 C -3.419707 -0.190136 -3.797736 0
M  V30 24 N -3.705852 -1.445639 -4.237295 0
M  V30 25 C -2.981466 -2.490237 -3.741253 0
M  V30 26 C -1.980394 -2.319711 -2.820069 0
M  V30 27 C -1.240695 -3.447854 -2.325323 0
M  V30 28 C -0.687190 -3.573645 -1.079165 0
M  V30 29 C 0.020335 -4.670257 -0.629482 0
M  V30 30 C 0.148559 -5.690861 -1.552161 0
M  V30 31 N -0.383849 -5.595740 -2.782601 0
M  V30 32 C -1.073943 -4.518326 -3.211517 0
M  V30 33 C -1.662559 -1.041056 -2.348522 0
M  V30 34 C -2.414211 -0.009646 -2.870813 0
M  V30 35 N -0.552506 1.716303 -0.958340 0
M  V30 36 C -0.030890 2.784980 -0.344921 0
M  V30 37 C 1.279109 0.637836 1.620452 0
M  V30 38 H -1.105452 -2.329307 5.265229 0
M  V30 39 H 0.431160 -1.500550 5.624945 0
M  V30 40 H -0.003933 -2.915811 6.617632 0
M  V30 41 H 1.818615 -4.912606 4.272518 0
M  V30 42 H 1.720499 -4.369886 5.969534 0
M  V30 43 H 0.343433 -5.294541 5.320504 0
M  V30 44 H 0.493022 -4.038287 2.671584 0
M  V30 45 H -1.034790 -3.459934 3.348982 0
M  V30 46 H -0.287131 -1.795336 1.715669 0
M  V30 47 H -0.316842 -1.144279 3.354638 0
M  V30 48 H 2.342052 -2.223330 2.968134 0
M  V30 49 H 4.180170 -0.817865 2.461274 0
M  V30 50 H 3.573907 2.977638 0.720441 0
M  V30 51 H 2.063577 4.424582 1.742966 0
M  V30 52 H -0.932985 6.072825 -0.705810 0
M  V30 53 H -2.261377 4.150919 -2.154301 0
M  V30 54 H -4.746908 1.218647 -4.784553 0
M  V30 55 H -3.210876 -3.492162 -4.092338 0
M  V30 56 H -0.850199 -2.703963 -0.428351 0
M  V30 57 H 0.439522 -4.717146 0.373071 0
M  V30 58 H 0.703798 -6.585495 -1.241731 0
M  V30 59 H -1.458927 -4.553746 -4.229032 0
M  V30 60 H -0.887393 -0.832597 -1.623924 0
M  V30 61 H 0.202002 0.541629 1.593230 0
M  V30 END ATOM
M  V30 BEGIN BOND
M  V30 1 1 1 2
M  V30 2 1 2 3
M  V30 3 1 2 4
M  V30 4 1 4 5
M  V30 5 1 5 6
M  V30 6 1 6 7
M  V30 7 2 7 8
M  V30 8 1 8 9
M  V30 9 1 9 10
M  V30 10 2 9 11
M  V30 11 1 11 12
M  V30 12 1 12 13
M  V30 13 2 13 14
M  V30 14 1 14 15
M  V30 15 2 15 16
M  V30 16 1 16 17
M  V30 17 1 17 18
M  V30 18 1 18 19
M  V30 19 1 19 20
M  V30 20 2 20 21
M  V30 21 1 21 22
M  V30 22 1 22 23
M  V30 23 2 23 24
M  V30 24 1 24 25
M  V30 25 2 25 26
M  V30 26 1 26 27
M  V30 27 2 27 28
M  V30 28 1 28 29
M  V30 29 2 29 30
M  V30 30 1 30 31
M  V30 31 2 31 32
M  V30 32 1 26 33
M  V30 33 2 33 34
M  V30 34 2 19 35
M  V30 35 1 35 36
M  V30 36 2 12 37
M  V30 37 1 37 7
M  V30 38 1 36 13
M  V30 39 2 36 17
M  V30 40 1 34 20
M  V30 41 1 34 23
M  V30 42 1 32 27
M  V30 43 1 1 38
M  V30 44 1 1 39
M  V30 45 1 1 40
M  V30 46 1 3 41
M  V30 47 1 3 42
M  V30 48 1 3 43
M  V30 49 1 4 44
M  V30 50 1 4 45
M  V30 51 1 5 46
M  V30 52 1 5 47
M  V30 53 1 6 48
M  V30 54 1 8 49
M  V30 55 1 11 50
M  V30 56 1 14 51
M  V30 57 1 16 52
M  V30 58 1 18 53
M  V30 59 1 22 54
M  V30 60 1 25 55
M  V30 61 1 28 56
M  V30 62 1 29 57
M  V30 63 1 30 58
M  V30 64 1 32 59
M  V30 65 1 33 60
M  V30 66 1 37 61
M  V30 END BOND
M  V30 END CTAB
M  END
>  <Dataset>  (788) 
ChEMBL_Kinases

>  <Ligand_Instance>  (788) 
nan

>  <PDB_ID>  (788) 
nan

>  <Standardized_SMILES>  (788) 
CN(C)CCNc1cc(F)cc(-c2cncc3[nH]c(-c4n[nH]c5ncc(-c6cccnc6)cc45)nc23)c1

>  <Name>  (788) 
nan

>  <Pocket>  (788) 
nan

>  <ATP_Site>  (788) 
nan

>  <Peripheral>  (788) 
nan

>  <Num_H_Atoms_ProtBoundConf>  (788) 
nan

>  <Num_Resolved_Atoms>  (788) 
nan

>  <Num_Not_Resolved_Atoms>  (788) 
nan

$$$$
CHEMBL2386718
     RDKit          3D

  0  0  0  0  0  0  0  0  0  0999 V3000
M  V30 BEGIN CTAB
M  V30 COUNTS 47 51 0 0 0
M  V30 BEGIN ATOM
M  V30 1 C -1.174671 0.689573 1.803003 0
M  V30 2 C -1.058662 -0.420488 2.850622 0 CFG=2
M  V30 3 N 0.273638 -0.786151 3.170348 0
M  V30 4 C 1.341125 -1.209321 2.351832 0
M  V30 5 N 2.549926 -1.674810 2.709377 0
M  V30 6 C 3.482599 -2.022420 1.804375 0
M  V30 7 C 3.197374 -1.899064 0.448582 0
M  V30 8 C 1.963660 -1.422045 0.062892 0
M  V30 9 N 1.508608 -1.214098 -1.288698 0
M  V30 10 C 1.388177 0.183659 -1.451096 0
M  V30 11 C 2.223208 1.227228 -1.152596 0
M  V30 12 C 1.470065 2.355858 -1.535707 0
M  V30 13 C 1.943545 3.751671 -1.400931 0
M  V30 14 C 3.198299 4.002036 -0.581098 0
M  V30 15 C 1.830940 4.423846 -0.059432 0
M  V30 16 F 1.500533 5.768439 -0.043766 0
M  V30 17 F 1.410778 3.730097 1.040978 0
M  V30 18 N 0.257389 1.977714 -2.028103 0
M  V30 19 N 0.231535 0.635183 -1.968210 0
M  V30 20 N 1.042858 -1.080367 1.025364 0
M  V30 21 C -1.895902 -1.563812 2.398056 0
M  V30 22 C -3.039680 -1.395418 1.605624 0
M  V30 23 C -3.752896 -2.519273 1.211375 0
M  V30 24 C -3.300338 -3.748128 1.620039 0
M  V30 25 N -3.826282 -4.988361 1.363993 0
M  V30 26 C -3.086627 -5.964574 1.946678 0
M  V30 27 N -2.096538 -5.302847 2.564811 0
M  V30 28 C -2.166696 -3.981992 2.410939 0
M  V30 29 C -1.497570 -2.832083 2.772980 0
M  V30 30 H -2.174700 1.143670 1.936406 0
M  V30 31 H -0.438415 1.477450 1.894596 0
M  V30 32 H -1.179403 0.281235 0.768294 0
M  V30 33 H -1.544618 -0.009903 3.753142 0
M  V30 34 H 0.601604 -0.768279 4.183258 0
M  V30 35 H 4.437988 -2.392588 2.122040 0
M  V30 36 H 3.901843 -2.155542 -0.347504 0
M  V30 37 H 1.461511 -2.180564 -1.569163 0
M  V30 38 H 3.199242 1.139001 -0.735538 0
M  V30 39 H 1.714001 4.412733 -2.260691 0
M  V30 40 H 3.892147 4.790066 -0.883258 0
M  V30 41 H 3.691484 3.120350 -0.099722 0
M  V30 42 H -0.483585 2.651478 -2.392888 0
M  V30 43 H -3.345749 -0.396062 1.314194 0
M  V30 44 H -4.640585 -2.459540 0.598929 0
M  V30 45 H -4.677338 -5.295155 0.805728 0
M  V30 46 H -3.131052 -7.039404 2.002105 0
M  V30 47 H -0.612686 -2.983267 3.379439 0
M  V30 END ATOM
M  V30 BEGIN BOND
M  V30 1 1 1 2
M  V30 2 1 2 3
M  V30 3 1 3 4
M  V30 4 2 4 5
M  V30 5 1 5 6
M  V30 6 2 6 7
M  V30 7 1 7 8
M  V30 8 1 8 9
M  V30 9 1 9 10
M  V30 10 1 10 11
M  V30 11 2 11 12
M  V30 12 1 12 13
M  V30 13 1 13 14
M  V30 14 1 14 15
M  V30 15 1 15 16
M  V30 16 1 15 17
M  V30 17 1 12 18
M  V30 18 1 18 19
M  V30 19 2 8 20
M  V30 20 1 2 21
M  V30 21 2 21 22
M  V30 22 1 22 23
M  V30 23 2 23 24
M  V30 24 1 24 25
M  V30 25 1 25 26
M  V30 26 2 26 27
M  V30 27 1 27 28
M  V30 28 2 28 29
M  V30 29 1 20 4
M  V30 30 1 29 21
M  V30 31 2 19 10
M  V30 32 1 28 24
M  V30 33 1 15 13
M  V30 34 1 1 30
M  V30 35 1 1 31
M  V30 36 1 1 32
M  V30 37 1 2 33 CFG=1
M  V30 38 1 3 34
M  V30 39 1 6 35
M  V30 40 1 7 36
M  V30 41 1 9 37
M  V30 42 1 11 38
M  V30 43 1 13 39
M  V30 44 1 14 40
M  V30 45 1 14 41
M  V30 46 1 18 42
M  V30 47 1 22 43
M  V30 48 1 23 44
M  V30 49 1 25 45
M  V30 50 1 26 46
M  V30 51 1 29 47
M  V30 END BOND
M  V30 END CTAB
M  END
>  <Dataset>  (789) 
ChEMBL_Kinases

>  <Ligand_Instance>  (789) 
nan

>  <PDB_ID>  (789) 
nan

>  <Standardized_SMILES>  (789) 
C[C@H](Nc1nccc(Nc2cc(C3CC3(F)F)[nH]n2)n1)c1ccc2[nH]cnc2c1

>  <Name>  (789) 
nan

>  <Pocket>  (789) 
nan

>  <ATP_Site>  (789) 
nan

>  <Peripheral>  (789) 
nan

>  <Num_H_Atoms_ProtBoundConf>  (789) 
nan

>  <Num_Resolved_Atoms>  (789) 
nan

>  <Num_Not_Resolved_Atoms>  (789) 
nan

$$$$
CHEMBL4461041
     RDKit          3D

  0  0  0  0  0  0  0  0  0  0999 V3000
M  V30 BEGIN CTAB
M  V30 COUNTS 63 66 0 0 0
M  V30 BEGIN ATOM
M  V30 1 C 2.725462 2.119862 2.669084 0
M  V30 2 C 2.782976 0.992048 3.645256 0
M  V30 3 C 2.946338 -0.371149 3.030304 0 CFG=2
M  V30 4 C 4.232984 -0.327596 2.273655 0
M  V30 5 O 5.381904 -0.612963 2.730291 0
M  V30 6 N 4.148521 0.072312 0.917494 0
M  V30 7 C 5.348201 0.551697 0.221381 0
M  V30 8 C 2.915675 0.011802 0.231891 0
M  V30 9 C 2.885354 0.413224 -1.082851 0
M  V30 10 N 1.727552 0.362474 -1.739454 0
M  V30 11 C 0.607726 -0.067217 -1.147858 0
M  V30 12 N -0.602788 -0.101046 -1.894065 0
M  V30 13 C -1.941756 -0.470900 -1.595228 0
M  V30 14 C -2.200977 -0.896227 -0.291112 0
M  V30 15 C -3.472493 -1.285883 0.136196 0
M  V30 16 C -4.512958 -1.247891 -0.767891 0
M  V30 17 C -5.870627 -1.639886 -0.396449 0
M  V30 18 N -6.898406 -1.577558 -1.365149 0
M  V30 19 O -6.063617 -2.016049 0.771863 0
M  V30 20 C -4.219114 -0.824622 -2.037778 0
M  V30 21 C -3.000606 -0.433323 -2.512717 0
M  V30 22 O -2.630118 -0.004182 -3.742031 0
M  V30 23 C -3.304726 0.176103 -4.919747 0
M  V30 24 C -3.877977 -1.086529 -5.490407 0
M  V30 25 O -4.552304 -0.802515 -6.699630 0
M  V30 26 N 0.692971 -0.447163 0.135646 0
M  V30 27 C 1.797803 -0.439280 0.892402 0
M  V30 28 N 1.855165 -0.848112 2.253797 0
M  V30 29 C 0.800969 -1.718854 2.748253 0
M  V30 30 C 1.361296 -3.018000 3.286914 0
M  V30 31 C 0.923047 -3.115055 4.715585 0
M  V30 32 C 0.276498 -1.813365 5.101762 0
M  V30 33 C -0.073288 -1.112265 3.798597 0
M  V30 34 H 1.781497 2.215909 2.107204 0
M  V30 35 H 3.637650 2.130509 2.069412 0
M  V30 36 H 2.777035 3.064855 3.286878 0
M  V30 37 H 3.744269 1.147812 4.223884 0
M  V30 38 H 2.013383 1.043867 4.442812 0
M  V30 39 H 3.190291 -1.049632 3.900937 0
M  V30 40 H 5.165957 1.552829 -0.218568 0
M  V30 41 H 6.158610 0.659854 0.953576 0
M  V30 42 H 5.674089 -0.211300 -0.513710 0
M  V30 43 H 3.726541 0.771869 -1.643222 0
M  V30 44 H -0.511530 0.217260 -2.905141 0
M  V30 45 H -1.508846 -0.981740 0.529898 0
M  V30 46 H -3.718045 -1.622603 1.137600 0
M  V30 47 H -7.183097 -2.477276 -1.811948 0
M  V30 48 H -7.302777 -0.643396 -1.569055 0
M  V30 49 H -5.045165 -0.790068 -2.719260 0
M  V30 50 H -2.583153 0.601814 -5.672531 0
M  V30 51 H -4.126697 0.939932 -4.857843 0
M  V30 52 H -3.019512 -1.766444 -5.757683 0
M  V30 53 H -4.586043 -1.585615 -4.828197 0
M  V30 54 H -4.734366 -1.665377 -7.116573 0
M  V30 55 H 0.112455 -2.025747 1.929134 0
M  V30 56 H 1.001832 -3.910688 2.734972 0
M  V30 57 H 2.481767 -3.075813 3.177396 0
M  V30 58 H 1.748388 -3.310989 5.432581 0
M  V30 59 H 0.210524 -3.970513 4.845327 0
M  V30 60 H -0.630361 -2.064538 5.710981 0
M  V30 61 H 0.903413 -1.187997 5.772282 0
M  V30 62 H -0.050483 -0.020241 3.854251 0
M  V30 63 H -1.171780 -1.340995 3.646895 0
M  V30 END ATOM
M  V30 BEGIN BOND
M  V30 1 1 1 2
M  V30 2 1 2 3
M  V30 3 1 3 4
M  V30 4 2 4 5
M  V30 5 1 4 6
M  V30 6 1 6 7
M  V30 7 1 6 8
M  V30 8 2 8 9
M  V30 9 1 9 10
M  V30 10 2 10 11
M  V30 11 1 11 12
M  V30 12 1 12 13
M  V30 13 2 13 14
M  V30 14 1 14 15
M  V30 15 2 15 16
M  V30 16 1 16 17
M  V30 17 1 17 18
M  V30 18 2 17 19
M  V30 19 1 16 20
M  V30 20 2 20 21
M  V30 21 1 21 22
M  V30 22 1 22 23
M  V30 23 1 23 24
M  V30 24 1 24 25
M  V30 25 1 11 26
M  V30 26 2 26 27
M  V30 27 1 27 28
M  V30 28 1 28 29
M  V30 29 1 29 30
M  V30 30 1 30 31
M  V30 31 1 31 32
M  V30 32 1 32 33
M  V30 33 1 28 3
M  V30 34 1 33 29
M  V30 35 1 27 8
M  V30 36 1 21 13
M  V30 37 1 1 34
M  V30 38 1 1 35
M  V30 39 1 1 36
M  V30 40 1 2 37
M  V30 41 1 2 38
M  V30 42 1 3 39 CFG=1
M  V30 43 1 7 40
M  V30 44 1 7 41
M  V30 45 1 7 42
M  V30 46 1 9 43
M  V30 47 1 12 44
M  V30 48 1 14 45
M  V30 49 1 15 46
M  V30 50 1 18 47
M  V30 51 1 18 48
M  V30 52 1 20 49
M  V30 53 1 23 50
M  V30 54 1 23 51
M  V30 55 1 24 52
M  V30 56 1 24 53
M  V30 57 1 25 54
M  V30 58 1 29 55
M  V30 59 1 30 56
M  V30 60 1 30 57
M  V30 61 1 31 58
M  V30 62 1 31 59
M  V30 63 1 32 60
M  V30 64 1 32 61
M  V30 65 1 33 62
M  V30 66 1 33 63
M  V30 END BOND
M  V30 END CTAB
M  END
>  <Dataset>  (790) 
ChEMBL_Kinases

>  <Ligand_Instance>  (790) 
nan

>  <PDB_ID>  (790) 
nan

>  <Standardized_SMILES>  (790) 
CC[C@@H]1C(=O)N(C)c2cnc(Nc3ccc(C(N)=O)cc3OCCO)nc2N1C1CCCC1

>  <Name>  (790) 
nan

>  <Pocket>  (790) 
nan

>  <ATP_Site>  (790) 
nan

>  <Peripheral>  (790) 
nan

>  <Num_H_Atoms_ProtBoundConf>  (790) 
nan

>  <Num_Resolved_Atoms>  (790) 
nan

>  <Num_Not_Resolved_Atoms>  (790) 
nan

$$$$
CHEMBL4749262
     RDKit          3D

  0  0  0  0  0  0  0  0  0  0999 V3000
M  V30 BEGIN CTAB
M  V30 COUNTS 58 63 0 0 0
M  V30 BEGIN ATOM
M  V30 1 C -0.100759 -3.641801 2.627487 0
M  V30 2 C 1.357404 -3.376706 2.934291 0
M  V30 3 C 1.548425 -3.322958 4.429305 0
M  V30 4 C 2.128622 -4.595034 2.453044 0
M  V30 5 C 1.876143 -2.142969 2.307493 0
M  V30 6 O 2.239112 -1.060467 2.888442 0
M  V30 7 N 2.052292 -1.993661 0.884470 0
M  V30 8 C 2.571730 -0.758250 0.364796 0
M  V30 9 C 3.926442 -0.807860 0.375654 0
M  V30 10 N 4.558509 0.324191 -0.082979 0
M  V30 11 C 3.809462 1.354299 -0.491833 0
M  V30 12 C 2.459439 1.553288 -0.562333 0
M  V30 13 C 1.540864 2.570012 -0.846406 0
M  V30 14 C 1.951225 3.836138 -1.176715 0
M  V30 15 C 0.988068 4.861745 -1.438800 0
M  V30 16 C -0.375558 4.436025 -1.318803 0
M  V30 17 N -1.534492 5.187841 -1.451681 0
M  V30 18 N -2.091152 4.131688 -1.171321 0
M  V30 19 C -2.299866 3.088355 -0.910023 0
M  V30 20 C -2.550745 1.697315 -0.571115 0
M  V30 21 N -2.005819 0.453657 -0.725519 0
M  V30 22 C -2.997787 -0.387904 -0.284576 0
M  V30 23 C -3.098210 -1.749422 -0.199346 0
M  V30 24 C -2.014061 -2.529057 -0.749835 0
M  V30 25 C -1.781482 -3.881848 -0.831404 0
M  V30 26 C -0.754722 -4.519176 -1.395774 0
M  V30 27 C 0.210229 -3.551927 -1.987251 0
M  V30 28 Cl 1.690095 -3.705898 -2.850677 0
M  V30 29 S -0.574367 -1.907714 -1.597220 0
M  V30 30 C -4.177339 -2.446802 0.258224 0
M  V30 31 N -5.240565 -1.736483 0.660202 0
M  V30 32 C -5.250620 -0.387539 0.613621 0
M  V30 33 C -4.117587 0.305496 0.133305 0
M  V30 34 N -3.791283 1.618281 -0.065734 0
M  V30 35 C -0.819441 3.167455 -0.990769 0
M  V30 36 N 0.265046 2.349889 -0.786012 0
M  V30 37 C 1.863152 0.340255 -0.072851 0
M  V30 38 H -0.287243 -3.964733 1.590151 0
M  V30 39 H -0.406896 -4.499637 3.294957 0
M  V30 40 H -0.760293 -2.803267 2.954818 0
M  V30 41 H 2.441183 -3.925837 4.739828 0
M  V30 42 H 1.652791 -2.292532 4.838634 0
M  V30 43 H 0.679879 -3.749530 4.976112 0
M  V30 44 H 2.927619 -4.870176 3.184772 0
M  V30 45 H 2.626225 -4.417391 1.483240 0
M  V30 46 H 1.503693 -5.489606 2.359111 0
M  V30 47 H 1.793541 -2.796452 0.272594 0
M  V30 48 H 4.630798 -1.562191 0.674198 0
M  V30 49 H 4.205315 2.320609 -0.885021 0
M  V30 50 H 2.982581 4.112013 -1.253926 0
M  V30 51 H 1.243047 5.873850 -1.702113 0
M  V30 52 H -1.664068 6.171390 -1.690311 0
M  V30 53 H -2.568299 -4.492828 -0.348956 0
M  V30 54 H -0.539535 -5.559244 -1.480185 0
M  V30 55 H -4.264754 -3.519143 0.332703 0
M  V30 56 H -6.115898 0.191962 0.935438 0
M  V30 57 H -4.577135 2.298014 0.215573 0
M  V30 58 H 0.781652 0.164425 0.024291 0
M  V30 END ATOM
M  V30 BEGIN BOND
M  V30 1 1 1 2
M  V30 2 1 2 3
M  V30 3 1 2 4
M  V30 4 1 2 5
M  V30 5 2 5 6
M  V30 6 1 5 7
M  V30 7 1 7 8
M  V30 8 2 8 9
M  V30 9 1 9 10
M  V30 10 2 10 11
M  V30 11 1 11 12
M  V30 12 1 12 13
M  V30 13 2 13 14
M  V30 14 1 14 15
M  V30 15 2 15 16
M  V30 16 1 16 17
M  V30 17 1 17 18
M  V30 18 2 18 19
M  V30 19 1 19 20
M  V30 20 2 20 21
M  V30 21 1 21 22
M  V30 22 2 22 23
M  V30 23 1 23 24
M  V30 24 2 24 25
M  V30 25 1 25 26
M  V30 26 2 26 27
M  V30 27 1 27 28
M  V30 28 1 27 29
M  V30 29 1 23 30
M  V30 30 2 30 31
M  V30 31 1 31 32
M  V30 32 2 32 33
M  V30 33 1 33 34
M  V30 34 1 19 35
M  V30 35 2 35 36
M  V30 36 2 12 37
M  V30 37 1 37 8
M  V30 38 1 36 13
M  V30 39 1 35 16
M  V30 40 1 34 20
M  V30 41 1 33 22
M  V30 42 1 29 24
M  V30 43 1 1 38
M  V30 44 1 1 39
M  V30 45 1 1 40
M  V30 46 1 3 41
M  V30 47 1 3 42
M  V30 48 1 3 43
M  V30 49 1 4 44
M  V30 50 1 4 45
M  V30 51 1 4 46
M  V30 52 1 7 47
M  V30 53 1 9 48
M  V30 54 1 11 49
M  V30 55 1 14 50
M  V30 56 1 15 51
M  V30 57 1 17 52
M  V30 58 1 25 53
M  V30 59 1 26 54
M  V30 60 1 30 55
M  V30 61 1 32 56
M  V30 62 1 34 57
M  V30 63 1 37 58
M  V30 END BOND
M  V30 END CTAB
M  END
>  <Dataset>  (791) 
ChEMBL_Kinases

>  <Ligand_Instance>  (791) 
nan

>  <PDB_ID>  (791) 
nan

>  <Standardized_SMILES>  (791) 
CC(C)(C)C(=O)Nc1cncc(-c2ccc3[nH]nc(-c4nc5c(-c6ccc(Cl)s6)cncc5[nH]4)c3n2)c1

>  <Name>  (791) 
nan

>  <Pocket>  (791) 
nan

>  <ATP_Site>  (791) 
nan

>  <Peripheral>  (791) 
nan

>  <Num_H_Atoms_ProtBoundConf>  (791) 
nan

>  <Num_Resolved_Atoms>  (791) 
nan

>  <Num_Not_Resolved_Atoms>  (791) 
nan

$$$$
CHEMBL4749220
     RDKit          3D

  0  0  0  0  0  0  0  0  0  0999 V3000
M  V30 BEGIN CTAB
M  V30 COUNTS 76 82 0 0 0
M  V30 BEGIN ATOM
M  V30 1 C 8.676268 2.206867 6.005616 0
M  V30 2 N 8.087711 1.932268 4.732820 0
M  V30 3 C 6.770656 1.337022 4.829465 0
M  V30 4 C 5.910517 1.689290 3.631488 0
M  V30 5 N 6.712633 1.664288 2.413719 0
M  V30 6 C 6.420732 0.629988 1.485635 0
M  V30 7 N 7.361549 -0.278451 1.089248 0
M  V30 8 C 7.056394 -1.246185 0.206901 0
M  V30 9 C 5.770404 -1.348190 -0.327603 0
M  V30 10 C 4.828779 -0.427673 0.078216 0
M  V30 11 N 3.536376 -0.251098 -0.232049 0
M  V30 12 C 2.939537 0.771490 0.378693 0
M  V30 13 C 1.623647 1.370453 0.404967 0
M  V30 14 N 1.261411 2.452042 1.142246 0
M  V30 15 N -0.002175 2.760486 0.962987 0
M  V30 16 C -0.570680 1.908335 0.095150 0
M  V30 17 C -1.853765 1.824183 -0.399656 0
M  V30 18 C -2.127517 0.810868 -1.294013 0
M  V30 19 C -1.122854 -0.081463 -1.665876 0
M  V30 20 C -1.545422 -1.119090 -2.620558 0
M  V30 21 C -0.679388 -1.662529 -3.574644 0
M  V30 22 N -1.170049 -2.623071 -4.409713 0
M  V30 23 C -2.440574 -3.054627 -4.343034 0
M  V30 24 C -3.348927 -2.562568 -3.426659 0
M  V30 25 N -4.659535 -3.080676 -3.439887 0
M  V30 26 C -5.736154 -2.761593 -2.580975 0
M  V30 27 O -5.573642 -1.919730 -1.666841 0
M  V30 28 C -7.081613 -3.364650 -2.681958 0
M  V30 29 C -7.982966 -2.920022 -1.550787 0
M  V30 30 C -9.354792 -3.550266 -1.718782 0
M  V30 31 C -10.002350 -3.777033 -0.348713 0
M  V30 32 N -9.322497 -4.846105 0.360291 0
M  V30 33 C -7.928349 -4.881819 -0.095007 0
M  V30 34 C -7.477012 -3.443664 -0.211935 0
M  V30 35 C -2.820605 -1.598111 -2.602999 0
M  V30 36 C 0.136271 0.063343 -1.130824 0
M  V30 37 C 0.455190 1.051499 -0.241120 0
M  V30 38 C 3.982520 1.281698 1.152149 0
M  V30 39 C 5.139169 0.562814 0.980791 0
M  V30 40 C 7.661970 2.757693 2.454247 0
M  V30 41 C 8.141746 3.062267 3.829928 0
M  V30 42 H 9.515352 1.469220 6.151199 0
M  V30 43 H 9.179454 3.205225 6.067793 0
M  V30 44 H 8.006004 2.049809 6.873425 0
M  V30 45 H 6.282361 1.740355 5.731306 0
M  V30 46 H 6.852827 0.239800 4.885307 0
M  V30 47 H 5.459473 2.685548 3.796557 0
M  V30 48 H 5.080733 0.959055 3.619873 0
M  V30 49 H 7.756040 -1.987644 -0.140734 0
M  V30 50 H 5.490339 -2.113670 -1.038939 0
M  V30 51 H 3.055555 -0.875395 -0.900613 0
M  V30 52 H -0.439495 3.567074 1.456851 0
M  V30 53 H -2.600282 2.559936 -0.065516 0
M  V30 54 H -3.172505 0.831045 -1.627888 0
M  V30 55 H 0.343310 -1.306229 -3.617645 0
M  V30 56 H -2.652604 -3.824962 -5.089684 0
M  V30 57 H -4.929741 -3.792509 -4.149325 0
M  V30 58 H -7.528125 -3.118211 -3.666243 0
M  V30 59 H -7.027468 -4.485580 -2.664530 0
M  V30 60 H -8.019972 -1.815066 -1.526015 0
M  V30 61 H -9.331257 -4.518048 -2.227373 0
M  V30 62 H -10.043627 -2.818783 -2.224877 0
M  V30 63 H -11.034087 -4.123679 -0.554446 0
M  V30 64 H -10.054951 -2.863390 0.249159 0
M  V30 65 H -9.806423 -5.762661 0.245167 0
M  V30 66 H -7.301247 -5.456385 0.618371 0
M  V30 67 H -7.917868 -5.393676 -1.076561 0
M  V30 68 H -6.411842 -3.311831 -0.046745 0
M  V30 69 H -7.989450 -2.801479 0.563065 0
M  V30 70 H -3.460519 -1.168273 -1.866869 0
M  V30 71 H 0.873707 -0.636340 -1.439155 0
M  V30 72 H 3.983942 2.124558 1.827659 0
M  V30 73 H 8.474081 2.497726 1.736798 0
M  V30 74 H 7.084390 3.656295 2.087265 0
M  V30 75 H 7.621038 3.925731 4.259345 0
M  V30 76 H 9.222844 3.344324 3.770551 0
M  V30 END ATOM
M  V30 BEGIN BOND
M  V30 1 1 1 2
M  V30 2 1 2 3
M  V30 3 1 3 4
M  V30 4 1 4 5
M  V30 5 1 5 6
M  V30 6 2 6 7
M  V30 7 1 7 8
M  V30 8 2 8 9
M  V30 9 1 9 10
M  V30 10 1 10 11
M  V30 11 1 11 12
M  V30 12 1 12 13
M  V30 13 2 13 14
M  V30 14 1 14 15
M  V30 15 1 15 16
M  V30 16 2 16 17
M  V30 17 1 17 18
M  V30 18 2 18 19
M  V30 19 1 19 20
M  V30 20 2 20 21
M  V30 21 1 21 22
M  V30 22 2 22 23
M  V30 23 1 23 24
M  V30 24 1 24 25
M  V30 25 1 25 26
M  V30 26 2 26 27
M  V30 27 1 26 28
M  V30 28 1 28 29
M  V30 29 1 29 30
M  V30 30 1 30 31
M  V30 31 1 31 32
M  V30 32 1 32 33
M  V30 33 1 33 34
M  V30 34 2 24 35
M  V30 35 1 19 36
M  V30 36 2 36 37
M  V30 37 2 12 38
M  V30 38 1 38 39
M  V30 39 1 5 40
M  V30 40 1 40 41
M  V30 41 1 41 2
M  V30 42 1 39 6
M  V30 43 2 39 10
M  V30 44 1 37 13
M  V30 45 1 37 16
M  V30 46 1 35 20
M  V30 47 1 34 29
M  V30 48 1 1 42
M  V30 49 1 1 43
M  V30 50 1 1 44
M  V30 51 1 3 45
M  V30 52 1 3 46
M  V30 53 1 4 47
M  V30 54 1 4 48
M  V30 55 1 8 49
M  V30 56 1 9 50
M  V30 57 1 11 51
M  V30 58 1 15 52
M  V30 59 1 17 53
M  V30 60 1 18 54
M  V30 61 1 21 55
M  V30 62 1 23 56
M  V30 63 1 25 57
M  V30 64 1 28 58
M  V30 65 1 28 59
M  V30 66 1 29 60
M  V30 67 1 30 61
M  V30 68 1 30 62
M  V30 69 1 31 63
M  V30 70 1 31 64
M  V30 71 1 32 65
M  V30 72 1 33 66
M  V30 73 1 33 67
M  V30 74 1 34 68
M  V30 75 1 34 69
M  V30 76 1 35 70
M  V30 77 1 36 71
M  V30 78 1 38 72
M  V30 79 1 40 73
M  V30 80 1 40 74
M  V30 81 1 41 75
M  V30 82 1 41 76
M  V30 END BOND
M  V30 END CTAB
M  END
>  <Dataset>  (792) 
ChEMBL_Kinases

>  <Ligand_Instance>  (792) 
nan

>  <PDB_ID>  (792) 
nan

>  <Standardized_SMILES>  (792) 
CN1CCN(c2nccc3[nH]c(-c4n[nH]c5ccc(-c6cncc(NC(=O)CC7CCNCC7)c6)cc45)cc23)CC1

>  <Name>  (792) 
nan

>  <Pocket>  (792) 
nan

>  <ATP_Site>  (792) 
nan

>  <Peripheral>  (792) 
nan

>  <Num_H_Atoms_ProtBoundConf>  (792) 
nan

>  <Num_Resolved_Atoms>  (792) 
nan

>  <Num_Not_Resolved_Atoms>  (792) 
nan

$$$$
CHEMBL4450564
     RDKit          3D

  0  0  0  0  0  0  0  0  0  0999 V3000
M  V30 BEGIN CTAB
M  V30 COUNTS 69 73 0 0 0
M  V30 BEGIN ATOM
M  V30 1 C 0.265416 3.325883 4.420297 0
M  V30 2 C 1.744455 3.595017 4.279183 0
M  V30 3 C 2.428037 2.361397 3.819252 0 CFG=2
M  V30 4 C 3.902661 2.752829 3.748227 0
M  V30 5 O 4.491823 3.857194 3.895378 0
M  V30 6 N 4.747767 1.609612 3.454511 0
M  V30 7 C 4.168487 0.577227 2.651248 0
M  V30 8 C 4.943291 -0.526459 2.367678 0
M  V30 9 N 4.398586 -1.496706 1.625174 0
M  V30 10 C 3.142773 -1.433576 1.154556 0
M  V30 11 N 2.678835 -2.528830 0.382182 0
M  V30 12 C 1.388526 -2.833158 -0.110946 0
M  V30 13 C 0.251774 -2.107613 0.160228 0
M  V30 14 C -1.021238 -2.375030 -0.278002 0
M  V30 15 C -1.204518 -3.482006 -1.074369 0
M  V30 16 C -2.475108 -3.928591 -1.632967 0
M  V30 17 O -2.623014 -4.974286 -2.315303 0
M  V30 18 N -3.691140 -3.216221 -1.459359 0
M  V30 19 C -4.949577 -3.710494 -2.039430 0
M  V30 20 C -5.445463 -2.722114 -3.076838 0
M  V30 21 C -6.925081 -2.670104 -2.816683 0
M  V30 22 C -7.052544 -2.763321 -1.311149 0
M  V30 23 C -5.962741 -3.748366 -0.938104 0
M  V30 24 C -0.118537 -4.246562 -1.382655 0
M  V30 25 C 1.137859 -3.945090 -0.924862 0
M  V30 26 O 2.227585 -4.758182 -1.265519 0
M  V30 27 C 2.010097 -5.895564 -2.090290 0
M  V30 28 N 2.364472 -0.357051 1.419825 0
M  V30 29 C 2.847077 0.683158 2.174476 0
M  V30 30 N 2.051148 1.860999 2.494781 0
M  V30 31 C 1.095417 2.270024 1.470177 0
M  V30 32 C 1.208387 3.740783 1.145848 0
M  V30 33 C 0.484991 3.832732 -0.215415 0
M  V30 34 C 1.201555 2.732177 -0.939658 0
M  V30 35 C 1.487793 1.687692 0.114987 0
M  V30 36 H -0.301704 4.157271 3.948177 0
M  V30 37 H -0.059325 2.357658 3.998699 0
M  V30 38 H 0.000473 3.250286 5.512145 0
M  V30 39 H 2.086875 3.901925 5.316161 0
M  V30 40 H 1.988470 4.498210 3.685393 0
M  V30 41 H 2.377105 1.537022 4.549943 0
M  V30 42 H 5.736509 1.515367 3.788540 0
M  V30 43 H 5.964316 -0.631097 2.722365 0
M  V30 44 H 3.388969 -3.256737 0.113908 0
M  V30 45 H 0.296392 -1.232483 0.784716 0
M  V30 46 H -1.888115 -1.778582 -0.042400 0
M  V30 47 H -3.716127 -2.328022 -0.915465 0
M  V30 48 H -4.806517 -4.706683 -2.503183 0
M  V30 49 H -5.221026 -3.154551 -4.071905 0
M  V30 50 H -4.920644 -1.758657 -2.896885 0
M  V30 51 H -7.346093 -1.750548 -3.237667 0
M  V30 52 H -7.353856 -3.612118 -3.254219 0
M  V30 53 H -8.033093 -3.166425 -0.992114 0
M  V30 54 H -6.852348 -1.773337 -0.904826 0
M  V30 55 H -6.372851 -4.748234 -0.737300 0
M  V30 56 H -5.556650 -3.381421 0.033680 0
M  V30 57 H -0.197307 -5.134534 -2.008540 0
M  V30 58 H 2.956084 -6.440147 -2.222017 0
M  V30 59 H 1.618530 -5.644102 -3.087319 0
M  V30 60 H 1.305279 -6.596935 -1.584766 0
M  V30 61 H 0.069923 2.009034 1.688155 0
M  V30 62 H 0.606071 4.404497 1.769173 0
M  V30 63 H 2.231203 4.068266 0.947038 0
M  V30 64 H -0.596729 3.699952 -0.107619 0
M  V30 65 H 0.739533 4.844679 -0.587920 0
M  V30 66 H 0.614748 2.349482 -1.802338 0
M  V30 67 H 2.123044 3.168878 -1.394393 0
M  V30 68 H 2.609387 1.548912 0.069406 0
M  V30 69 H 0.918459 0.810000 -0.178755 0
M  V30 END ATOM
M  V30 BEGIN BOND
M  V30 1 1 1 2
M  V30 2 1 2 3
M  V30 3 1 3 4
M  V30 4 2 4 5
M  V30 5 1 4 6
M  V30 6 1 6 7
M  V30 7 2 7 8
M  V30 8 1 8 9
M  V30 9 2 9 10
M  V30 10 1 10 11
M  V30 11 1 11 12
M  V30 12 2 12 13
M  V30 13 1 13 14
M  V30 14 2 14 15
M  V30 15 1 15 16
M  V30 16 2 16 17
M  V30 17 1 16 18
M  V30 18 1 18 19
M  V30 19 1 19 20
M  V30 20 1 20 21
M  V30 21 1 21 22
M  V30 22 1 22 23
M  V30 23 1 15 24
M  V30 24 2 24 25
M  V30 25 1 25 26
M  V30 26 1 26 27
M  V30 27 1 10 28
M  V30 28 2 28 29
M  V30 29 1 29 30
M  V30 30 1 30 31
M  V30 31 1 31 32
M  V30 32 1 32 33
M  V30 33 1 33 34
M  V30 34 1 34 35
M  V30 35 1 30 3
M  V30 36 1 35 31
M  V30 37 1 29 7
M  V30 38 1 25 12
M  V30 39 1 23 19
M  V30 40 1 1 36
M  V30 41 1 1 37
M  V30 42 1 1 38
M  V30 43 1 2 39
M  V30 44 1 2 40
M  V30 45 1 3 41 CFG=1
M  V30 46 1 6 42
M  V30 47 1 8 43
M  V30 48 1 11 44
M  V30 49 1 13 45
M  V30 50 1 14 46
M  V30 51 1 18 47
M  V30 52 1 19 48
M  V30 53 1 20 49
M  V30 54 1 20 50
M  V30 55 1 21 51
M  V30 56 1 21 52
M  V30 57 1 22 53
M  V30 58 1 22 54
M  V30 59 1 23 55
M  V30 60 1 23 56
M  V30 61 1 24 57
M  V30 62 1 27 58
M  V30 63 1 27 59
M  V30 64 1 27 60
M  V30 65 1 31 61
M  V30 66 1 32 62
M  V30 67 1 32 63
M  V30 68 1 33 64
M  V30 69 1 33 65
M  V30 70 1 34 66
M  V30 71 1 34 67
M  V30 72 1 35 68
M  V30 73 1 35 69
M  V30 END BOND
M  V30 END CTAB
M  END
>  <Dataset>  (793) 
ChEMBL_Kinases

>  <Ligand_Instance>  (793) 
nan

>  <PDB_ID>  (793) 
nan

>  <Standardized_SMILES>  (793) 
CC[C@@H]1C(=O)Nc2cnc(Nc3ccc(C(=O)NC4CCCC4)cc3OC)nc2N1C1CCCC1

>  <Name>  (793) 
nan

>  <Pocket>  (793) 
nan

>  <ATP_Site>  (793) 
nan

>  <Peripheral>  (793) 
nan

>  <Num_H_Atoms_ProtBoundConf>  (793) 
nan

>  <Num_Resolved_Atoms>  (793) 
nan

>  <Num_Not_Resolved_Atoms>  (793) 
nan

$$$$
CHEMBL4749143
     RDKit          3D

  0  0  0  0  0  0  0  0  0  0999 V3000
M  V30 BEGIN CTAB
M  V30 COUNTS 49 53 0 0 0
M  V30 BEGIN ATOM
M  V30 1 C 1.218107 -3.767232 3.751142 0
M  V30 2 C 2.598450 -3.830042 3.196754 0
M  V30 3 N 3.585204 -4.712149 3.463429 0
M  V30 4 N 4.674643 -4.460404 2.787304 0
M  V30 5 C 4.382964 -3.370865 2.052176 0
M  V30 6 C 5.181452 -2.685701 1.160159 0
M  V30 7 C 4.686170 -1.579501 0.500934 0
M  V30 8 C 3.404040 -1.110108 0.690315 0
M  V30 9 C 2.828199 0.050960 0.022854 0
M  V30 10 C 3.528137 0.811951 -0.886064 0
M  V30 11 N 2.981840 1.894007 -1.503805 0
M  V30 12 C 1.713929 2.262671 -1.240851 0
M  V30 13 C 1.004887 1.505935 -0.331326 0
M  V30 14 O -0.304067 1.859504 -0.038466 0
M  V30 15 C -1.120111 1.176252 0.859708 0
M  V30 16 C -1.373356 -0.267071 0.525497 0 CFG=2
M  V30 17 C -2.042761 -0.462613 -0.795122 0
M  V30 18 C -3.323176 0.293450 -0.778773 0
M  V30 19 C -3.820126 0.886053 -1.915603 0
M  V30 20 C -5.002594 1.572211 -1.854753 0
M  V30 21 C -5.715137 1.684231 -0.666341 0
M  V30 22 C -5.213336 1.084222 0.487686 0
M  V30 23 C -4.023646 0.399291 0.405793 0
M  V30 24 C -3.526485 -0.217834 1.636315 0
M  V30 25 N -2.233238 -0.817957 1.555623 0
M  V30 26 N 1.563330 0.440380 0.268044 0
M  V30 27 C 2.626968 -1.811342 1.585679 0
M  V30 28 C 3.094397 -2.924071 2.262284 0
M  V30 29 H 1.091534 -2.976480 4.521092 0
M  V30 30 H 1.058547 -4.741631 4.294980 0
M  V30 31 H 0.466977 -3.732959 2.950417 0
M  V30 32 H 5.587378 -4.968204 2.789970 0
M  V30 33 H 6.209380 -3.014075 0.970316 0
M  V30 34 H 5.320352 -1.053013 -0.193531 0
M  V30 35 H 4.543638 0.571667 -1.140166 0
M  V30 36 H 1.220164 3.104587 -1.691494 0
M  V30 37 H -0.597584 1.180529 1.856491 0
M  V30 38 H -2.052809 1.738678 1.033935 0
M  V30 39 H -0.443510 -0.841491 0.529433 0
M  V30 40 H -2.322231 -1.524951 -0.899081 0
M  V30 41 H -1.408762 -0.188006 -1.660003 0
M  V30 42 H -3.215864 0.765870 -2.827168 0
M  V30 43 H -5.337498 2.016470 -2.792115 0
M  V30 44 H -6.629479 2.253715 -0.767894 0
M  V30 45 H -5.833358 1.225328 1.354987 0
M  V30 46 H -3.500872 0.582301 2.420295 0
M  V30 47 H -4.253101 -0.974294 2.020421 0
M  V30 48 H -2.284141 -1.866693 1.430721 0
M  V30 49 H 1.599454 -1.569028 1.843399 0
M  V30 END ATOM
M  V30 BEGIN BOND
M  V30 1 1 1 2
M  V30 2 2 2 3
M  V30 3 1 3 4
M  V30 4 1 4 5
M  V30 5 2 5 6
M  V30 6 1 6 7
M  V30 7 2 7 8
M  V30 8 1 8 9
M  V30 9 2 9 10
M  V30 10 1 10 11
M  V30 11 2 11 12
M  V30 12 1 12 13
M  V30 13 1 13 14
M  V30 14 1 14 15
M  V30 15 1 15 16
M  V30 16 1 16 17
M  V30 17 1 17 18
M  V30 18 2 18 19
M  V30 19 1 19 20
M  V30 20 2 20 21
M  V30 21 1 21 22
M  V30 22 2 22 23
M  V30 23 1 23 24
M  V30 24 1 24 25
M  V30 25 2 13 26
M  V30 26 1 8 27
M  V30 27 2 27 28
M  V30 28 1 28 2
M  V30 29 1 28 5
M  V30 30 1 26 9
M  V30 31 1 25 16
M  V30 32 1 23 18
M  V30 33 1 1 29
M  V30 34 1 1 30
M  V30 35 1 1 31
M  V30 36 1 4 32
M  V30 37 1 6 33
M  V30 38 1 7 34
M  V30 39 1 10 35
M  V30 40 1 12 36
M  V30 41 1 15 37
M  V30 42 1 15 38
M  V30 43 1 16 39 CFG=3
M  V30 44 1 17 40
M  V30 45 1 17 41
M  V30 46 1 19 42
M  V30 47 1 20 43
M  V30 48 1 21 44
M  V30 49 1 22 45
M  V30 50 1 24 46
M  V30 51 1 24 47
M  V30 52 1 25 48
M  V30 53 1 27 49
M  V30 END BOND
M  V30 END CTAB
M  END
>  <Dataset>  (794) 
ChEMBL_Kinases

>  <Ligand_Instance>  (794) 
nan

>  <PDB_ID>  (794) 
nan

>  <Standardized_SMILES>  (794) 
Cc1n[nH]c2ccc(-c3cncc(OC[C@@H]4Cc5ccccc5CN4)n3)cc12

>  <Name>  (794) 
nan

>  <Pocket>  (794) 
nan

>  <ATP_Site>  (794) 
nan

>  <Peripheral>  (794) 
nan

>  <Num_H_Atoms_ProtBoundConf>  (794) 
nan

>  <Num_Resolved_Atoms>  (794) 
nan

>  <Num_Not_Resolved_Atoms>  (794) 
nan

$$$$
CHEMBL4450624
     RDKit          3D

  0  0  0  0  0  0  0  0  0  0999 V3000
M  V30 BEGIN CTAB
M  V30 COUNTS 81 85 0 0 0
M  V30 BEGIN ATOM
M  V30 1 C 5.196007 -0.485160 3.350626 0
M  V30 2 C 6.231314 -0.563303 2.263794 0
M  V30 3 C 5.603763 -0.820661 0.948312 0 CFG=2
M  V30 4 C 6.634185 -0.933721 -0.164481 0
M  V30 5 O 7.877921 -0.706713 -0.248358 0
M  V30 6 N 6.046538 -1.411456 -1.402708 0
M  V30 7 C 6.748046 -2.211271 -2.404899 0
M  V30 8 C 4.693719 -1.046028 -1.655501 0
M  V30 9 C 4.004983 -1.440046 -2.799353 0
M  V30 10 N 2.725474 -1.096420 -3.038694 0
M  V30 11 C 2.044011 -0.326962 -2.139436 0
M  V30 12 N 0.736605 0.218701 -2.025289 0
M  V30 13 C -0.396432 -0.433701 -1.402676 0
M  V30 14 C -0.043793 -1.733328 -0.992318 0
M  V30 15 C -0.966270 -2.545063 -0.374785 0
M  V30 16 C -2.263481 -2.078093 -0.150544 0
M  V30 17 C -3.244983 -2.919260 0.497193 0
M  V30 18 O -2.889489 -4.094705 0.724409 0
M  V30 19 N -4.532408 -2.537351 0.885180 0
M  V30 20 C -5.403136 -3.461078 1.517297 0
M  V30 21 C -5.757767 -3.205970 2.935049 0
M  V30 22 C -6.821500 -2.155994 3.160788 0
M  V30 23 N -7.981241 -2.370058 2.317518 0
M  V30 24 C -8.929838 -1.317034 2.632354 0
M  V30 25 C -7.529962 -2.302703 0.942574 0
M  V30 26 C -6.678303 -3.559408 0.716925 0
M  V30 27 C -2.520425 -0.806312 -0.579678 0
M  V30 28 C -1.686424 0.080994 -1.201328 0
M  V30 29 O -1.701593 1.301428 -1.685313 0
M  V30 30 C -2.635646 2.286453 -1.801792 0
M  V30 31 C -3.825314 2.008701 -2.681560 0
M  V30 32 O -4.588086 0.937015 -2.296531 0
M  V30 33 N 2.715667 0.041954 -1.052003 0
M  V30 34 C 3.980129 -0.252166 -0.735421 0
M  V30 35 N 4.672407 0.179161 0.463405 0
M  V30 36 C 4.427863 1.472248 0.982478 0
M  V30 37 C 3.339738 2.289682 0.378709 0
M  V30 38 C 3.938901 2.990577 -0.817406 0
M  V30 39 C 5.411565 3.151262 -0.494404 0
M  V30 40 C 5.699635 2.312264 0.732002 0
M  V30 41 H 5.310594 -1.358347 4.065420 0
M  V30 42 H 5.210602 0.450556 3.935258 0
M  V30 43 H 4.181834 -0.638937 2.929812 0
M  V30 44 H 6.862489 -1.481358 2.484443 0
M  V30 45 H 6.966844 0.263202 2.311957 0
M  V30 46 H 5.122505 -1.811715 1.017675 0
M  V30 47 H 6.148258 -3.143603 -2.506149 0
M  V30 48 H 7.791065 -2.400946 -2.115224 0
M  V30 49 H 6.640511 -1.667145 -3.368054 0
M  V30 50 H 4.477801 -2.037285 -3.536252 0
M  V30 51 H 0.703332 1.171334 -2.456614 0
M  V30 52 H 0.941542 -2.189380 -1.122388 0
M  V30 53 H -0.715317 -3.541904 -0.054369 0
M  V30 54 H -4.832424 -1.537708 0.690303 0
M  V30 55 H -4.921982 -4.465349 1.485860 0
M  V30 56 H -6.207393 -4.149441 3.324034 0
M  V30 57 H -4.927949 -3.010276 3.627092 0
M  V30 58 H -6.491169 -1.122904 3.053623 0
M  V30 59 H -7.167044 -2.287199 4.215961 0
M  V30 60 H -9.986929 -1.670023 2.544099 0
M  V30 61 H -8.792903 -1.038667 3.693488 0
M  V30 62 H -8.728571 -0.464971 1.952694 0
M  V30 63 H -8.344501 -2.321006 0.206553 0
M  V30 64 H -6.879403 -1.413107 0.862733 0
M  V30 65 H -7.274672 -4.464533 0.944667 0
M  V30 66 H -6.410270 -3.516529 -0.366233 0
M  V30 67 H -3.509339 -0.435538 -0.386869 0
M  V30 68 H -2.151885 3.262650 -2.156056 0
M  V30 69 H -3.054445 2.611934 -0.783075 0
M  V30 70 H -3.459499 1.826737 -3.720822 0
M  V30 71 H -4.455666 2.929665 -2.722046 0
M  V30 72 H -4.611223 0.197448 -2.973646 0
M  V30 73 H 4.292055 1.542573 2.082243 0
M  V30 74 H 3.080303 3.166639 1.082030 0
M  V30 75 H 2.414063 1.803367 0.174380 0
M  V30 76 H 3.535613 4.024606 -0.964687 0
M  V30 77 H 3.835874 2.450306 -1.769170 0
M  V30 78 H 5.687264 4.184299 -0.234227 0
M  V30 79 H 6.023201 2.870955 -1.371165 0
M  V30 80 H 6.001997 2.892733 1.601766 0
M  V30 81 H 6.522935 1.635456 0.447997 0
M  V30 END ATOM
M  V30 BEGIN BOND
M  V30 1 1 1 2
M  V30 2 1 2 3
M  V30 3 1 3 4
M  V30 4 2 4 5
M  V30 5 1 4 6
M  V30 6 1 6 7
M  V30 7 1 6 8
M  V30 8 2 8 9
M  V30 9 1 9 10
M  V30 10 2 10 11
M  V30 11 1 11 12
M  V30 12 1 12 13
M  V30 13 2 13 14
M  V30 14 1 14 15
M  V30 15 2 15 16
M  V30 16 1 16 17
M  V30 17 2 17 18
M  V30 18 1 17 19
M  V30 19 1 19 20
M  V30 20 1 20 21
M  V30 21 1 21 22
M  V30 22 1 22 23
M  V30 23 1 23 24
M  V30 24 1 23 25
M  V30 25 1 25 26
M  V30 26 1 16 27
M  V30 27 2 27 28
M  V30 28 1 28 29
M  V30 29 1 29 30
M  V30 30 1 30 31
M  V30 31 1 31 32
M  V30 32 1 11 33
M  V30 33 2 33 34
M  V30 34 1 34 35
M  V30 35 1 35 36
M  V30 36 1 36 37
M  V30 37 1 37 38
M  V30 38 1 38 39
M  V30 39 1 39 40
M  V30 40 1 35 3
M  V30 41 1 40 36
M  V30 42 1 34 8
M  V30 43 1 28 13
M  V30 44 1 26 20
M  V30 45 1 1 41
M  V30 46 1 1 42
M  V30 47 1 1 43
M  V30 48 1 2 44
M  V30 49 1 2 45
M  V30 50 1 3 46 CFG=1
M  V30 51 1 7 47
M  V30 52 1 7 48
M  V30 53 1 7 49
M  V30 54 1 9 50
M  V30 55 1 12 51
M  V30 56 1 14 52
M  V30 57 1 15 53
M  V30 58 1 19 54
M  V30 59 1 20 55
M  V30 60 1 21 56
M  V30 61 1 21 57
M  V30 62 1 22 58
M  V30 63 1 22 59
M  V30 64 1 24 60
M  V30 65 1 24 61
M  V30 66 1 24 62
M  V30 67 1 25 63
M  V30 68 1 25 64
M  V30 69 1 26 65
M  V30 70 1 26 66
M  V30 71 1 27 67
M  V30 72 1 30 68
M  V30 73 1 30 69
M  V30 74 1 31 70
M  V30 75 1 31 71
M  V30 76 1 32 72
M  V30 77 1 36 73
M  V30 78 1 37 74
M  V30 79 1 37 75
M  V30 80 1 38 76
M  V30 81 1 38 77
M  V30 82 1 39 78
M  V30 83 1 39 79
M  V30 84 1 40 80
M  V30 85 1 40 81
M  V30 END BOND
M  V30 END CTAB
M  END
>  <Dataset>  (795) 
ChEMBL_Kinases

>  <Ligand_Instance>  (795) 
nan

>  <PDB_ID>  (795) 
nan

>  <Standardized_SMILES>  (795) 
CC[C@@H]1C(=O)N(C)c2cnc(Nc3ccc(C(=O)NC4CCN(C)CC4)cc3OCCO)nc2N1C1CCCC1

>  <Name>  (795) 
nan

>  <Pocket>  (795) 
nan

>  <ATP_Site>  (795) 
nan

>  <Peripheral>  (795) 
nan

>  <Num_H_Atoms_ProtBoundConf>  (795) 
nan

>  <Num_Resolved_Atoms>  (795) 
nan

>  <Num_Not_Resolved_Atoms>  (795) 
nan

$$$$
CHEMBL242753
     RDKit          3D

  0  0  0  0  0  0  0  0  0  0999 V3000
M  V30 BEGIN CTAB
M  V30 COUNTS 57 62 0 0 0
M  V30 BEGIN ATOM
M  V30 1 O 3.896267 3.015368 3.544787 0
M  V30 2 C 3.362588 1.910934 3.211526 0
M  V30 3 N 3.969524 0.708693 3.594077 0
M  V30 4 C 5.176135 0.542924 4.351732 0
M  V30 5 C 6.367140 0.802371 3.523428 0
M  V30 6 C 6.912504 -0.288154 2.833986 0
M  V30 7 C 8.025663 -0.225962 2.014207 0
M  V30 8 N 8.634635 0.981546 1.866843 0
M  V30 9 C 8.145323 2.065922 2.512484 0
M  V30 10 C 7.035179 1.994352 3.327667 0
M  V30 11 C 2.132359 2.024213 2.439551 0
M  V30 12 C 1.649921 3.275619 2.127462 0
M  V30 13 C 0.469511 3.410386 1.385963 0
M  V30 14 C -0.253783 2.325589 0.940416 0
M  V30 15 C 0.236612 1.072450 1.257660 0
M  V30 16 C 1.398797 0.953198 1.987573 0
M  V30 17 C -0.680577 0.023383 0.690190 0
M  V30 18 C -1.741266 0.798704 0.017439 0
M  V30 19 C -2.905895 0.701376 -0.714245 0
M  V30 20 C -3.551837 -0.544905 -1.112639 0
M  V30 21 C -4.890967 -0.877379 -1.055170 0
M  V30 22 C -5.295979 -2.125063 -1.487797 0
M  V30 23 C -4.417073 -3.068663 -1.981617 0
M  V30 24 C -4.909965 -4.377736 -2.427614 0
M  V30 25 C -6.003185 -4.978475 -1.840334 0
M  V30 26 C -6.450682 -6.221586 -2.283648 0
M  V30 27 C -5.729286 -6.790489 -3.332800 0
M  V30 28 O -6.090356 -8.027277 -3.850611 0
M  V30 29 C -4.635348 -6.176577 -3.911598 0
M  V30 30 C -4.206592 -4.932660 -3.450668 0
M  V30 31 C -3.074872 -2.740572 -2.041165 0
M  V30 32 C -2.665337 -1.493584 -1.609165 0
M  V30 33 N -3.310994 1.937474 -0.978257 0
M  V30 34 N -2.474080 2.848568 -0.458717 0
M  V30 35 C -1.482111 2.163220 0.170289 0
M  V30 36 H 3.466593 -0.152490 3.279042 0
M  V30 37 H 5.254209 -0.487481 4.751728 0
M  V30 38 H 5.167103 1.189917 5.277764 0
M  V30 39 H 6.440518 -1.276361 2.934804 0
M  V30 40 H 8.383536 -1.116708 1.517560 0
M  V30 41 H 8.639719 3.031260 2.388735 0
M  V30 42 H 6.616927 2.835706 3.857849 0
M  V30 43 H 2.145713 4.201468 2.431243 0
M  V30 44 H 0.059645 4.374397 1.121559 0
M  V30 45 H 1.739595 -0.048059 2.209602 0
M  V30 46 H -0.104410 -0.643251 0.052371 0
M  V30 47 H -1.155445 -0.528454 1.553959 0
M  V30 48 H -5.518153 -0.095998 -0.659928 0
M  V30 49 H -6.371237 -2.342342 -1.422493 0
M  V30 50 H -6.529284 -4.476219 -1.014395 0
M  V30 51 H -7.303973 -6.714691 -1.841528 0
M  V30 52 H -5.469237 -8.835444 -3.698869 0
M  V30 53 H -4.106893 -6.661757 -4.727554 0
M  V30 54 H -3.357714 -4.510836 -3.937083 0
M  V30 55 H -2.420661 -3.493907 -2.428377 0
M  V30 56 H -1.598702 -1.336655 -1.696718 0
M  V30 57 H -2.557806 3.886942 -0.519415 0
M  V30 END ATOM
M  V30 BEGIN BOND
M  V30 1 2 1 2
M  V30 2 1 2 3
M  V30 3 1 3 4
M  V30 4 1 4 5
M  V30 5 2 5 6
M  V30 6 1 6 7
M  V30 7 2 7 8
M  V30 8 1 8 9
M  V30 9 2 9 10
M  V30 10 1 2 11
M  V30 11 2 11 12
M  V30 12 1 12 13
M  V30 13 2 13 14
M  V30 14 1 14 15
M  V30 15 2 15 16
M  V30 16 1 15 17
M  V30 17 1 17 18
M  V30 18 1 18 19
M  V30 19 1 19 20
M  V30 20 2 20 21
M  V30 21 1 21 22
M  V30 22 2 22 23
M  V30 23 1 23 24
M  V30 24 2 24 25
M  V30 25 1 25 26
M  V30 26 2 26 27
M  V30 27 1 27 28
M  V30 28 1 27 29
M  V30 29 2 29 30
M  V30 30 1 23 31
M  V30 31 2 31 32
M  V30 32 2 19 33
M  V30 33 1 33 34
M  V30 34 1 34 35
M  V30 35 1 10 5
M  V30 36 1 16 11
M  V30 37 2 35 18
M  V30 38 1 35 14
M  V30 39 1 32 20
M  V30 40 1 30 24
M  V30 41 1 3 36
M  V30 42 1 4 37
M  V30 43 1 4 38
M  V30 44 1 6 39
M  V30 45 1 7 40
M  V30 46 1 9 41
M  V30 47 1 10 42
M  V30 48 1 12 43
M  V30 49 1 13 44
M  V30 50 1 16 45
M  V30 51 1 17 46
M  V30 52 1 17 47
M  V30 53 1 21 48
M  V30 54 1 22 49
M  V30 55 1 25 50
M  V30 56 1 26 51
M  V30 57 1 28 52
M  V30 58 1 29 53
M  V30 59 1 30 54
M  V30 60 1 31 55
M  V30 61 1 32 56
M  V30 62 1 34 57
M  V30 END BOND
M  V30 END CTAB
M  END
>  <Dataset>  (796) 
ChEMBL_Kinases

>  <Ligand_Instance>  (796) 
nan

>  <PDB_ID>  (796) 
nan

>  <Standardized_SMILES>  (796) 
O=C(NCc1ccncc1)c1ccc2c(c1)Cc1c(-c3ccc(-c4ccc(O)cc4)cc3)n[nH]c1-2

>  <Name>  (796) 
nan

>  <Pocket>  (796) 
nan

>  <ATP_Site>  (796) 
nan

>  <Peripheral>  (796) 
nan

>  <Num_H_Atoms_ProtBoundConf>  (796) 
nan

>  <Num_Resolved_Atoms>  (796) 
nan

>  <Num_Not_Resolved_Atoms>  (796) 
nan

$$$$
CHEMBL4451091
     RDKit          3D

  0  0  0  0  0  0  0  0  0  0999 V3000
M  V30 BEGIN CTAB
M  V30 COUNTS 46 48 0 0 0
M  V30 BEGIN ATOM
M  V30 1 C 0.310092 -3.692020 4.153520 0
M  V30 2 N -0.040095 -3.088534 2.856320 0
M  V30 3 C -1.076670 -3.858868 2.254535 0
M  V30 4 C 0.704361 -1.947505 2.483353 0
M  V30 5 N 1.853327 -1.665131 3.113634 0
M  V30 6 C 2.641543 -0.636327 2.796040 0
M  V30 7 C 2.349106 0.245961 1.778778 0
M  V30 8 C 3.209504 1.370006 1.429582 0
M  V30 9 C 3.211321 1.747444 0.101223 0
M  V30 10 C 3.990880 2.800075 -0.337457 0
M  V30 11 C 4.780991 3.482055 0.580248 0
M  V30 12 O 5.591479 4.559302 0.184727 0
M  V30 13 C 4.783507 3.107120 1.918000 0
M  V30 14 C 3.996973 2.055062 2.325317 0
M  V30 15 C 1.179706 -0.002717 1.103984 0
M  V30 16 C 0.401909 -1.081299 1.475398 0
M  V30 17 C -0.831879 -1.193083 0.711431 0
M  V30 18 C -0.643230 -1.229454 -0.676608 0
M  V30 19 C -1.667099 -1.306334 -1.594997 0
M  V30 20 C -2.969052 -1.351512 -1.142953 0
M  V30 21 S -4.311106 -1.449338 -2.253540 0
M  V30 22 C -4.889463 0.178172 -2.721983 0
M  V30 23 O -5.452465 -2.261342 -1.672323 0
M  V30 24 O -3.862188 -2.164183 -3.494547 0
M  V30 25 C -3.180759 -1.317063 0.216737 0
M  V30 26 C -2.163752 -1.240331 1.139089 0
M  V30 27 H 0.656067 -4.720317 3.922907 0
M  V30 28 H 1.068350 -3.125784 4.701678 0
M  V30 29 H -0.607191 -3.726047 4.785034 0
M  V30 30 H -2.084124 -3.659787 2.668995 0
M  V30 31 H -1.060478 -3.845524 1.121012 0
M  V30 32 H -0.945308 -4.974550 2.445296 0
M  V30 33 H 3.550191 -0.506605 3.378428 0
M  V30 34 H 2.641370 1.290517 -0.685193 0
M  V30 35 H 4.053926 3.160058 -1.345865 0
M  V30 36 H 5.860095 4.569632 -0.792441 0
M  V30 37 H 5.388725 3.619790 2.654816 0
M  V30 38 H 3.977569 1.737071 3.369226 0
M  V30 39 H 0.926183 0.676410 0.299039 0
M  V30 40 H 0.354146 -1.198339 -1.128941 0
M  V30 41 H -1.490956 -1.332694 -2.656358 0
M  V30 42 H -5.490741 0.050371 -3.635545 0
M  V30 43 H -5.438518 0.651665 -1.881642 0
M  V30 44 H -3.972835 0.783961 -2.920858 0
M  V30 45 H -4.181513 -1.349068 0.649209 0
M  V30 46 H -2.233605 -1.207383 2.211596 0
M  V30 END ATOM
M  V30 BEGIN BOND
M  V30 1 1 1 2
M  V30 2 1 2 3
M  V30 3 1 2 4
M  V30 4 2 4 5
M  V30 5 1 5 6
M  V30 6 2 6 7
M  V30 7 1 7 8
M  V30 8 2 8 9
M  V30 9 1 9 10
M  V30 10 2 10 11
M  V30 11 1 11 12
M  V30 12 1 11 13
M  V30 13 2 13 14
M  V30 14 1 7 15
M  V30 15 2 15 16
M  V30 16 1 16 17
M  V30 17 2 17 18
M  V30 18 1 18 19
M  V30 19 2 19 20
M  V30 20 1 20 21
M  V30 21 1 21 22
M  V30 22 2 21 23
M  V30 23 2 21 24
M  V30 24 1 20 25
M  V30 25 2 25 26
M  V30 26 1 16 4
M  V30 27 1 26 17
M  V30 28 1 14 8
M  V30 29 1 1 27
M  V30 30 1 1 28
M  V30 31 1 1 29
M  V30 32 1 3 30
M  V30 33 1 3 31
M  V30 34 1 3 32
M  V30 35 1 6 33
M  V30 36 1 9 34
M  V30 37 1 10 35
M  V30 38 1 12 36
M  V30 39 1 13 37
M  V30 40 1 14 38
M  V30 41 1 15 39
M  V30 42 1 18 40
M  V30 43 1 19 41
M  V30 44 1 22 42
M  V30 45 1 22 43
M  V30 46 1 22 44
M  V30 47 1 25 45
M  V30 48 1 26 46
M  V30 END BOND
M  V30 END CTAB
M  END
>  <Dataset>  (797) 
ChEMBL_Kinases

>  <Ligand_Instance>  (797) 
nan

>  <PDB_ID>  (797) 
nan

>  <Standardized_SMILES>  (797) 
CN(C)c1ncc(-c2ccc(O)cc2)cc1-c1ccc(S(C)(=O)=O)cc1

>  <Name>  (797) 
nan

>  <Pocket>  (797) 
nan

>  <ATP_Site>  (797) 
nan

>  <Peripheral>  (797) 
nan

>  <Num_H_Atoms_ProtBoundConf>  (797) 
nan

>  <Num_Resolved_Atoms>  (797) 
nan

>  <Num_Not_Resolved_Atoms>  (797) 
nan

$$$$
CHEMBL4749014
     RDKit          3D

  0  0  0  0  0  0  0  0  0  0999 V3000
M  V30 BEGIN CTAB
M  V30 COUNTS 72 77 0 0 0
M  V30 BEGIN ATOM
M  V30 1 C 1.389308 -2.230822 3.909970 0
M  V30 2 C 2.115931 -3.293782 3.129200 0
M  V30 3 C 1.327646 -3.739236 1.919773 0
M  V30 4 N 3.449583 -2.926005 2.744272 0
M  V30 5 C 4.095359 -1.936137 1.977743 0
M  V30 6 C 5.478904 -1.899222 1.839183 0
M  V30 7 N 6.071417 -0.957756 1.121686 0
M  V30 8 C 5.353198 0.010371 0.492298 0
M  V30 9 C 3.948532 0.076046 0.559872 0
M  V30 10 C 3.378740 1.175288 -0.149555 0
M  V30 11 C 4.125360 2.343656 -0.183614 0
M  V30 12 N 3.814632 3.513099 -0.813915 0
M  V30 13 C 2.643446 3.508131 -1.472897 0
M  V30 14 N 2.120740 4.519289 -2.184270 0
M  V30 15 N 0.986233 4.052679 -2.657047 0
M  V30 16 C 0.762868 2.787157 -2.277211 0
M  V30 17 C -0.387978 1.998767 -2.675743 0
M  V30 18 N -0.813237 0.755390 -2.409765 0
M  V30 19 C -1.988867 0.540455 -3.070114 0
M  V30 20 C -2.894210 -0.481080 -3.221204 0
M  V30 21 C -2.669048 -1.725823 -2.515543 0
M  V30 22 C -2.759831 -2.885037 -3.278354 0
M  V30 23 C -2.603853 -4.068032 -2.624446 0
M  V30 24 F -2.673182 -5.252193 -3.283824 0
M  V30 25 C -2.367836 -4.173848 -1.284795 0
M  V30 26 C -2.271506 -3.026423 -0.491908 0
M  V30 27 N -2.037098 -3.033431 0.900188 0
M  V30 28 C -1.943560 -1.983378 1.889574 0
M  V30 29 C -3.247801 -1.293567 2.136595 0
M  V30 30 N -3.136141 -0.233613 3.139282 0
M  V30 31 C -4.458769 0.361752 3.290738 0
M  V30 32 C -2.775975 -0.797165 4.428205 0
M  V30 33 C -2.430067 -1.833462 -1.165614 0
M  V30 34 N -3.990730 -0.427351 -3.963088 0
M  V30 35 C -4.330679 0.689803 -4.667442 0
M  V30 36 C -3.462415 1.752305 -4.555347 0
M  V30 37 C -2.325833 1.677554 -3.778917 0
M  V30 38 N -1.318149 2.550132 -3.509644 0
M  V30 39 C 1.828214 2.398469 -1.499861 0
M  V30 40 C 2.193763 1.269124 -0.853037 0
M  V30 41 C 3.396487 -0.928784 1.318165 0
M  V30 42 H 0.410528 -2.702806 4.215548 0
M  V30 43 H 1.219741 -1.302346 3.367124 0
M  V30 44 H 1.922959 -1.982979 4.860793 0
M  V30 45 H 2.170238 -4.178478 3.814054 0
M  V30 46 H 0.265562 -3.882698 2.199633 0
M  V30 47 H 1.711456 -4.766981 1.677687 0
M  V30 48 H 1.475711 -3.058139 1.079965 0
M  V30 49 H 4.156443 -3.607618 3.165748 0
M  V30 50 H 6.107519 -2.654462 2.325359 0
M  V30 51 H 6.042723 0.683812 -0.046352 0
M  V30 52 H 5.094446 2.411045 0.340473 0
M  V30 53 H 2.444674 5.490688 -2.386696 0
M  V30 54 H -2.943134 -2.901980 -4.334725 0
M  V30 55 H -2.245625 -5.134537 -0.775618 0
M  V30 56 H -1.914723 -4.028220 1.257816 0
M  V30 57 H -1.234614 -1.230003 1.446519 0
M  V30 58 H -1.506380 -2.400582 2.812425 0
M  V30 59 H -3.657871 -0.855354 1.226455 0
M  V30 60 H -3.955722 -2.038216 2.585717 0
M  V30 61 H -5.171602 -0.434066 3.637712 0
M  V30 62 H -4.462189 1.170583 4.043876 0
M  V30 63 H -4.821203 0.791633 2.328702 0
M  V30 64 H -3.082276 -0.089578 5.234205 0
M  V30 65 H -1.684831 -0.944870 4.548881 0
M  V30 66 H -3.267323 -1.771794 4.619520 0
M  V30 67 H -2.372313 -0.854290 -0.711245 0
M  V30 68 H -5.215898 0.769206 -5.282426 0
M  V30 69 H -3.695233 2.658698 -5.098041 0
M  V30 70 H -1.365441 3.504369 -3.951861 0
M  V30 71 H 1.543179 0.420930 -0.886635 0
M  V30 72 H 2.319871 -0.852416 1.346432 0
M  V30 END ATOM
M  V30 BEGIN BOND
M  V30 1 1 1 2
M  V30 2 1 2 3
M  V30 3 1 2 4
M  V30 4 1 4 5
M  V30 5 2 5 6
M  V30 6 1 6 7
M  V30 7 2 7 8
M  V30 8 1 8 9
M  V30 9 1 9 10
M  V30 10 2 10 11
M  V30 11 1 11 12
M  V30 12 2 12 13
M  V30 13 1 13 14
M  V30 14 1 14 15
M  V30 15 2 15 16
M  V30 16 1 16 17
M  V30 17 2 17 18
M  V30 18 1 18 19
M  V30 19 2 19 20
M  V30 20 1 20 21
M  V30 21 2 21 22
M  V30 22 1 22 23
M  V30 23 1 23 24
M  V30 24 2 23 25
M  V30 25 1 25 26
M  V30 26 1 26 27
M  V30 27 1 27 28
M  V30 28 1 28 29
M  V30 29 1 29 30
M  V30 30 1 30 31
M  V30 31 1 30 32
M  V30 32 2 26 33
M  V30 33 1 20 34
M  V30 34 2 34 35
M  V30 35 1 35 36
M  V30 36 2 36 37
M  V30 37 1 37 38
M  V30 38 1 16 39
M  V30 39 2 39 40
M  V30 40 2 9 41
M  V30 41 1 41 5
M  V30 42 1 40 10
M  V30 43 1 39 13
M  V30 44 1 38 17
M  V30 45 1 37 19
M  V30 46 1 33 21
M  V30 47 1 1 42
M  V30 48 1 1 43
M  V30 49 1 1 44
M  V30 50 1 2 45
M  V30 51 1 3 46
M  V30 52 1 3 47
M  V30 53 1 3 48
M  V30 54 1 4 49
M  V30 55 1 6 50
M  V30 56 1 8 51
M  V30 57 1 11 52
M  V30 58 1 14 53
M  V30 59 1 22 54
M  V30 60 1 25 55
M  V30 61 1 27 56
M  V30 62 1 28 57
M  V30 63 1 28 58
M  V30 64 1 29 59
M  V30 65 1 29 60
M  V30 66 1 31 61
M  V30 67 1 31 62
M  V30 68 1 31 63
M  V30 69 1 32 64
M  V30 70 1 32 65
M  V30 71 1 32 66
M  V30 72 1 33 67
M  V30 73 1 35 68
M  V30 74 1 36 69
M  V30 75 1 38 70
M  V30 76 1 40 71
M  V30 77 1 41 72
M  V30 END BOND
M  V30 END CTAB
M  END
>  <Dataset>  (798) 
ChEMBL_Kinases

>  <Ligand_Instance>  (798) 
nan

>  <PDB_ID>  (798) 
nan

>  <Standardized_SMILES>  (798) 
CC(C)Nc1cncc(-c2cnc3[nH]nc(-c4nc5c(-c6cc(F)cc(NCCN(C)C)c6)nccc5[nH]4)c3c2)c1

>  <Name>  (798) 
nan

>  <Pocket>  (798) 
nan

>  <ATP_Site>  (798) 
nan

>  <Peripheral>  (798) 
nan

>  <Num_H_Atoms_ProtBoundConf>  (798) 
nan

>  <Num_Resolved_Atoms>  (798) 
nan

>  <Num_Not_Resolved_Atoms>  (798) 
nan

$$$$
CHEMBL4748995
     RDKit          3D

  0  0  0  0  0  0  0  0  0  0999 V3000
M  V30 BEGIN CTAB
M  V30 COUNTS 54 58 0 0 0
M  V30 BEGIN ATOM
M  V30 1 O 2.513335 -0.513305 0.503638 0
M  V30 2 C 3.167189 0.427717 -0.022327 0
M  V30 3 N 4.608458 0.443691 -0.039362 0
M  V30 4 C 5.273634 -0.664222 0.571374 0
M  V30 5 C 5.564135 -0.531059 1.923764 0
M  V30 6 C 6.208392 -1.586892 2.546230 0
M  V30 7 N 6.564285 -2.734177 1.897776 0
M  V30 8 N 6.261815 -2.807951 0.603859 0
M  V30 9 C 5.637676 -1.828800 -0.076126 0
M  V30 10 C 2.498372 1.565096 -0.649936 0
M  V30 11 N 3.054026 2.653694 -1.256664 0
M  V30 12 N 2.112855 3.466554 -1.704025 0
M  V30 13 C 0.878377 2.959033 -1.417059 0
M  V30 14 C -0.397335 3.421582 -1.668785 0
M  V30 15 C -1.487372 2.656606 -1.239672 0
M  V30 16 C -1.271038 1.467516 -0.580263 0
M  V30 17 C -2.454501 0.728473 -0.165777 0
M  V30 18 C -3.632796 0.759289 -0.883842 0
M  V30 19 N -4.700916 0.059650 -0.461394 0
M  V30 20 C -4.690150 -0.683002 0.640221 0
M  V30 21 C -3.562048 -0.778784 1.425175 0
M  V30 22 C -3.382454 -1.555275 2.680824 0
M  V30 23 N -2.910586 -2.847492 2.370350 0
M  V30 24 C -3.652459 -3.720463 1.577839 0
M  V30 25 C -3.176288 -3.755549 0.172636 0
M  V30 26 C -1.828144 -3.252169 -0.124732 0
M  V30 27 C -0.908787 -3.047297 1.021560 0
M  V30 28 C -1.540388 -3.122084 2.371452 0
M  V30 29 C -2.458517 -0.047827 0.976979 0
M  V30 30 C 0.025218 1.055922 -0.356861 0
M  V30 31 C 1.136139 1.767981 -0.756773 0
M  V30 32 H 5.128378 1.232728 -0.479835 0
M  V30 33 H 5.329102 0.340936 2.551799 0
M  V30 34 H 6.448668 -1.504163 3.617402 0
M  V30 35 H 5.390008 -1.879168 -1.118072 0
M  V30 36 H 2.332724 4.363516 -2.202500 0
M  V30 37 H -0.500226 4.363774 -2.191292 0
M  V30 38 H -2.495154 3.023410 -1.439415 0
M  V30 39 H -3.669490 1.362088 -1.793608 0
M  V30 40 H -5.539180 -1.250430 0.995847 0
M  V30 41 H -4.325603 -1.562881 3.283510 0
M  V30 42 H -2.641090 -1.021242 3.351028 0
M  V30 43 H -4.737624 -3.415758 1.609305 0
M  V30 44 H -3.685666 -4.758597 2.039365 0
M  V30 45 H -3.944881 -3.238512 -0.464995 0
M  V30 46 H -3.284204 -4.834441 -0.161154 0
M  V30 47 H -1.894715 -2.314855 -0.732440 0
M  V30 48 H -1.325885 -3.968163 -0.842656 0
M  V30 49 H -0.062734 -3.797626 1.012515 0
M  V30 50 H -0.381162 -2.072939 0.945472 0
M  V30 51 H -0.981779 -2.447891 3.085355 0
M  V30 52 H -1.387151 -4.169057 2.776150 0
M  V30 53 H -1.518794 -0.053888 1.526466 0
M  V30 54 H 0.187294 0.123252 0.160375 0
M  V30 END ATOM
M  V30 BEGIN BOND
M  V30 1 2 1 2
M  V30 2 1 2 3
M  V30 3 1 3 4
M  V30 4 2 4 5
M  V30 5 1 5 6
M  V30 6 2 6 7
M  V30 7 1 7 8
M  V30 8 2 8 9
M  V30 9 1 2 10
M  V30 10 2 10 11
M  V30 11 1 11 12
M  V30 12 1 12 13
M  V30 13 2 13 14
M  V30 14 1 14 15
M  V30 15 2 15 16
M  V30 16 1 16 17
M  V30 17 2 17 18
M  V30 18 1 18 19
M  V30 19 2 19 20
M  V30 20 1 20 21
M  V30 21 1 21 22
M  V30 22 1 22 23
M  V30 23 1 23 24
M  V30 24 1 24 25
M  V30 25 1 25 26
M  V30 26 1 26 27
M  V30 27 1 27 28
M  V30 28 2 21 29
M  V30 29 1 16 30
M  V30 30 2 30 31
M  V30 31 1 9 4
M  V30 32 1 31 10
M  V30 33 1 31 13
M  V30 34 1 29 17
M  V30 35 1 28 23
M  V30 36 1 3 32
M  V30 37 1 5 33
M  V30 38 1 6 34
M  V30 39 1 9 35
M  V30 40 1 12 36
M  V30 41 1 14 37
M  V30 42 1 15 38
M  V30 43 1 18 39
M  V30 44 1 20 40
M  V30 45 1 22 41
M  V30 46 1 22 42
M  V30 47 1 24 43
M  V30 48 1 24 44
M  V30 49 1 25 45
M  V30 50 1 25 46
M  V30 51 1 26 47
M  V30 52 1 26 48
M  V30 53 1 27 49
M  V30 54 1 27 50
M  V30 55 1 28 51
M  V30 56 1 28 52
M  V30 57 1 29 53
M  V30 58 1 30 54
M  V30 END BOND
M  V30 END CTAB
M  END
>  <Dataset>  (799) 
ChEMBL_Kinases

>  <Ligand_Instance>  (799) 
nan

>  <PDB_ID>  (799) 
nan

>  <Standardized_SMILES>  (799) 
O=C(Nc1ccnnc1)c1n[nH]c2ccc(-c3cncc(CN4CCCCC4)c3)cc12

>  <Name>  (799) 
nan

>  <Pocket>  (799) 
nan

>  <ATP_Site>  (799) 
nan

>  <Peripheral>  (799) 
nan

>  <Num_H_Atoms_ProtBoundConf>  (799) 
nan

>  <Num_Resolved_Atoms>  (799) 
nan

>  <Num_Not_Resolved_Atoms>  (799) 
nan

$$$$
CHEMBL4748909
     RDKit          3D

  0  0  0  0  0  0  0  0  0  0999 V3000
M  V30 BEGIN CTAB
M  V30 COUNTS 64 69 0 0 0
M  V30 BEGIN ATOM
M  V30 1 C 7.234270 0.824535 3.870878 0
M  V30 2 N 5.990548 0.883822 3.123123 0
M  V30 3 C 6.177239 1.748832 2.000671 0
M  V30 4 C 4.916926 2.224812 1.340271 0
M  V30 5 C 3.796951 2.532012 2.302057 0
M  V30 6 C 4.411082 2.594574 3.681101 0
M  V30 7 C 4.937194 1.233023 4.020518 0
M  V30 8 C 2.947428 3.702531 1.955804 0
M  V30 9 N 1.776948 2.836549 1.948037 0
M  V30 10 C 0.377428 3.155076 1.819123 0
M  V30 11 C -0.479498 2.069244 1.642461 0
M  V30 12 C -1.814105 2.389152 1.538116 0
M  V30 13 C -2.928954 1.474742 1.332990 0
M  V30 14 O -4.160801 1.800333 1.388091 0
M  V30 15 N -2.863692 0.120721 1.047052 0
M  V30 16 C -3.190476 -1.203806 0.764157 0
M  V30 17 C -3.339502 -1.575331 -0.576513 0
M  V30 18 C -3.698788 -2.878927 -0.935063 0
M  V30 19 C -3.866314 -3.305587 -2.210537 0
M  V30 20 C -4.235436 -4.639114 -2.419228 0
M  V30 21 C -4.425794 -5.117757 -3.790309 0
M  V30 22 C -4.863253 -4.489585 -4.937644 0
M  V30 23 N -4.861470 -5.402052 -5.941645 0
M  V30 24 N -4.443816 -6.567072 -5.471264 0
M  V30 25 C -4.293589 -7.818408 -6.188931 0
M  V30 26 C -4.167300 -6.426246 -4.150745 0
M  V30 27 C -4.426856 -5.512025 -1.351915 0
M  V30 28 C -4.232739 -4.986805 -0.092234 0
M  V30 29 C -3.869334 -3.677439 0.165820 0
M  V30 30 C -3.737763 -3.373916 1.499398 0
M  V30 31 N -3.384588 -2.086738 1.773920 0
M  V30 32 C -2.227185 3.694086 1.609581 0
M  V30 33 C -1.332181 4.734203 1.785464 0
M  V30 34 N -0.046089 4.421292 1.884391 0
M  V30 35 C 2.601758 1.657806 2.126673 0
M  V30 36 H 8.037605 0.372560 3.266898 0
M  V30 37 H 7.121083 0.161549 4.775412 0
M  V30 38 H 7.539008 1.810274 4.283282 0
M  V30 39 H 6.720416 1.146137 1.210374 0
M  V30 40 H 6.849249 2.588049 2.214833 0
M  V30 41 H 4.591446 1.519950 0.540475 0
M  V30 42 H 5.166504 3.177432 0.818088 0
M  V30 43 H 3.704069 2.985636 4.417697 0
M  V30 44 H 5.302485 3.276211 3.579200 0
M  V30 45 H 5.299659 1.257142 5.091566 0
M  V30 46 H 4.144925 0.454669 3.987036 0
M  V30 47 H 2.853115 4.438169 2.807507 0
M  V30 48 H 3.120376 4.176957 0.978449 0
M  V30 49 H -0.235458 1.036098 1.579356 0
M  V30 50 H -1.807330 -0.117515 1.005390 0
M  V30 51 H -3.177113 -0.856588 -1.378108 0
M  V30 52 H -3.709803 -2.603734 -3.026245 0
M  V30 53 H -5.144143 -3.455951 -4.979002 0
M  V30 54 H -4.460080 -8.690908 -5.532921 0
M  V30 55 H -4.984779 -7.783422 -7.053820 0
M  V30 56 H -3.264864 -7.841891 -6.601230 0
M  V30 57 H -3.806737 -7.220158 -3.511522 0
M  V30 58 H -4.707390 -6.527986 -1.544247 0
M  V30 59 H -4.398875 -5.721089 0.705276 0
M  V30 60 H -3.897939 -4.098948 2.282279 0
M  V30 61 H -3.268875 4.005525 1.535869 0
M  V30 62 H -1.671338 5.759478 1.838277 0
M  V30 63 H 2.655434 1.027796 1.214947 0
M  V30 64 H 2.361565 1.102641 3.074929 0
M  V30 END ATOM
M  V30 BEGIN BOND
M  V30 1 1 1 2
M  V30 2 1 2 3
M  V30 3 1 3 4
M  V30 4 1 4 5
M  V30 5 1 5 6
M  V30 6 1 6 7
M  V30 7 1 5 8
M  V30 8 1 8 9
M  V30 9 1 9 10
M  V30 10 2 10 11
M  V30 11 1 11 12
M  V30 12 1 12 13
M  V30 13 2 13 14
M  V30 14 1 13 15
M  V30 15 1 15 16
M  V30 16 2 16 17
M  V30 17 1 17 18
M  V30 18 2 18 19
M  V30 19 1 19 20
M  V30 20 1 20 21
M  V30 21 1 21 22
M  V30 22 2 22 23
M  V30 23 1 23 24
M  V30 24 1 24 25
M  V30 25 1 24 26
M  V30 26 2 20 27
M  V30 27 1 27 28
M  V30 28 2 28 29
M  V30 29 1 29 30
M  V30 30 2 30 31
M  V30 31 2 12 32
M  V30 32 1 32 33
M  V30 33 2 33 34
M  V30 34 1 9 35
M  V30 35 1 7 2
M  V30 36 1 34 10
M  V30 37 1 35 5
M  V30 38 1 31 16
M  V30 39 1 29 18
M  V30 40 2 26 21
M  V30 41 1 1 36
M  V30 42 1 1 37
M  V30 43 1 1 38
M  V30 44 1 3 39
M  V30 45 1 3 40
M  V30 46 1 4 41
M  V30 47 1 4 42
M  V30 48 1 6 43
M  V30 49 1 6 44
M  V30 50 1 7 45
M  V30 51 1 7 46
M  V30 52 1 8 47
M  V30 53 1 8 48
M  V30 54 1 11 49
M  V30 55 1 15 50
M  V30 56 1 17 51
M  V30 57 1 19 52
M  V30 58 1 22 53
M  V30 59 1 25 54
M  V30 60 1 25 55
M  V30 61 1 25 56
M  V30 62 1 26 57
M  V30 63 1 27 58
M  V30 64 1 28 59
M  V30 65 1 30 60
M  V30 66 1 32 61
M  V30 67 1 33 62
M  V30 68 1 35 63
M  V30 69 1 35 64
M  V30 END BOND
M  V30 END CTAB
M  END
>  <Dataset>  (800) 
ChEMBL_Kinases

>  <Ligand_Instance>  (800) 
nan

>  <PDB_ID>  (800) 
nan

>  <Standardized_SMILES>  (800) 
CN1CCC2(CC1)CN(c1cc(C(=O)Nc3cc4cc(-c5cnn(C)c5)ccc4cn3)ccn1)C2

>  <Name>  (800) 
nan

>  <Pocket>  (800) 
nan

>  <ATP_Site>  (800) 
nan

>  <Peripheral>  (800) 
nan

>  <Num_H_Atoms_ProtBoundConf>  (800) 
nan

>  <Num_Resolved_Atoms>  (800) 
nan

>  <Num_Not_Resolved_Atoms>  (800) 
nan

$$$$
CHEMBL4748882
     RDKit          3D

  0  0  0  0  0  0  0  0  0  0999 V3000
M  V30 BEGIN CTAB
M  V30 COUNTS 54 58 0 0 0
M  V30 BEGIN ATOM
M  V30 1 C 5.317761 -1.393926 2.602581 0
M  V30 2 C 5.272396 0.092043 2.489786 0
M  V30 3 C 6.632820 0.568413 3.039079 0
M  V30 4 C 4.275766 0.776890 3.373570 0
M  V30 5 C 5.201841 0.629707 1.120528 0
M  V30 6 C 4.059432 0.244741 0.312425 0
M  V30 7 O 3.425363 -0.514553 1.128029 0
M  V30 8 N 3.555460 0.474413 -0.967529 0
M  V30 9 C 2.321204 -0.280086 -1.045113 0
M  V30 10 C 2.238531 -1.585750 -1.481357 0
M  V30 11 N 1.000668 -2.135929 -1.475681 0
M  V30 12 C -0.051282 -1.407342 -1.059195 0
M  V30 13 C -0.015225 -0.100306 -0.615317 0
M  V30 14 C -1.254114 0.542250 -0.191353 0
M  V30 15 C -1.268243 1.844905 0.257322 0
M  V30 16 C -2.498175 2.378265 0.641848 0
M  V30 17 C -3.629674 1.595442 0.559575 0
M  V30 18 N -4.919081 1.876285 0.868883 0
M  V30 19 N -5.617548 0.799702 0.615844 0
M  V30 20 C -4.874067 -0.209813 0.147254 0
M  V30 21 C -5.284685 -1.553655 -0.243121 0
M  V30 22 N -6.568890 -2.005219 -0.182451 0
M  V30 23 C -6.560055 -3.279670 -0.618184 0
M  V30 24 C -7.615777 -4.186441 -0.750360 0
M  V30 25 C -7.386180 -5.466137 -1.224110 0
M  V30 26 N -6.121750 -5.811878 -1.552992 0
M  V30 27 C -5.102629 -4.943449 -1.427705 0
M  V30 28 C -5.279676 -3.661477 -0.961988 0
M  V30 29 N -4.524474 -2.559217 -0.712627 0
M  V30 30 C -3.581312 0.279514 0.101176 0
M  V30 31 N -2.382669 -0.189383 -0.256518 0
M  V30 32 C 1.231025 0.485836 -0.610283 0
M  V30 33 H 6.031651 -1.742505 3.402442 0
M  V30 34 H 5.771945 -1.781658 1.669919 0
M  V30 35 H 4.350620 -1.867327 2.859890 0
M  V30 36 H 6.712950 1.664839 3.025267 0
M  V30 37 H 7.423132 0.133382 2.382896 0
M  V30 38 H 6.807151 0.132643 4.044715 0
M  V30 39 H 4.528460 1.876701 3.298920 0
M  V30 40 H 3.230588 0.688318 3.103752 0
M  V30 41 H 4.433648 0.520410 4.443502 0
M  V30 42 H 6.114519 0.254325 0.568895 0
M  V30 43 H 5.305728 1.726419 1.139457 0
M  V30 44 H 4.216008 1.106383 -1.468103 0
M  V30 45 H 3.173586 -2.030444 -1.781562 0
M  V30 46 H -0.970668 -1.982299 -1.111891 0
M  V30 47 H -0.378310 2.454426 0.319851 0
M  V30 48 H -2.488237 3.412513 0.994107 0
M  V30 49 H -5.226513 2.809951 1.239349 0
M  V30 50 H -8.613489 -3.857211 -0.471785 0
M  V30 51 H -8.254628 -6.090962 -1.291699 0
M  V30 52 H -4.083259 -5.212833 -1.689275 0
M  V30 53 H -3.494428 -2.537874 -0.877141 0
M  V30 54 H 1.303746 1.495176 -0.274825 0
M  V30 END ATOM
M  V30 BEGIN BOND
M  V30 1 1 1 2
M  V30 2 1 2 3
M  V30 3 1 2 4
M  V30 4 1 2 5
M  V30 5 1 5 6
M  V30 6 2 6 7
M  V30 7 1 6 8
M  V30 8 1 8 9
M  V30 9 2 9 10
M  V30 10 1 10 11
M  V30 11 2 11 12
M  V30 12 1 12 13
M  V30 13 1 13 14
M  V30 14 2 14 15
M  V30 15 1 15 16
M  V30 16 2 16 17
M  V30 17 1 17 18
M  V30 18 1 18 19
M  V30 19 2 19 20
M  V30 20 1 20 21
M  V30 21 2 21 22
M  V30 22 1 22 23
M  V30 23 2 23 24
M  V30 24 1 24 25
M  V30 25 2 25 26
M  V30 26 1 26 27
M  V30 27 2 27 28
M  V30 28 1 28 29
M  V30 29 1 20 30
M  V30 30 2 30 31
M  V30 31 2 13 32
M  V30 32 1 32 9
M  V30 33 1 31 14
M  V30 34 1 30 17
M  V30 35 1 29 21
M  V30 36 1 28 23
M  V30 37 1 1 33
M  V30 38 1 1 34
M  V30 39 1 1 35
M  V30 40 1 3 36
M  V30 41 1 3 37
M  V30 42 1 3 38
M  V30 43 1 4 39
M  V30 44 1 4 40
M  V30 45 1 4 41
M  V30 46 1 5 42
M  V30 47 1 5 43
M  V30 48 1 8 44
M  V30 49 1 10 45
M  V30 50 1 12 46
M  V30 51 1 15 47
M  V30 52 1 16 48
M  V30 53 1 18 49
M  V30 54 1 24 50
M  V30 55 1 25 51
M  V30 56 1 27 52
M  V30 57 1 29 53
M  V30 58 1 32 54
M  V30 END BOND
M  V30 END CTAB
M  END
>  <Dataset>  (801) 
ChEMBL_Kinases

>  <Ligand_Instance>  (801) 
nan

>  <PDB_ID>  (801) 
nan

>  <Standardized_SMILES>  (801) 
CC(C)(C)CC(=O)Nc1cncc(-c2ccc3[nH]nc(-c4nc5ccncc5[nH]4)c3n2)c1

>  <Name>  (801) 
nan

>  <Pocket>  (801) 
nan

>  <ATP_Site>  (801) 
nan

>  <Peripheral>  (801) 
nan

>  <Num_H_Atoms_ProtBoundConf>  (801) 
nan

>  <Num_Resolved_Atoms>  (801) 
nan

>  <Num_Not_Resolved_Atoms>  (801) 
nan

$$$$
CHEMBL4748839
     RDKit          3D

  0  0  0  0  0  0  0  0  0  0999 V3000
M  V30 BEGIN CTAB
M  V30 COUNTS 58 63 0 0 0
M  V30 BEGIN ATOM
M  V30 1 C 6.517928 -3.194899 3.340245 0
M  V30 2 N 7.056490 -1.875585 3.218023 0
M  V30 3 C 7.438671 -1.613619 1.857241 0
M  V30 4 C 6.248479 -1.285034 0.977747 0
M  V30 5 C 5.660124 -0.008622 1.519184 0
M  V30 6 N 4.460348 0.375457 0.766748 0
M  V30 7 C 3.185958 0.520428 1.143253 0
M  V30 8 C 2.444315 0.901043 0.037279 0
M  V30 9 C 0.994900 1.157055 0.058440 0
M  V30 10 O 0.415676 1.014106 1.166310 0
M  V30 11 N 0.357358 1.543808 -1.161249 0
M  V30 12 C -1.044852 1.759545 -0.998318 0
M  V30 13 N -1.578748 2.965183 -0.669501 0
M  V30 14 C -2.927787 3.105743 -0.528562 0
M  V30 15 C -3.769610 2.018976 -0.719433 0
M  V30 16 C -5.150588 2.092263 -0.591941 0
M  V30 17 C -5.919786 0.948175 -0.802227 0
M  V30 18 C -5.335979 -0.264377 -1.136650 0
M  V30 19 C -6.316899 -1.331184 -1.312179 0
M  V30 20 C -7.475589 -1.078615 -2.055808 0
M  V30 21 N -8.420956 -2.044473 -2.248071 0
M  V30 22 C -8.255552 -3.268118 -1.721907 0
M  V30 23 C -7.141831 -3.588186 -0.979785 0
M  V30 24 N -6.720506 -4.701051 -0.347975 0
M  V30 25 C -5.520262 -4.467144 0.247349 0
M  V30 26 C -5.188323 -3.156894 -0.028779 0
M  V30 27 C -6.194234 -2.603591 -0.792905 0
M  V30 28 C -3.964029 -0.329818 -1.261613 0
M  V30 29 C -3.191287 0.788527 -1.057684 0
M  V30 30 N -1.849630 0.674154 -1.191827 0
M  V30 31 C 3.330108 0.977789 -1.018197 0
M  V30 32 N 4.539303 0.649698 -0.523186 0
M  V30 33 C 5.173104 -0.328020 2.918015 0
M  V30 34 C 6.251926 -0.851971 3.808001 0
M  V30 35 H 7.343176 -3.851248 3.697607 0
M  V30 36 H 6.154006 -3.583224 2.371353 0
M  V30 37 H 5.728077 -3.268628 4.121216 0
M  V30 38 H 8.095197 -0.708463 1.834134 0
M  V30 39 H 7.971173 -2.508580 1.481083 0
M  V30 40 H 6.595670 -1.201749 -0.056132 0
M  V30 41 H 5.488424 -2.069879 1.111050 0
M  V30 42 H 6.386890 0.824911 1.562035 0
M  V30 43 H 2.858697 0.348481 2.175655 0
M  V30 44 H 0.885140 1.649533 -2.060676 0
M  V30 45 H -3.361898 4.062744 -0.266754 0
M  V30 46 H -5.554669 3.061872 -0.329564 0
M  V30 47 H -6.982597 1.161424 -0.666815 0
M  V30 48 H -7.684248 -0.127568 -2.509884 0
M  V30 49 H -8.979405 -4.088544 -1.840560 0
M  V30 50 H -7.206486 -5.612513 -0.300016 0
M  V30 51 H -4.946543 -5.192306 0.828092 0
M  V30 52 H -4.282687 -2.677767 0.313638 0
M  V30 53 H -3.594973 -1.296537 -1.520953 0
M  V30 54 H 3.044466 1.252620 -2.017829 0
M  V30 55 H 4.756266 0.599612 3.362027 0
M  V30 56 H 4.335810 -1.046677 2.809423 0
M  V30 57 H 5.751254 -1.284928 4.707465 0
M  V30 58 H 6.835625 0.018813 4.171633 0
M  V30 END ATOM
M  V30 BEGIN BOND
M  V30 1 1 1 2
M  V30 2 1 2 3
M  V30 3 1 3 4
M  V30 4 1 4 5
M  V30 5 1 5 6
M  V30 6 1 6 7
M  V30 7 2 7 8
M  V30 8 1 8 9
M  V30 9 2 9 10
M  V30 10 1 9 11
M  V30 11 1 11 12
M  V30 12 2 12 13
M  V30 13 1 13 14
M  V30 14 2 14 15
M  V30 15 1 15 16
M  V30 16 2 16 17
M  V30 17 1 17 18
M  V30 18 1 18 19
M  V30 19 2 19 20
M  V30 20 1 20 21
M  V30 21 2 21 22
M  V30 22 1 22 23
M  V30 23 1 23 24
M  V30 24 1 24 25
M  V30 25 2 25 26
M  V30 26 1 26 27
M  V30 27 2 18 28
M  V30 28 1 28 29
M  V30 29 2 29 30
M  V30 30 1 8 31
M  V30 31 2 31 32
M  V30 32 1 5 33
M  V30 33 1 33 34
M  V30 34 1 34 2
M  V30 35 1 32 6
M  V30 36 1 30 12
M  V30 37 1 29 15
M  V30 38 1 27 19
M  V30 39 2 27 23
M  V30 40 1 1 35
M  V30 41 1 1 36
M  V30 42 1 1 37
M  V30 43 1 3 38
M  V30 44 1 3 39
M  V30 45 1 4 40
M  V30 46 1 4 41
M  V30 47 1 5 42
M  V30 48 1 7 43
M  V30 49 1 11 44
M  V30 50 1 14 45
M  V30 51 1 16 46
M  V30 52 1 17 47
M  V30 53 1 20 48
M  V30 54 1 22 49
M  V30 55 1 24 50
M  V30 56 1 25 51
M  V30 57 1 26 52
M  V30 58 1 28 53
M  V30 59 1 31 54
M  V30 60 1 33 55
M  V30 61 1 33 56
M  V30 62 1 34 57
M  V30 63 1 34 58
M  V30 END BOND
M  V30 END CTAB
M  END
>  <Dataset>  (802) 
ChEMBL_Kinases

>  <Ligand_Instance>  (802) 
nan

>  <PDB_ID>  (802) 
nan

>  <Standardized_SMILES>  (802) 
CN1CCC(n2cc(C(=O)Nc3ncc4ccc(-c5cncc6[nH]ccc56)cc4n3)cn2)CC1

>  <Name>  (802) 
nan

>  <Pocket>  (802) 
nan

>  <ATP_Site>  (802) 
nan

>  <Peripheral>  (802) 
nan

>  <Num_H_Atoms_ProtBoundConf>  (802) 
nan

>  <Num_Resolved_Atoms>  (802) 
nan

>  <Num_Not_Resolved_Atoms>  (802) 
nan

$$$$
CHEMBL4748817
     RDKit          3D

  0  0  0  0  0  0  0  0  0  0999 V3000
M  V30 BEGIN CTAB
M  V30 COUNTS 42 45 0 0 0
M  V30 BEGIN ATOM
M  V30 1 C 0.376522 -6.041787 -2.351671 0
M  V30 2 C 0.524179 -5.585829 -0.966268 0
M  V30 3 N 0.711265 -6.416696 0.066802 0
M  V30 4 N 0.801175 -5.655534 1.158214 0
M  V30 5 C 0.676846 -4.374569 0.845305 0
M  V30 6 C 0.699205 -3.208850 1.617143 0
M  V30 7 C 0.535453 -2.007062 0.956091 0
M  V30 8 C 0.354310 -1.912135 -0.407874 0
M  V30 9 C 0.192460 -0.581242 -0.988235 0
M  V30 10 C 0.004579 -0.348161 -2.333352 0
M  V30 11 N -0.139934 0.920086 -2.810298 0
M  V30 12 C -0.099228 1.980165 -1.950099 0
M  V30 13 C 0.091515 1.745176 -0.583632 0
M  V30 14 O 0.133273 2.825791 0.295372 0
M  V30 15 C 0.324336 2.568940 1.653048 0 CFG=1
M  V30 16 C 1.594164 3.200457 2.193092 0
M  V30 17 C 1.808212 2.617583 3.571890 0
M  V30 18 N 0.749539 1.780714 4.024060 0
M  V30 19 C -0.577053 2.310682 3.881033 0
M  V30 20 C -0.786622 3.040655 2.552116 0 CFG=1
M  V30 21 F -0.513962 4.383866 2.843180 0
M  V30 22 N 0.229257 0.477731 -0.159095 0
M  V30 23 C 0.336549 -3.077459 -1.143670 0
M  V30 24 C 0.496285 -4.290380 -0.519667 0
M  V30 25 H -0.594055 -6.540405 -2.542568 0
M  V30 26 H 0.467129 -5.218333 -3.094262 0
M  V30 27 H 1.158673 -6.817190 -2.564116 0
M  V30 28 H 0.949920 -6.038178 2.122052 0
M  V30 29 H 0.842639 -3.294384 2.691771 0
M  V30 30 H 0.565376 -1.146291 1.630622 0
M  V30 31 H -0.027956 -1.186239 -3.016170 0
M  V30 32 H -0.215758 2.952443 -2.360512 0
M  V30 33 H 0.422153 1.460574 1.847458 0
M  V30 34 H 2.431757 3.014728 1.508913 0
M  V30 35 H 1.388708 4.294042 2.287507 0
M  V30 36 H 2.129054 3.394438 4.291781 0
M  V30 37 H 2.711638 1.944946 3.478226 0
M  V30 38 H 0.870120 0.790284 3.768351 0
M  V30 39 H -0.899772 2.938464 4.741910 0
M  V30 40 H -1.269640 1.441539 3.859536 0
M  V30 41 H -1.786201 2.899158 2.133688 0
M  V30 42 H 0.198780 -3.034287 -2.195963 0
M  V30 END ATOM
M  V30 BEGIN BOND
M  V30 1 1 1 2
M  V30 2 2 2 3
M  V30 3 1 3 4
M  V30 4 1 4 5
M  V30 5 2 5 6
M  V30 6 1 6 7
M  V30 7 2 7 8
M  V30 8 1 8 9
M  V30 9 2 9 10
M  V30 10 1 10 11
M  V30 11 2 11 12
M  V30 12 1 12 13
M  V30 13 1 13 14
M  V30 14 1 14 15
M  V30 15 1 15 16
M  V30 16 1 16 17
M  V30 17 1 17 18
M  V30 18 1 18 19
M  V30 19 1 19 20
M  V30 20 1 20 21
M  V30 21 2 13 22
M  V30 22 1 8 23
M  V30 23 2 23 24
M  V30 24 1 24 2
M  V30 25 1 24 5
M  V30 26 1 22 9
M  V30 27 1 20 15
M  V30 28 1 1 25
M  V30 29 1 1 26
M  V30 30 1 1 27
M  V30 31 1 4 28
M  V30 32 1 6 29
M  V30 33 1 7 30
M  V30 34 1 10 31
M  V30 35 1 12 32
M  V30 36 1 15 33 CFG=3
M  V30 37 1 16 34
M  V30 38 1 16 35
M  V30 39 1 17 36
M  V30 40 1 17 37
M  V30 41 1 18 38
M  V30 42 1 19 39
M  V30 43 1 19 40
M  V30 44 1 20 41 CFG=3
M  V30 45 1 23 42
M  V30 END BOND
M  V30 END CTAB
M  END
>  <Dataset>  (803) 
ChEMBL_Kinases

>  <Ligand_Instance>  (803) 
nan

>  <PDB_ID>  (803) 
nan

>  <Standardized_SMILES>  (803) 
Cc1n[nH]c2ccc(-c3cncc(O[C@H]4CCNC[C@H]4F)n3)cc12

>  <Name>  (803) 
nan

>  <Pocket>  (803) 
nan

>  <ATP_Site>  (803) 
nan

>  <Peripheral>  (803) 
nan

>  <Num_H_Atoms_ProtBoundConf>  (803) 
nan

>  <Num_Resolved_Atoms>  (803) 
nan

>  <Num_Not_Resolved_Atoms>  (803) 
nan

$$$$
CHEMBL4451595
     RDKit          3D

  0  0  0  0  0  0  0  0  0  0999 V3000
M  V30 BEGIN CTAB
M  V30 COUNTS 68 72 0 0 0
M  V30 BEGIN ATOM
M  V30 1 C 5.303222 -3.574619 5.059730 0
M  V30 2 N 4.720875 -2.732235 6.056565 0
M  V30 3 C 4.970220 -3.018050 7.462057 0
M  V30 4 C 3.898318 -1.616411 5.731270 0
M  V30 5 C 3.620173 -1.293322 4.419963 0
M  V30 6 C 2.824728 -0.222506 4.026540 0
M  V30 7 C 2.629735 -0.024253 2.594319 0
M  V30 8 C 2.625973 -1.171857 1.824363 0
M  V30 9 C 2.447507 -1.122347 0.447649 0
M  V30 10 C 2.266927 0.085358 -0.197779 0
M  V30 11 N 2.067864 0.525475 -1.466885 0
M  V30 12 C 1.955047 1.866012 -1.479073 0
M  V30 13 N 1.737663 2.496186 -2.740971 0
M  V30 14 C 0.353419 2.628340 -3.125182 0
M  V30 15 C -0.672620 2.170270 -2.324426 0
M  V30 16 C -2.013016 2.263723 -2.626950 0
M  V30 17 C -2.983901 1.719890 -1.656899 0
M  V30 18 N -3.329885 0.335416 -1.880886 0
M  V30 19 C -3.954577 0.148849 -3.172391 0
M  V30 20 C -4.423650 -1.246869 -3.341583 0
M  V30 21 N -4.303358 -2.097145 -2.177580 0
M  V30 22 C -3.957529 -3.462525 -2.387037 0
M  V30 23 O -3.806565 -3.743091 -3.605345 0
M  V30 24 C -3.802666 -4.413055 -1.269866 0
M  V30 25 C -3.445369 -5.771171 -1.850517 0
M  V30 26 F -2.271900 -5.722090 -2.566247 0
M  V30 27 F -3.238492 -6.701611 -0.838825 0
M  V30 28 F -4.449764 -6.271031 -2.632708 0
M  V30 29 C -4.542710 -1.526551 -0.854155 0
M  V30 30 C -4.299749 -0.031400 -0.866343 0
M  V30 31 C -2.305969 2.867697 -3.830638 0
M  V30 32 C -1.299994 3.344762 -4.670368 0
M  V30 33 N 0.001409 3.207955 -4.286749 0
M  V30 34 N 2.082375 2.299710 -0.206421 0
M  V30 35 C 2.273021 1.228049 0.587367 0
M  V30 36 C 2.450613 1.188460 1.961997 0
M  V30 37 C 2.288758 0.556278 5.059957 0
M  V30 38 C 2.571172 0.227729 6.369908 0
M  V30 39 N 3.362003 -0.840902 6.673887 0
M  V30 40 H 6.257939 -3.138705 4.736847 0
M  V30 41 H 5.559239 -4.581104 5.499414 0
M  V30 42 H 4.604209 -3.815296 4.233037 0
M  V30 43 H 5.593427 -2.221530 7.919456 0
M  V30 44 H 3.985660 -2.973176 7.975225 0
M  V30 45 H 5.390819 -4.034629 7.605862 0
M  V30 46 H 4.065776 -1.932985 3.672126 0
M  V30 47 H 2.749337 -2.200601 2.144024 0
M  V30 48 H 2.433950 -1.981375 -0.219467 0
M  V30 49 H 2.449675 2.865701 -3.406038 0
M  V30 50 H -0.391331 1.702378 -1.388139 0
M  V30 51 H -2.554776 1.791052 -0.636935 0
M  V30 52 H -3.931020 2.311214 -1.644728 0
M  V30 53 H -3.249064 0.406323 -4.006394 0
M  V30 54 H -4.831589 0.859822 -3.189216 0
M  V30 55 H -3.951956 -1.705922 -4.238496 0
M  V30 56 H -5.533669 -1.217475 -3.554890 0
M  V30 57 H -2.900070 -4.066339 -0.696176 0
M  V30 58 H -4.633344 -4.458863 -0.571542 0
M  V30 59 H -3.891103 -1.948868 -0.077177 0
M  V30 60 H -5.612735 -1.670438 -0.634132 0
M  V30 61 H -5.222133 0.552279 -1.046928 0
M  V30 62 H -3.888625 0.317785 0.111609 0
M  V30 63 H -3.371758 2.946991 -4.081474 0
M  V30 64 H -1.571559 3.816959 -5.615465 0
M  V30 65 H 2.025017 3.307899 -0.002328 0
M  V30 66 H 2.457767 2.071522 2.584739 0
M  V30 67 H 1.676150 1.380144 4.733108 0
M  V30 68 H 2.119236 0.879252 7.109098 0
M  V30 END ATOM
M  V30 BEGIN BOND
M  V30 1 1 1 2
M  V30 2 1 2 3
M  V30 3 1 2 4
M  V30 4 2 4 5
M  V30 5 1 5 6
M  V30 6 1 6 7
M  V30 7 2 7 8
M  V30 8 1 8 9
M  V30 9 2 9 10
M  V30 10 1 10 11
M  V30 11 2 11 12
M  V30 12 1 12 13
M  V30 13 1 13 14
M  V30 14 2 14 15
M  V30 15 1 15 16
M  V30 16 1 16 17
M  V30 17 1 17 18
M  V30 18 1 18 19
M  V30 19 1 19 20
M  V30 20 1 20 21
M  V30 21 1 21 22
M  V30 22 2 22 23
M  V30 23 1 22 24
M  V30 24 1 24 25
M  V30 25 1 25 26
M  V30 26 1 25 27
M  V30 27 1 25 28
M  V30 28 1 21 29
M  V30 29 1 29 30
M  V30 30 2 16 31
M  V30 31 1 31 32
M  V30 32 2 32 33
M  V30 33 1 12 34
M  V30 34 1 34 35
M  V30 35 2 35 36
M  V30 36 2 6 37
M  V30 37 1 37 38
M  V30 38 2 38 39
M  V30 39 1 39 4
M  V30 40 1 36 7
M  V30 41 1 35 10
M  V30 42 1 33 14
M  V30 43 1 30 18
M  V30 44 1 1 40
M  V30 45 1 1 41
M  V30 46 1 1 42
M  V30 47 1 3 43
M  V30 48 1 3 44
M  V30 49 1 3 45
M  V30 50 1 5 46
M  V30 51 1 8 47
M  V30 52 1 9 48
M  V30 53 1 13 49
M  V30 54 1 15 50
M  V30 55 1 17 51
M  V30 56 1 17 52
M  V30 57 1 19 53
M  V30 58 1 19 54
M  V30 59 1 20 55
M  V30 60 1 20 56
M  V30 61 1 24 57
M  V30 62 1 24 58
M  V30 63 1 29 59
M  V30 64 1 29 60
M  V30 65 1 30 61
M  V30 66 1 30 62
M  V30 67 1 31 63
M  V30 68 1 32 64
M  V30 69 1 34 65
M  V30 70 1 36 66
M  V30 71 1 37 67
M  V30 72 1 38 68
M  V30 END BOND
M  V30 END CTAB
M  END
>  <Dataset>  (804) 
ChEMBL_Kinases

>  <Ligand_Instance>  (804) 
nan

>  <PDB_ID>  (804) 
nan

>  <Standardized_SMILES>  (804) 
CN(C)c1cc(-c2ccc3nc(Nc4cc(CN5CCN(C(=O)CC(F)(F)F)CC5)ccn4)[nH]c3c2)ccn1

>  <Name>  (804) 
nan

>  <Pocket>  (804) 
nan

>  <ATP_Site>  (804) 
nan

>  <Peripheral>  (804) 
nan

>  <Num_H_Atoms_ProtBoundConf>  (804) 
nan

>  <Num_Resolved_Atoms>  (804) 
nan

>  <Num_Not_Resolved_Atoms>  (804) 
nan

$$$$
CHEMBL4744523
     RDKit          3D

  0  0  0  0  0  0  0  0  0  0999 V3000
M  V30 BEGIN CTAB
M  V30 COUNTS 57 62 0 0 0
M  V30 BEGIN ATOM
M  V30 1 C 2.246721 -5.132362 0.899223 0
M  V30 2 N 3.644729 -4.886787 1.186664 0
M  V30 3 C 3.864212 -3.834155 2.131258 0
M  V30 4 C 4.520134 -2.629090 1.486649 0
M  V30 5 C 3.722873 -2.323594 0.238396 0
M  V30 6 O 4.011876 -1.091686 -0.317648 0
M  V30 7 C 3.035117 -0.133949 -0.478530 0
M  V30 8 C 3.645828 0.986603 -1.063802 0
M  V30 9 C 2.909691 2.142908 -1.358373 0
M  V30 10 C 1.559812 2.211492 -1.080085 0
M  V30 11 N 0.531431 3.075817 -1.191856 0
M  V30 12 C -0.595615 2.557506 -0.729790 0
M  V30 13 C -1.909881 3.190003 -0.684069 0
M  V30 14 N -2.260371 4.412665 -1.091597 0
M  V30 15 N -3.559316 4.617628 -0.879311 0
M  V30 16 C -4.131640 3.536927 -0.319568 0
M  V30 17 C -5.388074 3.161759 0.113769 0
M  V30 18 C -5.654208 1.919880 0.668156 0
M  V30 19 C -4.581648 1.032400 0.778859 0
M  V30 20 C -4.803064 -0.307311 1.361462 0
M  V30 21 C -5.670596 -0.764127 2.332386 0
M  V30 22 N -5.450242 -2.099501 2.482325 0
M  V30 23 N -4.492640 -2.472190 1.650148 0
M  V30 24 C -3.991915 -3.828701 1.532172 0
M  V30 25 C -4.060224 -1.412323 0.938854 0
M  V30 26 C -3.318792 1.390660 0.350837 0
M  V30 27 C -3.082199 2.646423 -0.202419 0
M  V30 28 N -0.326728 1.313291 -0.294433 0
M  V30 29 C 0.983451 1.091956 -0.503005 0
M  V30 30 C 1.687038 -0.042098 -0.209932 0
M  V30 31 C 4.078012 -3.444153 -0.749723 0
M  V30 32 C 4.350215 -4.748876 -0.055035 0
M  V30 33 H 1.593103 -4.353147 1.370222 0
M  V30 34 H 2.065992 -5.065045 -0.189214 0
M  V30 35 H 1.934849 -6.126757 1.278173 0
M  V30 36 H 4.405481 -4.161236 3.041044 0
M  V30 37 H 2.860314 -3.470282 2.475580 0
M  V30 38 H 5.560256 -2.902426 1.244063 0
M  V30 39 H 4.477820 -1.801449 2.221511 0
M  V30 40 H 2.659422 -2.388744 0.498133 0
M  V30 41 H 4.680586 1.142176 -1.360164 0
M  V30 42 H 3.304569 3.042318 -1.806518 0
M  V30 43 H 0.667473 4.037287 -1.606112 0
M  V30 44 H -4.099365 5.495578 -1.106697 0
M  V30 45 H -6.184696 3.893038 0.002947 0
M  V30 46 H -6.642831 1.645359 1.000949 0
M  V30 47 H -6.349287 -0.057245 2.801214 0
M  V30 48 H -3.830178 -4.061932 0.451235 0
M  V30 49 H -4.718244 -4.567529 1.918199 0
M  V30 50 H -3.028273 -3.993501 2.038091 0
M  V30 51 H -3.275569 -1.487670 0.194142 0
M  V30 52 H -2.517741 0.649134 0.464897 0
M  V30 53 H 1.323333 -0.938263 0.229966 0
M  V30 54 H 4.985228 -3.085554 -1.271439 0
M  V30 55 H 3.265481 -3.570444 -1.463339 0
M  V30 56 H 3.972923 -5.567924 -0.719404 0
M  V30 57 H 5.437383 -4.956511 0.041628 0
M  V30 END ATOM
M  V30 BEGIN BOND
M  V30 1 1 1 2
M  V30 2 1 2 3
M  V30 3 1 3 4
M  V30 4 1 4 5
M  V30 5 1 5 6
M  V30 6 1 6 7
M  V30 7 2 7 8
M  V30 8 1 8 9
M  V30 9 2 9 10
M  V30 10 1 10 11
M  V30 11 1 11 12
M  V30 12 1 12 13
M  V30 13 2 13 14
M  V30 14 1 14 15
M  V30 15 1 15 16
M  V30 16 2 16 17
M  V30 17 1 17 18
M  V30 18 2 18 19
M  V30 19 1 19 20
M  V30 20 1 20 21
M  V30 21 2 21 22
M  V30 22 1 22 23
M  V30 23 1 23 24
M  V30 24 1 23 25
M  V30 25 1 19 26
M  V30 26 2 26 27
M  V30 27 2 12 28
M  V30 28 1 28 29
M  V30 29 2 29 30
M  V30 30 1 5 31
M  V30 31 1 31 32
M  V30 32 1 32 2
M  V30 33 1 30 7
M  V30 34 1 29 10
M  V30 35 1 27 13
M  V30 36 1 27 16
M  V30 37 2 25 20
M  V30 38 1 1 33
M  V30 39 1 1 34
M  V30 40 1 1 35
M  V30 41 1 3 36
M  V30 42 1 3 37
M  V30 43 1 4 38
M  V30 44 1 4 39
M  V30 45 1 5 40
M  V30 46 1 8 41
M  V30 47 1 9 42
M  V30 48 1 11 43
M  V30 49 1 15 44
M  V30 50 1 17 45
M  V30 51 1 18 46
M  V30 52 1 21 47
M  V30 53 1 24 48
M  V30 54 1 24 49
M  V30 55 1 24 50
M  V30 56 1 25 51
M  V30 57 1 26 52
M  V30 58 1 30 53
M  V30 59 1 31 54
M  V30 60 1 31 55
M  V30 61 1 32 56
M  V30 62 1 32 57
M  V30 END BOND
M  V30 END CTAB
M  END
>  <Dataset>  (805) 
ChEMBL_Kinases

>  <Ligand_Instance>  (805) 
nan

>  <PDB_ID>  (805) 
nan

>  <Standardized_SMILES>  (805) 
CN1CCC(Oc2ccc3[nH]c(-c4n[nH]c5ccc(-c6cnn(C)c6)cc45)nc3c2)CC1

>  <Name>  (805) 
nan

>  <Pocket>  (805) 
nan

>  <ATP_Site>  (805) 
nan

>  <Peripheral>  (805) 
nan

>  <Num_H_Atoms_ProtBoundConf>  (805) 
nan

>  <Num_Resolved_Atoms>  (805) 
nan

>  <Num_Not_Resolved_Atoms>  (805) 
nan

$$$$
CHEMBL2425655
     RDKit          3D

  0  0  0  0  0  0  0  0  0  0999 V3000
M  V30 BEGIN CTAB
M  V30 COUNTS 48 51 0 0 0
M  V30 BEGIN ATOM
M  V30 1 C 1.831630 -3.650262 0.703110 0
M  V30 2 S 0.438077 -4.629042 0.127089 0
M  V30 3 O -0.697617 -4.299100 1.014842 0
M  V30 4 O 0.853108 -6.069723 0.201883 0
M  V30 5 N 0.240507 -4.199553 -1.506856 0
M  V30 6 C -0.062384 -2.849555 -1.774759 0 CFG=1
M  V30 7 C 0.964479 -2.133775 -2.629308 0
M  V30 8 C 0.833100 -0.668931 -2.324787 0
M  V30 9 C -0.557450 -0.259869 -1.984888 0 CFG=2
M  V30 10 N -0.744345 0.067407 -0.570493 0
M  V30 11 C 0.004556 1.111994 0.013196 0
M  V30 12 N 0.896048 1.824970 -0.699628 0
M  V30 13 C 1.609338 2.831088 -0.113974 0
M  V30 14 C 1.421846 3.134287 1.238343 0
M  V30 15 C 0.497772 2.379555 1.935566 0
M  V30 16 N 0.246486 2.625991 3.323617 0
M  V30 17 N 0.539802 3.700306 4.041210 0
M  V30 18 N 0.144305 3.544977 5.293437 0
M  V30 19 C -0.431563 2.345689 5.446414 0
M  V30 20 C -1.010033 1.664571 6.498821 0
M  V30 21 C -1.534724 0.408854 6.358434 0
M  V30 22 C -1.468470 -0.168819 5.112451 0
M  V30 23 C -0.890954 0.497370 4.038078 0
M  V30 24 C -0.355326 1.774444 4.173122 0
M  V30 25 N -0.175632 1.404538 1.315895 0
M  V30 26 C -1.651274 -1.123990 -2.513852 0
M  V30 27 C -1.384938 -2.600228 -2.441062 0
M  V30 28 H 2.592639 -3.685382 -0.106082 0
M  V30 29 H 2.196368 -4.004080 1.665050 0
M  V30 30 H 1.458402 -2.594641 0.712576 0
M  V30 31 H 1.092868 -4.488397 -2.008572 0
M  V30 32 H -0.105657 -2.337943 -0.781622 0
M  V30 33 H 0.736984 -2.307618 -3.719466 0
M  V30 34 H 1.993957 -2.492407 -2.439019 0
M  V30 35 H 1.482474 -0.468218 -1.423388 0
M  V30 36 H 1.308485 -0.070931 -3.132123 0
M  V30 37 H -0.685305 0.752394 -2.476343 0
M  V30 38 H -1.423011 -0.477030 -0.032310 0
M  V30 39 H 2.347601 3.441021 -0.652525 0
M  V30 40 H 1.966159 3.924112 1.743786 0
M  V30 41 H -1.061600 2.125113 7.487356 0
M  V30 42 H -1.997550 -0.171925 7.138986 0
M  V30 43 H -1.876072 -1.170888 4.957763 0
M  V30 44 H -0.874075 -0.014564 3.094540 0
M  V30 45 H -2.549374 -0.913466 -1.864917 0
M  V30 46 H -1.945632 -0.790930 -3.531266 0
M  V30 47 H -1.272372 -2.942499 -3.500411 0
M  V30 48 H -2.197607 -3.142125 -1.913190 0
M  V30 END ATOM
M  V30 BEGIN BOND
M  V30 1 1 1 2
M  V30 2 2 2 3
M  V30 3 2 2 4
M  V30 4 1 2 5
M  V30 5 1 5 6
M  V30 6 1 6 7
M  V30 7 1 7 8
M  V30 8 1 8 9
M  V30 9 1 9 10
M  V30 10 1 10 11
M  V30 11 2 11 12
M  V30 12 1 12 13
M  V30 13 2 13 14
M  V30 14 1 14 15
M  V30 15 1 15 16
M  V30 16 1 16 17
M  V30 17 2 17 18
M  V30 18 1 18 19
M  V30 19 2 19 20
M  V30 20 1 20 21
M  V30 21 2 21 22
M  V30 22 1 22 23
M  V30 23 2 23 24
M  V30 24 2 15 25
M  V30 25 1 9 26
M  V30 26 1 26 27
M  V30 27 1 27 6
M  V30 28 1 25 11
M  V30 29 1 24 16
M  V30 30 1 24 19
M  V30 31 1 1 28
M  V30 32 1 1 29
M  V30 33 1 1 30
M  V30 34 1 5 31
M  V30 35 1 6 32 CFG=1
M  V30 36 1 7 33
M  V30 37 1 7 34
M  V30 38 1 8 35
M  V30 39 1 8 36
M  V30 40 1 9 37 CFG=3
M  V30 41 1 10 38
M  V30 42 1 13 39
M  V30 43 1 14 40
M  V30 44 1 20 41
M  V30 45 1 21 42
M  V30 46 1 22 43
M  V30 47 1 23 44
M  V30 48 1 26 45
M  V30 49 1 26 46
M  V30 50 1 27 47
M  V30 51 1 27 48
M  V30 END BOND
M  V30 END CTAB
M  END
>  <Dataset>  (806) 
ChEMBL_Kinases

>  <Ligand_Instance>  (806) 
nan

>  <PDB_ID>  (806) 
nan

>  <Standardized_SMILES>  (806) 
CS(=O)(=O)N[C@H]1CC[C@H](Nc2nccc(-n3nnc4ccccc43)n2)CC1

>  <Name>  (806) 
nan

>  <Pocket>  (806) 
nan

>  <ATP_Site>  (806) 
nan

>  <Peripheral>  (806) 
nan

>  <Num_H_Atoms_ProtBoundConf>  (806) 
nan

>  <Num_Resolved_Atoms>  (806) 
nan

>  <Num_Not_Resolved_Atoms>  (806) 
nan

$$$$
CHEMBL4748619
     RDKit          3D

  0  0  0  0  0  0  0  0  0  0999 V3000
M  V30 BEGIN CTAB
M  V30 COUNTS 53 58 0 0 0
M  V30 BEGIN ATOM
M  V30 1 O 5.159919 -2.281896 1.866629 0
M  V30 2 C 4.597978 -1.940965 2.939403 0
M  V30 3 N 4.255577 -0.593489 3.211814 0
M  V30 4 C 4.463255 0.566374 2.385209 0
M  V30 5 C 5.589697 1.353213 2.419336 0
M  V30 6 N 5.657486 2.404933 1.597035 0
M  V30 7 C 4.682198 2.742876 0.730959 0
M  V30 8 C 3.535462 1.979092 0.665660 0
M  V30 9 C 2.418388 2.250884 -0.231672 0
M  V30 10 C 2.393884 3.308232 -1.114218 0
M  V30 11 C 1.355940 3.593686 -1.974965 0
M  V30 12 C 0.249025 2.773743 -1.970156 0
M  V30 13 N -0.920687 2.703207 -2.618273 0
M  V30 14 N -1.620435 1.661178 -2.185442 0
M  V30 15 C -0.906000 1.012965 -1.222248 0
M  V30 16 C -1.298767 -0.182597 -0.478129 0
M  V30 17 N -2.427824 -0.864652 -0.599827 0
M  V30 18 C -2.423072 -1.906815 0.258326 0
M  V30 19 C -3.285418 -2.941325 0.586850 0
M  V30 20 C -4.563235 -3.028135 -0.113133 0
M  V30 21 C -5.592887 -2.330814 0.507697 0
M  V30 22 C -6.874932 -2.314654 -0.035151 0
M  V30 23 C -7.103748 -3.017171 -1.221364 0
M  V30 24 C -6.051998 -3.698587 -1.807845 0
M  V30 25 C -4.780248 -3.723339 -1.282826 0
M  V30 26 F -3.726006 -4.360692 -1.800157 0
M  V30 27 C -2.970791 -3.880140 1.547205 0
M  V30 28 C -1.761395 -3.831405 2.237145 0
M  V30 29 C -0.907269 -2.803344 1.908953 0
M  V30 30 C -1.228573 -1.869186 0.948389 0
M  V30 31 N -0.576218 -0.807597 0.470895 0
M  V30 32 C 0.278279 1.715950 -1.084380 0
M  V30 33 N 1.316582 1.478094 -0.262479 0
M  V30 34 C 3.435011 0.887568 1.500916 0
M  V30 35 C 4.205931 -2.842935 4.069116 0
M  V30 36 F 4.854428 -2.458794 5.233055 0
M  V30 37 F 2.824221 -2.836918 4.229245 0
M  V30 38 F 4.619008 -4.116787 3.744927 0
M  V30 39 H 3.794337 -0.207915 4.056975 0
M  V30 40 H 6.375587 1.086428 3.112675 0
M  V30 41 H 4.778373 3.589111 0.094453 0
M  V30 42 H 3.228060 3.984052 -1.165363 0
M  V30 43 H 1.371684 4.430270 -2.652042 0
M  V30 44 H -1.189626 3.396095 -3.349242 0
M  V30 45 H -5.466515 -1.774007 1.423521 0
M  V30 46 H -7.686314 -1.781485 0.428843 0
M  V30 47 H -8.083574 -3.052312 -1.709591 0
M  V30 48 H -6.221905 -4.247670 -2.731019 0
M  V30 49 H -3.634012 -4.693062 1.814063 0
M  V30 50 H -1.483778 -4.541896 2.987779 0
M  V30 51 H 0.039698 -2.755599 2.441314 0
M  V30 52 H 0.360208 -0.511802 0.793327 0
M  V30 53 H 2.531078 0.266054 1.465412 0
M  V30 END ATOM
M  V30 BEGIN BOND
M  V30 1 2 1 2
M  V30 2 1 2 3
M  V30 3 1 3 4
M  V30 4 2 4 5
M  V30 5 1 5 6
M  V30 6 2 6 7
M  V30 7 1 7 8
M  V30 8 1 8 9
M  V30 9 2 9 10
M  V30 10 1 10 11
M  V30 11 2 11 12
M  V30 12 1 12 13
M  V30 13 1 13 14
M  V30 14 2 14 15
M  V30 15 1 15 16
M  V30 16 2 16 17
M  V30 17 1 17 18
M  V30 18 2 18 19
M  V30 19 1 19 20
M  V30 20 2 20 21
M  V30 21 1 21 22
M  V30 22 2 22 23
M  V30 23 1 23 24
M  V30 24 2 24 25
M  V30 25 1 25 26
M  V30 26 1 19 27
M  V30 27 2 27 28
M  V30 28 1 28 29
M  V30 29 2 29 30
M  V30 30 1 30 31
M  V30 31 1 15 32
M  V30 32 2 32 33
M  V30 33 2 8 34
M  V30 34 1 2 35
M  V30 35 1 35 36
M  V30 36 1 35 37
M  V30 37 1 35 38
M  V30 38 1 34 4
M  V30 39 1 33 9
M  V30 40 1 32 12
M  V30 41 1 31 16
M  V30 42 1 30 18
M  V30 43 1 25 20
M  V30 44 1 3 39
M  V30 45 1 5 40
M  V30 46 1 7 41
M  V30 47 1 10 42
M  V30 48 1 11 43
M  V30 49 1 13 44
M  V30 50 1 21 45
M  V30 51 1 22 46
M  V30 52 1 23 47
M  V30 53 1 24 48
M  V30 54 1 27 49
M  V30 55 1 28 50
M  V30 56 1 29 51
M  V30 57 1 31 52
M  V30 58 1 34 53
M  V30 END BOND
M  V30 END CTAB
M  END
>  <Dataset>  (807) 
ChEMBL_Kinases

>  <Ligand_Instance>  (807) 
nan

>  <PDB_ID>  (807) 
nan

>  <Standardized_SMILES>  (807) 
O=C(Nc1cncc(-c2ccc3[nH]nc(-c4nc5c(-c6ccccc6F)cccc5[nH]4)c3n2)c1)C(F)(F)F

>  <Name>  (807) 
nan

>  <Pocket>  (807) 
nan

>  <ATP_Site>  (807) 
nan

>  <Peripheral>  (807) 
nan

>  <Num_H_Atoms_ProtBoundConf>  (807) 
nan

>  <Num_Resolved_Atoms>  (807) 
nan

>  <Num_Not_Resolved_Atoms>  (807) 
nan

$$$$
CHEMBL4748599
     RDKit          3D

  0  0  0  0  0  0  0  0  0  0999 V3000
M  V30 BEGIN CTAB
M  V30 COUNTS 58 63 0 0 0
M  V30 BEGIN ATOM
M  V30 1 C -0.376947 -3.299401 4.087733 0
M  V30 2 C 0.674599 -4.373476 3.956578 0
M  V30 3 C 1.654155 -4.231693 5.089849 0
M  V30 4 C 1.278937 -4.424384 2.590894 0
M  V30 5 C 1.931443 -3.165768 2.188649 0
M  V30 6 O 1.722578 -2.519139 3.237212 0
M  V30 7 N 2.544494 -2.995167 0.921867 0
M  V30 8 C 3.090952 -1.672201 0.827328 0
M  V30 9 C 4.427478 -1.621113 1.242798 0
M  V30 10 N 5.014442 -0.410500 1.200162 0
M  V30 11 C 4.337730 0.682675 0.778444 0
M  V30 12 C 3.029382 0.645028 0.369618 0
M  V30 13 C 2.328089 1.884041 -0.047773 0
M  V30 14 C 3.005202 3.079643 0.069776 0
M  V30 15 C 2.346770 4.275235 -0.250239 0
M  V30 16 C 1.042053 4.092142 -0.662800 0
M  V30 17 N 0.200414 5.107646 -1.002047 0
M  V30 18 N -0.941745 4.579037 -1.318765 0
M  V30 19 C -0.943449 3.243011 -1.220119 0
M  V30 20 C -1.978902 2.271161 -1.455491 0
M  V30 21 N -1.991769 0.934774 -1.422009 0
M  V30 22 C -3.231760 0.539497 -1.779085 0
M  V30 23 C -3.906893 -0.642009 -1.950703 0
M  V30 24 C -3.213817 -1.861721 -1.763597 0
M  V30 25 C -3.556408 -3.207943 -1.848585 0
M  V30 26 C -2.643248 -4.175421 -1.625476 0
M  V30 27 C -1.275496 -3.755722 -1.289745 0
M  V30 28 Cl -0.030850 -5.088030 -0.998514 0
M  V30 29 S -1.435291 -1.871840 -1.324877 0
M  V30 30 C -5.222157 -0.757498 -2.337557 0
M  V30 31 N -5.926078 0.385674 -2.575099 0
M  V30 32 C -5.337319 1.578569 -2.431321 0
M  V30 33 C -4.002127 1.682712 -2.038492 0
M  V30 34 N -3.197338 2.743330 -1.829580 0
M  V30 35 C 0.335096 2.913743 -0.793927 0
M  V30 36 N 1.047648 1.837868 -0.466162 0
M  V30 37 C 2.397341 -0.572544 0.398048 0
M  V30 38 H -0.630411 -2.801897 3.128784 0
M  V30 39 H -1.293557 -3.770666 4.499731 0
M  V30 40 H -0.058677 -2.560685 4.852309 0
M  V30 41 H 0.199512 -5.395022 4.134011 0
M  V30 42 H 1.330649 -4.822863 5.986665 0
M  V30 43 H 1.618066 -3.175951 5.439746 0
M  V30 44 H 2.699761 -4.444576 4.817983 0
M  V30 45 H 2.018577 -5.272584 2.536162 0
M  V30 46 H 0.474713 -4.717460 1.893463 0
M  V30 47 H 2.504139 -3.824165 0.291726 0
M  V30 48 H 4.994024 -2.490397 1.585913 0
M  V30 49 H 4.938706 1.553297 0.804168 0
M  V30 50 H 4.028170 3.229234 0.391563 0
M  V30 51 H 2.821444 5.238730 -0.178508 0
M  V30 52 H 0.225434 6.147570 -1.069963 0
M  V30 53 H -4.588744 -3.367799 -2.101339 0
M  V30 54 H -2.911713 -5.216002 -1.693671 0
M  V30 55 H -5.719285 -1.702848 -2.463756 0
M  V30 56 H -5.920597 2.482654 -2.627158 0
M  V30 57 H -3.564350 3.727854 -1.964583 0
M  V30 58 H 1.381532 -0.684488 0.097023 0
M  V30 END ATOM
M  V30 BEGIN BOND
M  V30 1 1 1 2
M  V30 2 1 2 3
M  V30 3 1 2 4
M  V30 4 1 4 5
M  V30 5 2 5 6
M  V30 6 1 5 7
M  V30 7 1 7 8
M  V30 8 2 8 9
M  V30 9 1 9 10
M  V30 10 2 10 11
M  V30 11 1 11 12
M  V30 12 1 12 13
M  V30 13 2 13 14
M  V30 14 1 14 15
M  V30 15 2 15 16
M  V30 16 1 16 17
M  V30 17 1 17 18
M  V30 18 2 18 19
M  V30 19 1 19 20
M  V30 20 2 20 21
M  V30 21 1 21 22
M  V30 22 2 22 23
M  V30 23 1 23 24
M  V30 24 2 24 25
M  V30 25 1 25 26
M  V30 26 2 26 27
M  V30 27 1 27 28
M  V30 28 1 27 29
M  V30 29 1 23 30
M  V30 30 2 30 31
M  V30 31 1 31 32
M  V30 32 2 32 33
M  V30 33 1 33 34
M  V30 34 1 19 35
M  V30 35 2 35 36
M  V30 36 2 12 37
M  V30 37 1 37 8
M  V30 38 1 36 13
M  V30 39 1 35 16
M  V30 40 1 34 20
M  V30 41 1 33 22
M  V30 42 1 29 24
M  V30 43 1 1 38
M  V30 44 1 1 39
M  V30 45 1 1 40
M  V30 46 1 2 41
M  V30 47 1 3 42
M  V30 48 1 3 43
M  V30 49 1 3 44
M  V30 50 1 4 45
M  V30 51 1 4 46
M  V30 52 1 7 47
M  V30 53 1 9 48
M  V30 54 1 11 49
M  V30 55 1 14 50
M  V30 56 1 15 51
M  V30 57 1 17 52
M  V30 58 1 25 53
M  V30 59 1 26 54
M  V30 60 1 30 55
M  V30 61 1 32 56
M  V30 62 1 34 57
M  V30 63 1 37 58
M  V30 END BOND
M  V30 END CTAB
M  END
>  <Dataset>  (808) 
ChEMBL_Kinases

>  <Ligand_Instance>  (808) 
nan

>  <PDB_ID>  (808) 
nan

>  <Standardized_SMILES>  (808) 
CC(C)CC(=O)Nc1cncc(-c2ccc3[nH]nc(-c4nc5c(-c6ccc(Cl)s6)cncc5[nH]4)c3n2)c1

>  <Name>  (808) 
nan

>  <Pocket>  (808) 
nan

>  <ATP_Site>  (808) 
nan

>  <Peripheral>  (808) 
nan

>  <Num_H_Atoms_ProtBoundConf>  (808) 
nan

>  <Num_Resolved_Atoms>  (808) 
nan

>  <Num_Not_Resolved_Atoms>  (808) 
nan

$$$$
CHEMBL4748551
     RDKit          3D

  0  0  0  0  0  0  0  0  0  0999 V3000
M  V30 BEGIN CTAB
M  V30 COUNTS 64 69 0 0 0
M  V30 BEGIN ATOM
M  V30 1 C 2.564600 -0.982268 -2.956026 0
M  V30 2 N 3.849819 -0.804342 -2.387433 0
M  V30 3 C 4.812096 -1.797300 -2.699864 0
M  V30 4 C 3.964902 -0.155538 -1.142115 0
M  V30 5 C 3.337189 1.186018 -1.085937 0
M  V30 6 C 4.093229 2.226811 -1.578132 0
M  V30 7 N 3.553831 3.450606 -1.523069 0
M  V30 8 C 2.314080 3.627788 -0.999125 0
M  V30 9 C 1.525276 2.618958 -0.496685 0
M  V30 10 C 0.220645 2.987674 0.040008 0
M  V30 11 C -0.668114 2.110012 0.618997 0
M  V30 12 C -1.866376 2.534511 1.133734 0
M  V30 13 C -2.904278 1.899091 1.757008 0
M  V30 14 C -3.104192 0.514343 2.105610 0
M  V30 15 C -2.439326 -0.671149 1.964274 0
M  V30 16 C -3.113656 -1.723307 2.495175 0
M  V30 17 C -2.884905 -3.066203 2.614501 0
M  V30 18 N -1.722054 -3.656810 2.057694 0
M  V30 19 C -1.939021 -3.660573 0.640055 0
M  V30 20 C -0.896277 -4.525527 -0.077091 0
M  V30 21 N 0.436143 -4.004436 0.148321 0
M  V30 22 C 0.726126 -2.880771 -0.720544 0
M  V30 23 C 0.676912 -3.711847 1.543539 0
M  V30 24 C -0.448330 -4.229638 2.425415 0
M  V30 25 N -3.785115 -3.892874 3.235545 0
M  V30 26 C -4.927810 -3.388134 3.744134 0
M  V30 27 C -5.166898 -2.037264 3.626976 0
M  V30 28 C -4.279656 -1.185548 3.009303 0
M  V30 29 N -4.218782 0.132889 2.750380 0
M  V30 30 N -3.764331 2.892130 2.018955 0
M  V30 31 N -3.312352 4.053112 1.599025 0
M  V30 32 C -2.110215 3.880890 1.029188 0
M  V30 33 C -1.263791 4.806364 0.462372 0
M  V30 34 N -0.114239 4.298243 -0.014155 0
M  V30 35 C 2.079552 1.381433 -0.556927 0
M  V30 36 H 1.732850 -0.602244 -2.367823 0
M  V30 37 H 2.342425 -2.039734 -3.225825 0
M  V30 38 H 2.497947 -0.453970 -3.963636 0
M  V30 39 H 4.303829 -2.800057 -2.700907 0
M  V30 40 H 5.262253 -1.727721 -3.712054 0
M  V30 41 H 5.567899 -1.847237 -1.892408 0
M  V30 42 H 3.435895 -0.777116 -0.361778 0
M  V30 43 H 5.028192 -0.157680 -0.830091 0
M  V30 44 H 5.092489 2.127949 -2.006344 0
M  V30 45 H 2.017529 4.685901 -1.022874 0
M  V30 46 H -0.417436 1.070603 0.669270 0
M  V30 47 H -1.481694 -0.747437 1.489995 0
M  V30 48 H -2.918266 -4.119959 0.333586 0
M  V30 49 H -1.951770 -2.644142 0.221131 0
M  V30 50 H -0.935347 -5.566016 0.245106 0
M  V30 51 H -1.116483 -4.452349 -1.147183 0
M  V30 52 H 1.095457 -3.344296 -1.671090 0
M  V30 53 H -0.171301 -2.292039 -0.967865 0
M  V30 54 H 1.503752 -2.271681 -0.227513 0
M  V30 55 H 0.857122 -2.634272 1.643079 0
M  V30 56 H 1.614394 -4.233124 1.827872 0
M  V30 57 H -0.173641 -4.100700 3.474144 0
M  V30 58 H -0.515889 -5.320295 2.223089 0
M  V30 59 H -5.678390 -3.992230 4.245806 0
M  V30 60 H -6.077076 -1.617931 4.030659 0
M  V30 61 H -5.042381 0.704645 3.081133 0
M  V30 62 H -3.855994 4.932182 1.721710 0
M  V30 63 H -1.507706 5.854232 0.405936 0
M  V30 64 H 1.477127 0.553993 -0.164515 0
M  V30 END ATOM
M  V30 BEGIN BOND
M  V30 1 1 1 2
M  V30 2 1 2 3
M  V30 3 1 2 4
M  V30 4 1 4 5
M  V30 5 2 5 6
M  V30 6 1 6 7
M  V30 7 2 7 8
M  V30 8 1 8 9
M  V30 9 1 9 10
M  V30 10 2 10 11
M  V30 11 1 11 12
M  V30 12 1 12 13
M  V30 13 1 13 14
M  V30 14 2 14 15
M  V30 15 1 15 16
M  V30 16 2 16 17
M  V30 17 1 17 18
M  V30 18 1 18 19
M  V30 19 1 19 20
M  V30 20 1 20 21
M  V30 21 1 21 22
M  V30 22 1 21 23
M  V30 23 1 23 24
M  V30 24 1 17 25
M  V30 25 2 25 26
M  V30 26 1 26 27
M  V30 27 2 27 28
M  V30 28 1 28 29
M  V30 29 2 13 30
M  V30 30 1 30 31
M  V30 31 1 31 32
M  V30 32 1 32 33
M  V30 33 2 33 34
M  V30 34 2 9 35
M  V30 35 1 35 5
M  V30 36 1 34 10
M  V30 37 2 32 12
M  V30 38 1 29 14
M  V30 39 1 28 16
M  V30 40 1 24 18
M  V30 41 1 1 36
M  V30 42 1 1 37
M  V30 43 1 1 38
M  V30 44 1 3 39
M  V30 45 1 3 40
M  V30 46 1 3 41
M  V30 47 1 4 42
M  V30 48 1 4 43
M  V30 49 1 6 44
M  V30 50 1 8 45
M  V30 51 1 11 46
M  V30 52 1 15 47
M  V30 53 1 19 48
M  V30 54 1 19 49
M  V30 55 1 20 50
M  V30 56 1 20 51
M  V30 57 1 22 52
M  V30 58 1 22 53
M  V30 59 1 22 54
M  V30 60 1 23 55
M  V30 61 1 23 56
M  V30 62 1 24 57
M  V30 63 1 24 58
M  V30 64 1 26 59
M  V30 65 1 27 60
M  V30 66 1 29 61
M  V30 67 1 31 62
M  V30 68 1 33 63
M  V30 69 1 35 64
M  V30 END BOND
M  V30 END CTAB
M  END
>  <Dataset>  (809) 
ChEMBL_Kinases

>  <Ligand_Instance>  (809) 
nan

>  <PDB_ID>  (809) 
nan

>  <Standardized_SMILES>  (809) 
CN(C)Cc1cncc(-c2cc3c(-c4cc5c(N6CCN(C)CC6)nccc5[nH]4)n[nH]c3cn2)c1

>  <Name>  (809) 
nan

>  <Pocket>  (809) 
nan

>  <ATP_Site>  (809) 
nan

>  <Peripheral>  (809) 
nan

>  <Num_H_Atoms_ProtBoundConf>  (809) 
nan

>  <Num_Resolved_Atoms>  (809) 
nan

>  <Num_Not_Resolved_Atoms>  (809) 
nan

$$$$
CHEMBL4748484
     RDKit          3D

  0  0  0  0  0  0  0  0  0  0999 V3000
M  V30 BEGIN CTAB
M  V30 COUNTS 60 64 0 0 0
M  V30 BEGIN ATOM
M  V30 1 C 7.547988 -2.917109 4.575914 0
M  V30 2 N 7.249363 -1.922732 3.593781 0
M  V30 3 C 7.247144 -0.574612 4.149862 0
M  V30 4 C 6.919392 0.409781 3.010707 0
M  V30 5 C 6.286054 -0.363221 1.866976 0
M  V30 6 O 5.128718 -1.039232 2.254828 0
M  V30 7 C 3.864071 -0.897771 1.761009 0
M  V30 8 C 3.400987 -0.063941 0.767354 0
M  V30 9 C 2.063128 -0.056925 0.392223 0
M  V30 10 C 1.121240 -0.873633 0.981894 0
M  V30 11 C -0.256540 -0.796521 0.518111 0
M  V30 12 O -0.481493 0.021903 -0.403867 0
M  V30 13 N -1.322294 -1.555066 1.018257 0
M  V30 14 C -2.687385 -1.558855 0.640259 0
M  V30 15 C -3.281234 -0.807634 -0.317828 0
M  V30 16 C -4.618213 -0.851225 -0.647537 0
M  V30 17 C -5.145781 -0.053554 -1.636668 0
M  V30 18 C -6.505318 -0.163175 -1.903880 0
M  V30 19 C -7.154825 0.641754 -2.936275 0
M  V30 20 C -6.909826 1.920304 -3.414712 0
M  V30 21 N -7.807920 2.203762 -4.387080 0
M  V30 22 N -8.616299 1.168290 -4.554352 0
M  V30 23 C -9.701189 1.112759 -5.510417 0
M  V30 24 C -8.235159 0.229724 -3.692797 0
M  V30 25 C -7.308481 -1.050461 -1.194754 0
M  V30 26 C -6.787082 -1.853984 -0.201139 0
M  V30 27 C -5.438736 -1.720630 0.037681 0
M  V30 28 C -4.821581 -2.478625 1.009666 0
M  V30 29 N -3.525412 -2.389726 1.280017 0
M  V30 30 C 1.583217 -1.709759 1.977979 0
M  V30 31 C 2.908139 -1.727138 2.360237 0
M  V30 32 C 7.335567 -1.275738 1.288475 0
M  V30 33 C 8.045224 -1.983391 2.411658 0
M  V30 34 H 7.703319 -3.912730 4.115775 0
M  V30 35 H 6.707097 -3.032986 5.296584 0
M  V30 36 H 8.447157 -2.721344 5.191924 0
M  V30 37 H 6.434664 -0.565455 4.904874 0
M  V30 38 H 8.230346 -0.293719 4.553535 0
M  V30 39 H 7.890896 0.806618 2.661624 0
M  V30 40 H 6.310769 1.221913 3.401065 0
M  V30 41 H 6.028059 0.360913 1.068156 0
M  V30 42 H 4.149954 0.563651 0.321395 0
M  V30 43 H 1.827924 0.637060 -0.393529 0
M  V30 44 H -1.008357 -2.197095 1.781942 0
M  V30 45 H -2.698351 -0.112298 -0.886259 0
M  V30 46 H -4.547433 0.628351 -2.186711 0
M  V30 47 H -6.093559 2.534857 -3.009346 0
M  V30 48 H -10.332609 2.028277 -5.424980 0
M  V30 49 H -10.372644 0.258636 -5.334736 0
M  V30 50 H -9.334005 1.068223 -6.555750 0
M  V30 51 H -8.703277 -0.744158 -3.584453 0
M  V30 52 H -8.379376 -1.166079 -1.374518 0
M  V30 53 H -7.347000 -2.562290 0.387759 0
M  V30 54 H -5.381402 -3.198587 1.610638 0
M  V30 55 H 0.888545 -2.356433 2.459222 0
M  V30 56 H 3.177556 -2.428620 3.163459 0
M  V30 57 H 8.081213 -0.703192 0.686504 0
M  V30 58 H 6.893584 -2.004186 0.562993 0
M  V30 59 H 9.004798 -1.430582 2.602566 0
M  V30 60 H 8.283343 -3.047325 2.149555 0
M  V30 END ATOM
M  V30 BEGIN BOND
M  V30 1 1 1 2
M  V30 2 1 2 3
M  V30 3 1 3 4
M  V30 4 1 4 5
M  V30 5 1 5 6
M  V30 6 1 6 7
M  V30 7 2 7 8
M  V30 8 1 8 9
M  V30 9 2 9 10
M  V30 10 1 10 11
M  V30 11 2 11 12
M  V30 12 1 11 13
M  V30 13 1 13 14
M  V30 14 2 14 15
M  V30 15 1 15 16
M  V30 16 2 16 17
M  V30 17 1 17 18
M  V30 18 1 18 19
M  V30 19 1 19 20
M  V30 20 2 20 21
M  V30 21 1 21 22
M  V30 22 1 22 23
M  V30 23 1 22 24
M  V30 24 2 18 25
M  V30 25 1 25 26
M  V30 26 2 26 27
M  V30 27 1 27 28
M  V30 28 2 28 29
M  V30 29 1 10 30
M  V30 30 2 30 31
M  V30 31 1 5 32
M  V30 32 1 32 33
M  V30 33 1 33 2
M  V30 34 1 31 7
M  V30 35 1 29 14
M  V30 36 1 27 16
M  V30 37 2 24 19
M  V30 38 1 1 34
M  V30 39 1 1 35
M  V30 40 1 1 36
M  V30 41 1 3 37
M  V30 42 1 3 38
M  V30 43 1 4 39
M  V30 44 1 4 40
M  V30 45 1 5 41
M  V30 46 1 8 42
M  V30 47 1 9 43
M  V30 48 1 13 44
M  V30 49 1 15 45
M  V30 50 1 17 46
M  V30 51 1 20 47
M  V30 52 1 23 48
M  V30 53 1 23 49
M  V30 54 1 23 50
M  V30 55 1 24 51
M  V30 56 1 25 52
M  V30 57 1 26 53
M  V30 58 1 28 54
M  V30 59 1 30 55
M  V30 60 1 31 56
M  V30 61 1 32 57
M  V30 62 1 32 58
M  V30 63 1 33 59
M  V30 64 1 33 60
M  V30 END BOND
M  V30 END CTAB
M  END
>  <Dataset>  (810) 
ChEMBL_Kinases

>  <Ligand_Instance>  (810) 
nan

>  <PDB_ID>  (810) 
nan

>  <Standardized_SMILES>  (810) 
CN1CCC(Oc2ccc(C(=O)Nc3cc4cc(-c5cnn(C)c5)ccc4cn3)cc2)CC1

>  <Name>  (810) 
nan

>  <Pocket>  (810) 
nan

>  <ATP_Site>  (810) 
nan

>  <Peripheral>  (810) 
nan

>  <Num_H_Atoms_ProtBoundConf>  (810) 
nan

>  <Num_Resolved_Atoms>  (810) 
nan

>  <Num_Not_Resolved_Atoms>  (810) 
nan

$$$$
CHEMBL4748414
     RDKit          3D

  0  0  0  0  0  0  0  0  0  0999 V3000
M  V30 BEGIN CTAB
M  V30 COUNTS 71 77 0 0 0
M  V30 BEGIN ATOM
M  V30 1 C 1.877781 -1.237770 3.375264 0
M  V30 2 N 1.669152 -2.371017 2.527062 0
M  V30 3 C 2.845384 -3.178158 2.323879 0
M  V30 4 C 3.916406 -2.446952 1.549452 0
M  V30 5 N 3.231601 -1.291402 0.928876 0
M  V30 6 C 3.832329 -0.030753 1.132424 0
M  V30 7 N 5.113972 0.011243 1.528487 0
M  V30 8 C 5.778107 1.161636 1.709404 0
M  V30 9 C 5.175855 2.380929 1.496917 0
M  V30 10 C 3.860339 2.411857 1.089695 0
M  V30 11 N 2.952028 3.350441 0.797968 0
M  V30 12 C 1.746531 2.847551 0.443543 0
M  V30 13 C 0.657606 3.723941 0.094126 0
M  V30 14 N 0.737521 5.065007 0.087356 0
M  V30 15 N -0.394744 5.607253 -0.269377 0
M  V30 16 C -1.314067 4.663277 -0.526720 0
M  V30 17 N -2.604979 4.692301 -0.919946 0
M  V30 18 C -3.278483 3.519860 -1.097163 0
M  V30 19 C -2.657533 2.283484 -0.879124 0
M  V30 20 C -3.487895 1.130344 -1.108212 0
M  V30 21 C -4.853697 1.273938 -0.847113 0
M  V30 22 N -5.763552 0.274688 -1.018330 0
M  V30 23 C -5.405828 -0.929884 -1.454342 0
M  V30 24 C -4.046647 -1.124415 -1.729887 0
M  V30 25 C -3.646576 -2.453619 -2.218308 0
M  V30 26 N -3.350884 -3.398305 -1.202747 0
M  V30 27 C -2.946721 -4.649345 -1.798800 0
M  V30 28 C -2.293286 -5.566183 -0.783858 0
M  V30 29 C -2.800697 -5.285523 0.614314 0
M  V30 30 C -2.609827 -3.865208 1.042206 0
M  V30 31 C -2.415921 -3.014861 -0.201542 0
M  V30 32 C -3.127313 -0.127038 -1.560910 0
M  V30 33 C -1.341247 2.337447 -0.480291 0
M  V30 34 C -0.633719 3.487673 -0.292467 0
M  V30 35 C 1.965086 1.503086 0.534383 0
M  V30 36 C 3.245553 1.193292 0.925574 0
M  V30 37 C 2.081973 -1.804099 0.224162 0
M  V30 38 C 1.020288 -2.040134 1.258637 0
M  V30 39 H 1.315751 -1.451800 4.329509 0
M  V30 40 H 1.493669 -0.287334 2.957655 0
M  V30 41 H 2.933184 -1.104264 3.694928 0
M  V30 42 H 2.512491 -4.111072 1.827581 0
M  V30 43 H 3.236921 -3.424952 3.335645 0
M  V30 44 H 4.762086 -2.136593 2.182844 0
M  V30 45 H 4.221900 -3.098817 0.707789 0
M  V30 46 H 6.795786 1.110096 2.025139 0
M  V30 47 H 5.682176 3.309955 1.633582 0
M  V30 48 H 3.277761 4.351629 0.877809 0
M  V30 49 H -0.522687 6.650613 -0.332491 0
M  V30 50 H -4.287376 3.677427 -1.408034 0
M  V30 51 H -5.330111 2.174181 -0.487664 0
M  V30 52 H -6.111800 -1.729774 -1.595315 0
M  V30 53 H -2.745480 -2.352967 -2.859202 0
M  V30 54 H -4.480093 -2.861071 -2.828270 0
M  V30 55 H -2.199344 -4.485339 -2.590141 0
M  V30 56 H -3.807051 -5.186139 -2.234507 0
M  V30 57 H -1.183415 -5.515220 -0.809726 0
M  V30 58 H -2.572340 -6.609682 -1.031923 0
M  V30 59 H -3.866854 -5.617921 0.708985 0
M  V30 60 H -2.212891 -5.931297 1.305662 0
M  V30 61 H -3.494116 -3.467158 1.593457 0
M  V30 62 H -1.753994 -3.715167 1.719901 0
M  V30 63 H -1.391874 -3.223482 -0.619853 0
M  V30 64 H -2.439544 -1.959348 0.102972 0
M  V30 65 H -2.067459 -0.242187 -1.764552 0
M  V30 66 H -0.872865 1.388659 -0.315542 0
M  V30 67 H 1.197232 0.786833 0.325291 0
M  V30 68 H 2.289381 -2.827414 -0.229524 0
M  V30 69 H 1.765563 -1.207345 -0.650193 0
M  V30 70 H 0.356515 -1.184764 1.385274 0
M  V30 71 H 0.402256 -2.952296 1.017920 0
M  V30 END ATOM
M  V30 BEGIN BOND
M  V30 1 1 1 2
M  V30 2 1 2 3
M  V30 3 1 3 4
M  V30 4 1 4 5
M  V30 5 1 5 6
M  V30 6 2 6 7
M  V30 7 1 7 8
M  V30 8 2 8 9
M  V30 9 1 9 10
M  V30 10 1 10 11
M  V30 11 1 11 12
M  V30 12 1 12 13
M  V30 13 2 13 14
M  V30 14 1 14 15
M  V30 15 1 15 16
M  V30 16 2 16 17
M  V30 17 1 17 18
M  V30 18 2 18 19
M  V30 19 1 19 20
M  V30 20 2 20 21
M  V30 21 1 21 22
M  V30 22 2 22 23
M  V30 23 1 23 24
M  V30 24 1 24 25
M  V30 25 1 25 26
M  V30 26 1 26 27
M  V30 27 1 27 28
M  V30 28 1 28 29
M  V30 29 1 29 30
M  V30 30 1 30 31
M  V30 31 2 24 32
M  V30 32 1 19 33
M  V30 33 2 33 34
M  V30 34 2 12 35
M  V30 35 1 35 36
M  V30 36 1 5 37
M  V30 37 1 37 38
M  V30 38 1 38 2
M  V30 39 1 36 6
M  V30 40 2 36 10
M  V30 41 1 34 13
M  V30 42 1 34 16
M  V30 43 1 32 20
M  V30 44 1 31 26
M  V30 45 1 1 39
M  V30 46 1 1 40
M  V30 47 1 1 41
M  V30 48 1 3 42
M  V30 49 1 3 43
M  V30 50 1 4 44
M  V30 51 1 4 45
M  V30 52 1 8 46
M  V30 53 1 9 47
M  V30 54 1 11 48
M  V30 55 1 15 49
M  V30 56 1 18 50
M  V30 57 1 21 51
M  V30 58 1 23 52
M  V30 59 1 25 53
M  V30 60 1 25 54
M  V30 61 1 27 55
M  V30 62 1 27 56
M  V30 63 1 28 57
M  V30 64 1 28 58
M  V30 65 1 29 59
M  V30 66 1 29 60
M  V30 67 1 30 61
M  V30 68 1 30 62
M  V30 69 1 31 63
M  V30 70 1 31 64
M  V30 71 1 32 65
M  V30 72 1 33 66
M  V30 73 1 35 67
M  V30 74 1 37 68
M  V30 75 1 37 69
M  V30 76 1 38 70
M  V30 77 1 38 71
M  V30 END BOND
M  V30 END CTAB
M  END
>  <Dataset>  (811) 
ChEMBL_Kinases

>  <Ligand_Instance>  (811) 
nan

>  <PDB_ID>  (811) 
nan

>  <Standardized_SMILES>  (811) 
CN1CCN(c2nccc3[nH]c(-c4n[nH]c5ncc(-c6cncc(CN7CCCCC7)c6)cc45)cc23)CC1

>  <Name>  (811) 
nan

>  <Pocket>  (811) 
nan

>  <ATP_Site>  (811) 
nan

>  <Peripheral>  (811) 
nan

>  <Num_H_Atoms_ProtBoundConf>  (811) 
nan

>  <Num_Resolved_Atoms>  (811) 
nan

>  <Num_Not_Resolved_Atoms>  (811) 
nan

$$$$
CHEMBL4748029
     RDKit          3D

  0  0  0  0  0  0  0  0  0  0999 V3000
M  V30 BEGIN CTAB
M  V30 COUNTS 48 53 0 0 0
M  V30 BEGIN ATOM
M  V30 1 N 3.540729 -6.064841 3.594908 0
M  V30 2 C 2.957400 -4.859734 3.115787 0
M  V30 3 C 3.568624 -3.696783 3.588489 0
M  V30 4 N 3.022464 -2.529282 3.139425 0
M  V30 5 C 1.970235 -2.540110 2.301585 0
M  V30 6 C 1.357284 -3.650390 1.826871 0
M  V30 7 C 0.216760 -3.657588 0.918684 0
M  V30 8 C -0.369847 -2.525001 0.437835 0
M  V30 9 C -1.444113 -2.517354 -0.417757 0
M  V30 10 C -2.157499 -1.505669 -0.998110 0
M  V30 11 C -2.046319 -0.090458 -0.926716 0
M  V30 12 C -1.261022 0.821703 -0.312370 0
M  V30 13 C -1.598984 2.128978 -0.597360 0
M  V30 14 C -1.107596 3.361472 -0.220969 0
M  V30 15 C 0.046206 3.385334 0.697624 0
M  V30 16 C -0.107255 3.408625 2.083902 0
M  V30 17 C 1.047412 3.429581 2.836411 0
M  V30 18 C 2.308763 3.428825 2.310504 0
M  V30 19 C 2.393317 3.405046 0.922735 0
M  V30 20 C 1.293016 3.383366 0.108213 0
M  V30 21 F 1.459139 3.360950 -1.233126 0
M  V30 22 C -1.671544 4.531643 -0.684276 0
M  V30 23 N -2.713503 4.383148 -1.512278 0
M  V30 24 C -3.218192 3.201317 -1.899875 0
M  V30 25 C -2.666936 2.021766 -1.446561 0
M  V30 26 N -2.900152 0.709212 -1.616385 0
M  V30 27 N -3.070436 -2.190966 -1.716848 0
M  V30 28 N -2.948331 -3.485689 -1.603946 0
M  V30 29 C -1.931589 -3.766735 -0.790852 0
M  V30 30 C -1.363441 -4.933205 -0.324294 0
M  V30 31 N -0.313373 -4.848692 0.510914 0
M  V30 32 C 1.881514 -4.850518 2.258866 0
M  V30 33 H 4.182426 -6.869755 3.341205 0
M  V30 34 H 3.229292 -6.246907 4.576651 0
M  V30 35 H 4.402113 -3.653276 4.251736 0
M  V30 36 H 1.621375 -1.572617 2.012058 0
M  V30 37 H 0.036711 -1.606677 0.750492 0
M  V30 38 H -0.442019 0.581885 0.342776 0
M  V30 39 H -1.114777 3.408963 2.489008 0
M  V30 40 H 0.950728 3.447617 3.901356 0
M  V30 41 H 3.194708 3.446017 2.951250 0
M  V30 42 H 3.410852 3.404605 0.508034 0
M  V30 43 H -1.280031 5.495361 -0.384167 0
M  V30 44 H -4.059646 3.142689 -2.569280 0
M  V30 45 H -3.709792 0.455682 -2.258097 0
M  V30 46 H -3.581846 -4.148967 -2.100433 0
M  V30 47 H -1.772023 -5.877356 -0.638249 0
M  V30 48 H 1.503225 -5.822422 1.969357 0
M  V30 END ATOM
M  V30 BEGIN BOND
M  V30 1 1 1 2
M  V30 2 2 2 3
M  V30 3 1 3 4
M  V30 4 2 4 5
M  V30 5 1 5 6
M  V30 6 1 6 7
M  V30 7 2 7 8
M  V30 8 1 8 9
M  V30 9 1 9 10
M  V30 10 1 10 11
M  V30 11 2 11 12
M  V30 12 1 12 13
M  V30 13 2 13 14
M  V30 14 1 14 15
M  V30 15 2 15 16
M  V30 16 1 16 17
M  V30 17 2 17 18
M  V30 18 1 18 19
M  V30 19 2 19 20
M  V30 20 1 20 21
M  V30 21 1 14 22
M  V30 22 2 22 23
M  V30 23 1 23 24
M  V30 24 2 24 25
M  V30 25 1 25 26
M  V30 26 2 10 27
M  V30 27 1 27 28
M  V30 28 1 28 29
M  V30 29 1 29 30
M  V30 30 2 30 31
M  V30 31 2 6 32
M  V30 32 1 32 2
M  V30 33 1 31 7
M  V30 34 2 29 9
M  V30 35 1 26 11
M  V30 36 1 25 13
M  V30 37 1 20 15
M  V30 38 1 1 33
M  V30 39 1 1 34
M  V30 40 1 3 35
M  V30 41 1 5 36
M  V30 42 1 8 37
M  V30 43 1 12 38
M  V30 44 1 16 39
M  V30 45 1 17 40
M  V30 46 1 18 41
M  V30 47 1 19 42
M  V30 48 1 22 43
M  V30 49 1 24 44
M  V30 50 1 26 45
M  V30 51 1 28 46
M  V30 52 1 30 47
M  V30 53 1 32 48
M  V30 END BOND
M  V30 END CTAB
M  END
>  <Dataset>  (812) 
ChEMBL_Kinases

>  <Ligand_Instance>  (812) 
nan

>  <PDB_ID>  (812) 
nan

>  <Standardized_SMILES>  (812) 
Nc1cncc(-c2cc3c(-c4cc5c(-c6ccccc6F)cncc5[nH]4)n[nH]c3cn2)c1

>  <Name>  (812) 
nan

>  <Pocket>  (812) 
nan

>  <ATP_Site>  (812) 
nan

>  <Peripheral>  (812) 
nan

>  <Num_H_Atoms_ProtBoundConf>  (812) 
nan

>  <Num_Resolved_Atoms>  (812) 
nan

>  <Num_Not_Resolved_Atoms>  (812) 
nan

$$$$
CHEMBL2425487
     RDKit          3D

  0  0  0  0  0  0  0  0  0  0999 V3000
M  V30 BEGIN CTAB
M  V30 COUNTS 61 66 0 0 0
M  V30 BEGIN ATOM
M  V30 1 C 4.799463 0.272981 -1.950165 0
M  V30 2 O 3.465931 0.267036 -2.330456 0
M  V30 3 C 2.353667 0.003923 -1.559761 0
M  V30 4 C 2.401178 -0.311664 -0.221788 0
M  V30 5 C 1.251961 -0.583969 0.560497 0
M  V30 6 C 1.630930 -0.887470 1.948083 0
M  V30 7 C -0.013893 -0.521349 -0.095180 0
M  V30 8 C -1.011370 -0.886934 0.891456 0
M  V30 9 C -1.704420 -0.045287 1.726081 0
M  V30 10 C -1.701098 1.303803 2.015118 0
M  V30 11 C -0.806030 2.110200 1.343437 0
M  V30 12 C -0.743320 3.490940 1.590884 0
M  V30 13 O 0.143541 4.345863 0.949214 0
M  V30 14 C 1.036745 3.781372 0.000737 0
M  V30 15 C -1.577487 4.080390 2.509991 0
M  V30 16 O -1.531514 5.440429 2.767853 0
M  V30 17 C -2.470701 3.262700 3.175096 0
M  V30 18 C -2.522380 1.912244 2.927641 0
M  V30 19 O -3.390520 1.176940 3.592511 0
M  V30 20 C -3.476050 -0.123710 3.392428 0
M  V30 21 O -4.336470 -0.758663 4.076037 0
M  V30 22 C -2.648438 -0.730995 2.474448 0
M  V30 23 N -2.545262 -2.044009 2.099862 0
M  V30 24 C -3.280820 -3.071770 2.549290 0
M  V30 25 C -3.078855 -4.339303 2.056375 0
M  V30 26 C -2.098589 -4.481965 1.097897 0
M  V30 27 C -1.907609 -5.781965 0.600846 0
M  V30 28 C -0.911960 -5.923791 -0.379137 0
M  V30 29 O -0.798053 -7.241376 -0.808233 0
M  V30 30 C -0.163385 -4.828508 -0.823671 0
M  V30 31 O 0.729523 -5.278010 -1.777229 0
M  V30 32 C 1.639641 -4.439330 -2.431262 0
M  V30 33 C -0.409909 -3.589893 -0.289502 0
M  V30 34 C -1.372622 -3.400286 0.670696 0
M  V30 35 C -1.561898 -2.119210 1.153737 0
M  V30 36 C -0.029204 -0.195285 -1.454241 0
M  V30 37 C 1.110779 0.053766 -2.148574 0
M  V30 38 O 0.884988 0.350301 -3.471897 0
M  V30 39 H 5.056837 -0.287045 -1.034359 0
M  V30 40 H 5.154882 1.333220 -1.784325 0
M  V30 41 H 5.482387 -0.085688 -2.779025 0
M  V30 42 H 3.416866 -0.332712 0.176269 0
M  V30 43 H 2.328954 -1.759142 1.881796 0
M  V30 44 H 0.840574 -1.204667 2.619563 0
M  V30 45 H 2.278286 -0.066779 2.388910 0
M  V30 46 H -0.114461 1.783327 0.601411 0
M  V30 47 H 0.510734 3.180600 -0.769623 0
M  V30 48 H 1.588037 4.563283 -0.579907 0
M  V30 49 H 1.747489 3.079030 0.531132 0
M  V30 50 H -1.697357 6.184190 2.125388 0
M  V30 51 H -3.152430 3.667422 3.909493 0
M  V30 52 H -4.042241 -2.975196 3.292356 0
M  V30 53 H -3.662856 -5.188901 2.401963 0
M  V30 54 H -2.511828 -6.598238 0.972228 0
M  V30 55 H 0.105816 -7.458769 -1.249535 0
M  V30 56 H 1.151018 -3.748213 -3.131812 0
M  V30 57 H 2.272816 -3.842606 -1.751810 0
M  V30 58 H 2.327300 -5.061474 -3.085713 0
M  V30 59 H 0.229038 -2.853919 -0.721117 0
M  V30 60 H -1.067141 -0.200816 -1.753469 0
M  V30 61 H 1.372975 -0.055668 -4.253502 0
M  V30 END ATOM
M  V30 BEGIN BOND
M  V30 1 1 1 2
M  V30 2 1 2 3
M  V30 3 2 3 4
M  V30 4 1 4 5
M  V30 5 1 5 6
M  V30 6 2 5 7
M  V30 7 1 7 8
M  V30 8 1 8 9
M  V30 9 1 9 10
M  V30 10 2 10 11
M  V30 11 1 11 12
M  V30 12 1 12 13
M  V30 13 1 13 14
M  V30 14 2 12 15
M  V30 15 1 15 16
M  V30 16 1 15 17
M  V30 17 2 17 18
M  V30 18 1 18 19
M  V30 19 1 19 20
M  V30 20 2 20 21
M  V30 21 1 20 22
M  V30 22 1 22 23
M  V30 23 1 23 24
M  V30 24 2 24 25
M  V30 25 1 25 26
M  V30 26 2 26 27
M  V30 27 1 27 28
M  V30 28 1 28 29
M  V30 29 2 28 30
M  V30 30 1 30 31
M  V30 31 1 31 32
M  V30 32 1 30 33
M  V30 33 2 33 34
M  V30 34 1 34 35
M  V30 35 1 7 36
M  V30 36 2 36 37
M  V30 37 1 37 38
M  V30 38 1 37 3
M  V30 39 2 35 8
M  V30 40 2 22 9
M  V30 41 1 35 23
M  V30 42 1 18 10
M  V30 43 1 34 26
M  V30 44 1 1 39
M  V30 45 1 1 40
M  V30 46 1 1 41
M  V30 47 1 4 42
M  V30 48 1 6 43
M  V30 49 1 6 44
M  V30 50 1 6 45
M  V30 51 1 11 46
M  V30 52 1 14 47
M  V30 53 1 14 48
M  V30 54 1 14 49
M  V30 55 1 16 50
M  V30 56 1 17 51
M  V30 57 1 24 52
M  V30 58 1 25 53
M  V30 59 1 27 54
M  V30 60 1 29 55
M  V30 61 1 32 56
M  V30 62 1 32 57
M  V30 63 1 32 58
M  V30 64 1 33 59
M  V30 65 1 36 60
M  V30 66 1 38 61
M  V30 END BOND
M  V30 END CTAB
M  END
>  <Dataset>  (813) 
ChEMBL_Kinases

>  <Ligand_Instance>  (813) 
nan

>  <PDB_ID>  (813) 
nan

>  <Standardized_SMILES>  (813) 
COc1cc(C)c(-c2c3c4cc(OC)c(O)cc4oc(=O)c3n3ccc4cc(O)c(OC)cc4c23)cc1O

>  <Name>  (813) 
nan

>  <Pocket>  (813) 
nan

>  <ATP_Site>  (813) 
nan

>  <Peripheral>  (813) 
nan

>  <Num_H_Atoms_ProtBoundConf>  (813) 
nan

>  <Num_Resolved_Atoms>  (813) 
nan

>  <Num_Not_Resolved_Atoms>  (813) 
nan

$$$$
CHEMBL4747934
     RDKit          3D

  0  0  0  0  0  0  0  0  0  0999 V3000
M  V30 BEGIN CTAB
M  V30 COUNTS 64 70 0 0 0
M  V30 BEGIN ATOM
M  V30 1 O 3.055344 0.961953 1.014824 0
M  V30 2 C 3.354447 0.226237 0.026795 0
M  V30 3 C 4.103193 -1.068859 -0.037994 0
M  V30 4 C 4.544968 -1.507716 1.342220 0
M  V30 5 C 5.300806 -2.824269 1.237083 0
M  V30 6 C 5.555525 -3.371311 2.644755 0
M  V30 7 N 5.636679 -2.242559 3.568037 0
M  V30 8 C 6.347163 -1.152694 2.963877 0
M  V30 9 C 5.463330 -0.483842 1.947096 0
M  V30 10 N 2.872993 0.773909 -1.188113 0
M  V30 11 C 2.173099 2.017784 -0.980104 0
M  V30 12 C 2.920978 3.175671 -1.028431 0
M  V30 13 N 2.218229 4.315572 -0.827031 0
M  V30 14 C 0.893731 4.315688 -0.597855 0
M  V30 15 C 0.142326 3.161279 -0.548711 0
M  V30 16 C -1.293080 3.097519 -0.304734 0
M  V30 17 C -2.067830 4.217430 -0.092143 0
M  V30 18 C -3.430617 4.197639 0.142239 0
M  V30 19 C -4.036100 2.952353 0.159610 0
M  V30 20 N -5.333143 2.646963 0.362463 0
M  V30 21 N -5.398176 1.328103 0.281109 0
M  V30 22 C -4.178609 0.800093 0.033155 0
M  V30 23 C -3.873663 -0.618476 -0.119109 0
M  V30 24 N -4.753076 -1.633171 -0.038370 0
M  V30 25 C -4.119579 -2.805948 -0.230154 0
M  V30 26 C -4.628431 -4.087427 -0.232237 0
M  V30 27 C -6.040247 -4.368150 -0.008605 0
M  V30 28 C -6.759592 -3.770418 0.988045 0
M  V30 29 C -8.146044 -4.142294 1.092203 0
M  V30 30 S -8.394185 -5.394963 -0.303292 0
M  V30 31 C -6.694509 -5.289104 -0.848245 0
M  V30 32 N -3.788411 -5.113523 -0.449428 0
M  V30 33 C -2.461147 -4.918492 -0.665037 0
M  V30 34 C -1.958877 -3.615750 -0.660358 0
M  V30 35 C -2.795872 -2.516388 -0.438561 0
M  V30 36 N -2.681462 -1.191471 -0.365339 0
M  V30 37 C -3.260554 1.830968 -0.053221 0
M  V30 38 N -1.955203 1.925415 -0.272392 0
M  V30 39 C 0.821756 1.978060 -0.749101 0
M  V30 40 H 4.974945 -0.987186 -0.699882 0
M  V30 41 H 3.447688 -1.864384 -0.433816 0
M  V30 42 H 3.680541 -1.703400 2.007044 0
M  V30 43 H 6.275568 -2.661709 0.766338 0
M  V30 44 H 4.731606 -3.557546 0.665824 0
M  V30 45 H 6.510233 -3.904771 2.627551 0
M  V30 46 H 4.761994 -4.091517 2.919553 0
M  V30 47 H 4.669528 -1.960834 3.849110 0
M  V30 48 H 6.714287 -0.423328 3.723324 0
M  V30 49 H 7.228433 -1.555363 2.398047 0
M  V30 50 H 6.078760 0.035695 1.183414 0
M  V30 51 H 4.827397 0.309259 2.392742 0
M  V30 52 H 2.998113 0.342381 -2.147417 0
M  V30 53 H 3.978029 3.236531 -1.207007 0
M  V30 54 H 0.383244 5.252172 -0.443845 0
M  V30 55 H -1.622144 5.198064 -0.100425 0
M  V30 56 H -3.987535 5.110562 0.302666 0
M  V30 57 H -6.142959 3.262104 0.545684 0
M  V30 58 H -6.371518 -3.054523 1.688303 0
M  V30 59 H -8.834536 -3.719863 1.867837 0
M  V30 60 H -6.312015 -5.835606 -1.650871 0
M  V30 61 H -1.778107 -5.749498 -0.841485 0
M  V30 62 H -0.903993 -3.400296 -0.827488 0
M  V30 63 H -1.775226 -0.691106 -0.486872 0
M  V30 64 H 0.321976 1.022972 -0.729560 0
M  V30 END ATOM
M  V30 BEGIN BOND
M  V30 1 2 1 2
M  V30 2 1 2 3
M  V30 3 1 3 4
M  V30 4 1 4 5
M  V30 5 1 5 6
M  V30 6 1 6 7
M  V30 7 1 7 8
M  V30 8 1 8 9
M  V30 9 1 2 10
M  V30 10 1 10 11
M  V30 11 2 11 12
M  V30 12 1 12 13
M  V30 13 2 13 14
M  V30 14 1 14 15
M  V30 15 1 15 16
M  V30 16 2 16 17
M  V30 17 1 17 18
M  V30 18 2 18 19
M  V30 19 1 19 20
M  V30 20 1 20 21
M  V30 21 2 21 22
M  V30 22 1 22 23
M  V30 23 2 23 24
M  V30 24 1 24 25
M  V30 25 2 25 26
M  V30 26 1 26 27
M  V30 27 1 27 28
M  V30 28 2 28 29
M  V30 29 1 29 30
M  V30 30 1 30 31
M  V30 31 1 26 32
M  V30 32 2 32 33
M  V30 33 1 33 34
M  V30 34 2 34 35
M  V30 35 1 35 36
M  V30 36 1 22 37
M  V30 37 2 37 38
M  V30 38 2 15 39
M  V30 39 1 9 4
M  V30 40 1 39 11
M  V30 41 1 38 16
M  V30 42 1 37 19
M  V30 43 1 36 23
M  V30 44 1 35 25
M  V30 45 2 31 27
M  V30 46 1 3 40
M  V30 47 1 3 41
M  V30 48 1 4 42
M  V30 49 1 5 43
M  V30 50 1 5 44
M  V30 51 1 6 45
M  V30 52 1 6 46
M  V30 53 1 7 47
M  V30 54 1 8 48
M  V30 55 1 8 49
M  V30 56 1 9 50
M  V30 57 1 9 51
M  V30 58 1 10 52
M  V30 59 1 12 53
M  V30 60 1 14 54
M  V30 61 1 17 55
M  V30 62 1 18 56
M  V30 63 1 20 57
M  V30 64 1 28 58
M  V30 65 1 29 59
M  V30 66 1 31 60
M  V30 67 1 33 61
M  V30 68 1 34 62
M  V30 69 1 36 63
M  V30 70 1 39 64
M  V30 END BOND
M  V30 END CTAB
M  END
>  <Dataset>  (814) 
ChEMBL_Kinases

>  <Ligand_Instance>  (814) 
nan

>  <PDB_ID>  (814) 
nan

>  <Standardized_SMILES>  (814) 
O=C(CC1CCNCC1)Nc1cncc(-c2ccc3[nH]nc(-c4nc5c(-c6ccsc6)nccc5[nH]4)c3n2)c1

>  <Name>  (814) 
nan

>  <Pocket>  (814) 
nan

>  <ATP_Site>  (814) 
nan

>  <Peripheral>  (814) 
nan

>  <Num_H_Atoms_ProtBoundConf>  (814) 
nan

>  <Num_Resolved_Atoms>  (814) 
nan

>  <Num_Not_Resolved_Atoms>  (814) 
nan

$$$$
CHEMBL4747931
     RDKit          3D

  0  0  0  0  0  0  0  0  0  0999 V3000
M  V30 BEGIN CTAB
M  V30 COUNTS 60 66 0 0 0
M  V30 BEGIN ATOM
M  V30 1 O 6.884190 -0.837397 2.132579 0
M  V30 2 C 5.784180 -1.367672 2.430662 0
M  V30 3 N 4.625035 -0.719344 2.009925 0
M  V30 4 C 4.430761 0.475781 1.277014 0
M  V30 5 C 5.404050 1.296413 0.785082 0
M  V30 6 N 5.202352 2.430140 0.092245 0
M  V30 7 C 3.959954 2.865701 -0.183948 0
M  V30 8 C 2.936875 2.071883 0.291230 0
M  V30 9 C 1.553398 2.469133 0.038549 0
M  V30 10 C 1.248943 3.828350 -0.035506 0
M  V30 11 C -0.055941 4.214924 -0.273022 0
M  V30 12 C -1.022221 3.247953 -0.430523 0
M  V30 13 N -2.340673 3.292635 -0.665404 0
M  V30 14 N -2.833150 2.075667 -0.734988 0
M  V30 15 C -1.887716 1.128736 -0.553108 0
M  V30 16 C -2.117335 -0.290578 -0.573184 0
M  V30 17 N -3.338702 -0.813347 -0.783138 0
M  V30 18 C -3.287787 -2.138892 -0.754930 0
M  V30 19 C -4.315803 -3.074612 -0.925034 0
M  V30 20 C -5.693942 -2.605800 -1.176613 0
M  V30 21 C -6.301308 -1.586501 -0.470832 0
M  V30 22 C -7.597529 -1.203362 -0.767228 0
M  V30 23 C -8.316292 -1.833152 -1.778594 0
M  V30 24 F -9.579644 -1.389363 -1.996626 0
M  V30 25 C -7.691531 -2.860365 -2.483152 0
M  V30 26 C -6.401204 -3.245868 -2.192317 0
M  V30 27 C -3.944273 -4.400889 -0.840289 0
M  V30 28 N -2.666608 -4.750193 -0.607785 0
M  V30 29 C -1.661814 -3.864345 -0.441161 0
M  V30 30 C -1.994329 -2.548687 -0.518743 0
M  V30 31 N -1.352187 -1.374134 -0.421335 0
M  V30 32 C -0.766204 1.908189 -0.365342 0
M  V30 33 C 0.539246 1.551252 -0.128177 0
M  V30 34 C 3.155250 0.909435 1.001692 0
M  V30 35 C 5.781714 -2.638044 3.204022 0
M  V30 36 C 5.140365 -3.782758 2.492167 0
M  V30 37 C 4.016961 -3.787624 3.492544 0
M  V30 38 C 4.752678 -2.728105 4.280936 0
M  V30 39 H 3.748104 -1.242669 2.309240 0
M  V30 40 H 6.439483 1.049503 0.944122 0
M  V30 41 H 3.799771 3.762723 -0.732152 0
M  V30 42 H 2.003614 4.591946 0.087131 0
M  V30 43 H -0.350480 5.271964 -0.340835 0
M  V30 44 H -2.958373 4.128933 -0.787567 0
M  V30 45 H -5.685234 -1.133915 0.308343 0
M  V30 46 H -7.955309 -0.387781 -0.134877 0
M  V30 47 H -8.296913 -3.318561 -3.262049 0
M  V30 48 H -5.948096 -4.050834 -2.764250 0
M  V30 49 H -4.722990 -5.148019 -0.968511 0
M  V30 50 H -0.636941 -4.101464 -0.255077 0
M  V30 51 H -0.331498 -1.379818 -0.239732 0
M  V30 52 H 0.831883 0.541530 -0.061002 0
M  V30 53 H 2.292139 0.329879 1.347388 0
M  V30 54 H 6.785828 -2.839977 3.638731 0
M  V30 55 H 4.822725 -3.474754 1.464436 0
M  V30 56 H 5.728543 -4.735936 2.499011 0
M  V30 57 H 3.049662 -3.478124 3.044129 0
M  V30 58 H 3.882112 -4.744939 4.038404 0
M  V30 59 H 4.104481 -1.838354 4.414954 0
M  V30 60 H 5.104404 -3.071461 5.287363 0
M  V30 END ATOM
M  V30 BEGIN BOND
M  V30 1 2 1 2
M  V30 2 1 2 3
M  V30 3 1 3 4
M  V30 4 2 4 5
M  V30 5 1 5 6
M  V30 6 2 6 7
M  V30 7 1 7 8
M  V30 8 1 8 9
M  V30 9 2 9 10
M  V30 10 1 10 11
M  V30 11 2 11 12
M  V30 12 1 12 13
M  V30 13 1 13 14
M  V30 14 2 14 15
M  V30 15 1 15 16
M  V30 16 2 16 17
M  V30 17 1 17 18
M  V30 18 2 18 19
M  V30 19 1 19 20
M  V30 20 2 20 21
M  V30 21 1 21 22
M  V30 22 2 22 23
M  V30 23 1 23 24
M  V30 24 1 23 25
M  V30 25 2 25 26
M  V30 26 1 19 27
M  V30 27 2 27 28
M  V30 28 1 28 29
M  V30 29 2 29 30
M  V30 30 1 30 31
M  V30 31 1 15 32
M  V30 32 2 32 33
M  V30 33 2 8 34
M  V30 34 1 2 35
M  V30 35 1 35 36
M  V30 36 1 36 37
M  V30 37 1 37 38
M  V30 38 1 34 4
M  V30 39 1 38 35
M  V30 40 1 33 9
M  V30 41 1 32 12
M  V30 42 1 31 16
M  V30 43 1 30 18
M  V30 44 1 26 20
M  V30 45 1 3 39
M  V30 46 1 5 40
M  V30 47 1 7 41
M  V30 48 1 10 42
M  V30 49 1 11 43
M  V30 50 1 13 44
M  V30 51 1 21 45
M  V30 52 1 22 46
M  V30 53 1 25 47
M  V30 54 1 26 48
M  V30 55 1 27 49
M  V30 56 1 29 50
M  V30 57 1 31 51
M  V30 58 1 33 52
M  V30 59 1 34 53
M  V30 60 1 35 54
M  V30 61 1 36 55
M  V30 62 1 36 56
M  V30 63 1 37 57
M  V30 64 1 37 58
M  V30 65 1 38 59
M  V30 66 1 38 60
M  V30 END BOND
M  V30 END CTAB
M  END
>  <Dataset>  (815) 
ChEMBL_Kinases

>  <Ligand_Instance>  (815) 
nan

>  <PDB_ID>  (815) 
nan

>  <Standardized_SMILES>  (815) 
O=C(Nc1cncc(-c2ccc3[nH]nc(-c4nc5c(-c6ccc(F)cc6)cncc5[nH]4)c3c2)c1)C1CCC1

>  <Name>  (815) 
nan

>  <Pocket>  (815) 
nan

>  <ATP_Site>  (815) 
nan

>  <Peripheral>  (815) 
nan

>  <Num_H_Atoms_ProtBoundConf>  (815) 
nan

>  <Num_Resolved_Atoms>  (815) 
nan

>  <Num_Not_Resolved_Atoms>  (815) 
nan

$$$$
CHEMBL4747922
     RDKit          3D

  0  0  0  0  0  0  0  0  0  0999 V3000
M  V30 BEGIN CTAB
M  V30 COUNTS 48 53 0 0 0
M  V30 BEGIN ATOM
M  V30 1 N 4.540969 -3.481679 -3.650098 0
M  V30 2 C 3.636658 -3.266942 -2.571526 0
M  V30 3 C 2.512122 -4.060120 -2.338827 0
M  V30 4 N 1.673770 -3.835074 -1.312174 0
M  V30 5 C 1.860341 -2.827759 -0.435604 0
M  V30 6 C 2.967178 -2.010632 -0.626562 0
M  V30 7 C 3.130294 -0.923111 0.355106 0
M  V30 8 C 4.395015 -0.471005 0.701030 0
M  V30 9 C 4.499652 0.546256 1.621885 0
M  V30 10 C 3.367933 1.100007 2.184913 0
M  V30 11 N 3.129440 2.072271 3.082805 0
M  V30 12 N 1.847672 2.209277 3.274189 0
M  V30 13 C 1.122933 1.355023 2.533849 0
M  V30 14 C -0.319238 1.274227 2.535292 0
M  V30 15 C -1.274612 0.527140 1.903828 0
M  V30 16 C -2.553770 0.870553 2.283343 0
M  V30 17 C -3.785618 0.382952 1.900082 0
M  V30 18 C -3.923305 -0.691897 0.923676 0
M  V30 19 C -3.273926 -1.901901 0.798805 0
M  V30 20 C -3.615885 -2.728577 -0.250560 0
M  V30 21 N -4.554111 -2.411209 -1.159755 0
M  V30 22 C -5.202730 -1.233904 -1.058491 0
M  V30 23 C -4.901495 -0.355263 -0.019731 0
M  V30 24 N -4.862535 0.957209 2.475851 0
M  V30 25 C -4.773411 1.947645 3.373435 0
M  V30 26 C -3.526902 2.418793 3.741291 0
M  V30 27 C -2.374289 1.885427 3.198821 0
M  V30 28 N -1.051736 2.089054 3.315955 0
M  V30 29 C 2.096862 0.668447 1.857941 0
M  V30 30 C 2.024337 -0.347072 0.937060 0
M  V30 31 C 3.841683 -2.228010 -1.679285 0
M  V30 32 H 4.025368 -3.711340 -4.534311 0
M  V30 33 H 4.243456 -3.724517 -4.629889 0
M  V30 34 H 2.344400 -4.876899 -3.034198 0
M  V30 35 H 1.125785 -2.746944 0.342685 0
M  V30 36 H 5.290898 -0.912357 0.252559 0
M  V30 37 H 5.452244 0.948281 1.938517 0
M  V30 38 H 3.842785 2.653907 3.575383 0
M  V30 39 H -1.066273 -0.240067 1.190344 0
M  V30 40 H -2.558138 -2.051396 1.569535 0
M  V30 41 H -3.057567 -3.672740 -0.285182 0
M  V30 42 H -5.949074 -1.029813 -1.818644 0
M  V30 43 H -5.496871 0.544852 -0.064111 0
M  V30 44 H -5.676197 2.357726 3.791161 0
M  V30 45 H -3.427559 3.206538 4.453813 0
M  V30 46 H -0.761825 2.840038 3.985479 0
M  V30 47 H 1.070834 -0.729544 0.638422 0
M  V30 48 H 4.688461 -1.553060 -1.773382 0
M  V30 END ATOM
M  V30 BEGIN BOND
M  V30 1 1 1 2
M  V30 2 2 2 3
M  V30 3 1 3 4
M  V30 4 2 4 5
M  V30 5 1 5 6
M  V30 6 1 6 7
M  V30 7 2 7 8
M  V30 8 1 8 9
M  V30 9 2 9 10
M  V30 10 1 10 11
M  V30 11 1 11 12
M  V30 12 2 12 13
M  V30 13 1 13 14
M  V30 14 2 14 15
M  V30 15 1 15 16
M  V30 16 2 16 17
M  V30 17 1 17 18
M  V30 18 2 18 19
M  V30 19 1 19 20
M  V30 20 2 20 21
M  V30 21 1 21 22
M  V30 22 2 22 23
M  V30 23 1 17 24
M  V30 24 2 24 25
M  V30 25 1 25 26
M  V30 26 2 26 27
M  V30 27 1 27 28
M  V30 28 1 13 29
M  V30 29 2 29 30
M  V30 30 2 6 31
M  V30 31 1 31 2
M  V30 32 1 30 7
M  V30 33 1 29 10
M  V30 34 1 28 14
M  V30 35 1 27 16
M  V30 36 1 23 18
M  V30 37 1 1 32
M  V30 38 1 1 33
M  V30 39 1 3 34
M  V30 40 1 5 35
M  V30 41 1 8 36
M  V30 42 1 9 37
M  V30 43 1 11 38
M  V30 44 1 15 39
M  V30 45 1 19 40
M  V30 46 1 20 41
M  V30 47 1 22 42
M  V30 48 1 23 43
M  V30 49 1 25 44
M  V30 50 1 26 45
M  V30 51 1 28 46
M  V30 52 1 30 47
M  V30 53 1 31 48
M  V30 END BOND
M  V30 END CTAB
M  END
>  <Dataset>  (816) 
ChEMBL_Kinases

>  <Ligand_Instance>  (816) 
nan

>  <PDB_ID>  (816) 
nan

>  <Standardized_SMILES>  (816) 
Nc1cncc(-c2ccc3[nH]nc(-c4cc5c(-c6ccncc6)nccc5[nH]4)c3c2)c1

>  <Name>  (816) 
nan

>  <Pocket>  (816) 
nan

>  <ATP_Site>  (816) 
nan

>  <Peripheral>  (816) 
nan

>  <Num_H_Atoms_ProtBoundConf>  (816) 
nan

>  <Num_Resolved_Atoms>  (816) 
nan

>  <Num_Not_Resolved_Atoms>  (816) 
nan

$$$$
CHEMBL4747908
     RDKit          3D

  0  0  0  0  0  0  0  0  0  0999 V3000
M  V30 BEGIN CTAB
M  V30 COUNTS 49 53 0 0 0
M  V30 BEGIN ATOM
M  V30 1 O 2.471011 2.263461 1.113923 0
M  V30 2 C 1.572883 1.348438 1.157908 0
M  V30 3 N 2.250595 0.156386 0.923819 0
M  V30 4 C 3.656663 0.261131 0.713347 0
M  V30 5 C 4.622247 0.201299 1.711070 0
M  V30 6 C 5.956397 0.320654 1.337233 0
M  V30 7 C 6.345120 0.496578 0.003404 0
M  V30 8 O 7.724975 0.586896 -0.096291 0
M  V30 9 C 8.421699 0.767210 -1.313869 0
M  V30 10 F 9.359729 1.776396 -1.229858 0
M  V30 11 F 9.157756 -0.415677 -1.476519 0
M  V30 12 C 5.364855 0.552349 -0.966375 0
M  V30 13 C 4.035171 0.435137 -0.608704 0
M  V30 14 C 0.214954 1.761505 1.416121 0
M  V30 15 N -0.004422 3.081971 1.591215 0
M  V30 16 N -1.306870 3.278765 1.817691 0
M  V30 17 C -1.999910 2.128668 1.804712 0
M  V30 18 C -3.311400 1.738481 1.970278 0
M  V30 19 C -3.583631 0.389602 1.869820 0
M  V30 20 C -2.621992 -0.573188 1.615541 0
M  V30 21 C -2.960465 -1.993334 1.513332 0
M  V30 22 C -2.136179 -2.867188 2.195894 0
M  V30 23 N -2.560196 -4.121369 2.010511 0
M  V30 24 C -3.643261 -4.060979 1.219375 0
M  V30 25 N -3.901777 -2.773317 0.906747 0
M  V30 26 C -4.959003 -2.220743 0.084054 0
M  V30 27 C -5.807608 -3.325222 -0.458764 0
M  V30 28 N -5.153568 -4.588131 -0.606245 0
M  V30 29 C -4.580623 -5.073370 0.635741 0
M  V30 30 C -1.327644 -0.135783 1.457751 0
M  V30 31 C -1.024043 1.189597 1.550803 0
M  V30 32 H 1.616622 -0.668690 0.935630 0
M  V30 33 H 4.277352 0.066838 2.706658 0
M  V30 34 H 6.613948 0.259549 2.192898 0
M  V30 35 H 7.788570 0.834460 -2.200954 0
M  V30 36 H 5.775681 0.689873 -1.955639 0
M  V30 37 H 3.360359 0.495113 -1.463154 0
M  V30 38 H -1.715872 4.221743 1.982554 0
M  V30 39 H -4.047975 2.504202 2.167992 0
M  V30 40 H -4.623040 0.126622 2.007956 0
M  V30 41 H -1.254090 -2.744552 2.823410 0
M  V30 42 H -5.638970 -1.537325 0.636249 0
M  V30 43 H -4.530824 -1.609806 -0.755512 0
M  V30 44 H -6.704448 -3.454526 0.177479 0
M  V30 45 H -6.170753 -3.041511 -1.482970 0
M  V30 46 H -4.505903 -4.658130 -1.401668 0
M  V30 47 H -3.963682 -5.960130 0.379934 0
M  V30 48 H -5.359261 -5.347044 1.366868 0
M  V30 49 H -0.596278 -0.870363 1.264203 0
M  V30 END ATOM
M  V30 BEGIN BOND
M  V30 1 2 1 2
M  V30 2 1 2 3
M  V30 3 1 3 4
M  V30 4 2 4 5
M  V30 5 1 5 6
M  V30 6 2 6 7
M  V30 7 1 7 8
M  V30 8 1 8 9
M  V30 9 1 9 10
M  V30 10 1 9 11
M  V30 11 1 7 12
M  V30 12 2 12 13
M  V30 13 1 2 14
M  V30 14 2 14 15
M  V30 15 1 15 16
M  V30 16 1 16 17
M  V30 17 2 17 18
M  V30 18 1 18 19
M  V30 19 2 19 20
M  V30 20 1 20 21
M  V30 21 2 21 22
M  V30 22 1 22 23
M  V30 23 2 23 24
M  V30 24 1 24 25
M  V30 25 1 25 26
M  V30 26 1 26 27
M  V30 27 1 27 28
M  V30 28 1 28 29
M  V30 29 1 20 30
M  V30 30 2 30 31
M  V30 31 1 13 4
M  V30 32 1 31 14
M  V30 33 1 31 17
M  V30 34 1 25 21
M  V30 35 1 29 24
M  V30 36 1 3 32
M  V30 37 1 5 33
M  V30 38 1 6 34
M  V30 39 1 9 35
M  V30 40 1 12 36
M  V30 41 1 13 37
M  V30 42 1 16 38
M  V30 43 1 18 39
M  V30 44 1 19 40
M  V30 45 1 22 41
M  V30 46 1 26 42
M  V30 47 1 26 43
M  V30 48 1 27 44
M  V30 49 1 27 45
M  V30 50 1 28 46
M  V30 51 1 29 47
M  V30 52 1 29 48
M  V30 53 1 30 49
M  V30 END BOND
M  V30 END CTAB
M  END
>  <Dataset>  (817) 
ChEMBL_Kinases

>  <Ligand_Instance>  (817) 
nan

>  <PDB_ID>  (817) 
nan

>  <Standardized_SMILES>  (817) 
O=C(Nc1ccc(OC(F)F)cc1)c1n[nH]c2ccc(-c3cnc4n3CCNC4)cc12

>  <Name>  (817) 
nan

>  <Pocket>  (817) 
nan

>  <ATP_Site>  (817) 
nan

>  <Peripheral>  (817) 
nan

>  <Num_H_Atoms_ProtBoundConf>  (817) 
nan

>  <Num_Resolved_Atoms>  (817) 
nan

>  <Num_Not_Resolved_Atoms>  (817) 
nan

$$$$
CHEMBL4747892
     RDKit          3D

  0  0  0  0  0  0  0  0  0  0999 V3000
M  V30 BEGIN CTAB
M  V30 COUNTS 55 59 0 0 0
M  V30 BEGIN ATOM
M  V30 1 C 3.448739 3.385448 5.874883 0
M  V30 2 N 3.492919 2.443996 4.778939 0
M  V30 3 C 4.768144 2.270304 4.229656 0
M  V30 4 C 5.189760 0.894606 3.849748 0
M  V30 5 N 4.026851 0.268213 3.228175 0
M  V30 6 C 3.990082 -0.099241 1.853846 0
M  V30 7 C 2.901668 -0.686132 1.275596 0
M  V30 8 C 2.957859 -1.006793 -0.064293 0
M  V30 9 C 1.867412 -1.635650 -0.803901 0
M  V30 10 O 1.922498 -1.929085 -2.025580 0
M  V30 11 N 0.655156 -1.954940 -0.155550 0
M  V30 12 C -0.543848 -2.557381 -0.623880 0
M  V30 13 C -1.602668 -1.804331 -1.146835 0
M  V30 14 C -2.727942 -2.508399 -1.573817 0
M  V30 15 C -3.746837 -1.740895 -2.080645 0
M  V30 16 C -4.846269 -2.463634 -2.494735 0
M  V30 17 C -6.014196 -1.777038 -3.058913 0
M  V30 18 C -6.073569 -0.307464 -3.210353 0
M  V30 19 N -7.206828 0.117571 -3.737020 0
M  V30 20 C -8.118982 -0.522349 -4.076884 0
M  V30 21 N -9.390531 -0.154278 -4.658682 0
M  V30 22 S -7.574113 -2.325320 -3.686863 0
M  V30 23 C -4.998465 -3.832669 -2.443409 0
M  V30 24 C -3.919426 -4.551094 -1.914739 0
M  V30 25 C -2.771704 -3.884120 -1.474969 0
M  V30 26 C -1.709785 -4.594929 -0.954347 0
M  V30 27 N -0.605278 -3.910129 -0.534713 0
M  V30 28 C 4.108599 -0.733951 -0.809632 0
M  V30 29 C 5.172941 -0.139872 -0.165315 0
M  V30 30 N 5.098894 0.165271 1.141930 0
M  V30 31 C 2.972610 0.096768 4.207768 0
M  V30 32 C 2.594239 1.367866 4.891638 0
M  V30 33 H 2.553221 3.126724 6.469810 0
M  V30 34 H 3.410850 4.415334 5.469017 0
M  V30 35 H 4.349382 3.211008 6.499123 0
M  V30 36 H 5.516575 2.635761 4.993526 0
M  V30 37 H 4.975408 2.943323 3.346543 0
M  V30 38 H 6.036926 0.964052 3.137526 0
M  V30 39 H 5.444849 0.318140 4.756768 0
M  V30 40 H 2.020749 -0.900782 1.823846 0
M  V30 41 H 0.462904 -1.771326 0.853805 0
M  V30 42 H -1.516006 -0.726188 -1.201633 0
M  V30 43 H -3.732705 -0.663886 -2.166845 0
M  V30 44 H -5.296766 0.392738 -2.934312 0
M  V30 45 H -10.191039 0.208114 -4.084912 0
M  V30 46 H -9.638905 -0.206676 -5.667048 0
M  V30 47 H -5.854374 -4.363038 -2.768483 0
M  V30 48 H -3.974020 -5.626634 -1.846252 0
M  V30 49 H -1.762884 -5.679270 -0.884524 0
M  V30 50 H 4.178105 -0.979943 -1.878917 0
M  V30 51 H 6.111317 0.106490 -0.680008 0
M  V30 52 H 2.102332 -0.456080 3.802171 0
M  V30 53 H 3.411157 -0.614191 4.968691 0
M  V30 54 H 1.596493 1.685749 4.495761 0
M  V30 55 H 2.423579 1.149295 5.966491 0
M  V30 END ATOM
M  V30 BEGIN BOND
M  V30 1 1 1 2
M  V30 2 1 2 3
M  V30 3 1 3 4
M  V30 4 1 4 5
M  V30 5 1 5 6
M  V30 6 2 6 7
M  V30 7 1 7 8
M  V30 8 1 8 9
M  V30 9 2 9 10
M  V30 10 1 9 11
M  V30 11 1 11 12
M  V30 12 2 12 13
M  V30 13 1 13 14
M  V30 14 2 14 15
M  V30 15 1 15 16
M  V30 16 1 16 17
M  V30 17 2 17 18
M  V30 18 1 18 19
M  V30 19 2 19 20
M  V30 20 1 20 21
M  V30 21 1 20 22
M  V30 22 2 16 23
M  V30 23 1 23 24
M  V30 24 2 24 25
M  V30 25 1 25 26
M  V30 26 2 26 27
M  V30 27 2 8 28
M  V30 28 1 28 29
M  V30 29 2 29 30
M  V30 30 1 5 31
M  V30 31 1 31 32
M  V30 32 1 32 2
M  V30 33 1 30 6
M  V30 34 1 27 12
M  V30 35 1 25 14
M  V30 36 1 22 17
M  V30 37 1 1 33
M  V30 38 1 1 34
M  V30 39 1 1 35
M  V30 40 1 3 36
M  V30 41 1 3 37
M  V30 42 1 4 38
M  V30 43 1 4 39
M  V30 44 1 7 40
M  V30 45 1 11 41
M  V30 46 1 13 42
M  V30 47 1 15 43
M  V30 48 1 18 44
M  V30 49 1 21 45
M  V30 50 1 21 46
M  V30 51 1 23 47
M  V30 52 1 24 48
M  V30 53 1 26 49
M  V30 54 1 28 50
M  V30 55 1 29 51
M  V30 56 1 31 52
M  V30 57 1 31 53
M  V30 58 1 32 54
M  V30 59 1 32 55
M  V30 END BOND
M  V30 END CTAB
M  END
>  <Dataset>  (818) 
ChEMBL_Kinases

>  <Ligand_Instance>  (818) 
nan

>  <PDB_ID>  (818) 
nan

>  <Standardized_SMILES>  (818) 
CN1CCN(c2cc(C(=O)Nc3cc4cc(-c5cnc(N)s5)ccc4cn3)ccn2)CC1

>  <Name>  (818) 
nan

>  <Pocket>  (818) 
nan

>  <ATP_Site>  (818) 
nan

>  <Peripheral>  (818) 
nan

>  <Num_H_Atoms_ProtBoundConf>  (818) 
nan

>  <Num_Resolved_Atoms>  (818) 
nan

>  <Num_Not_Resolved_Atoms>  (818) 
nan

$$$$
CHEMBL4747803
     RDKit          3D

  0  0  0  0  0  0  0  0  0  0999 V3000
M  V30 BEGIN CTAB
M  V30 COUNTS 51 56 0 0 0
M  V30 BEGIN ATOM
M  V30 1 C -0.764087 -4.401455 -1.138059 0
M  V30 2 N 0.593624 -4.079288 -0.741365 0
M  V30 3 C 0.540233 -3.543296 0.595316 0
M  V30 4 C 1.823048 -2.950186 1.058871 0
M  V30 5 N 2.590154 -2.273853 0.037483 0
M  V30 6 C 3.349041 -1.076036 0.196810 0
M  V30 7 C 4.708613 -1.103199 -0.031927 0
M  V30 8 C 5.366801 0.098251 0.147480 0
M  V30 9 N 4.752691 1.233767 0.519161 0
M  V30 10 C 3.426961 1.285976 0.748341 0
M  V30 11 N 2.525391 2.211760 1.116412 0
M  V30 12 C 1.269842 1.722181 1.204400 0
M  V30 13 C 0.179926 2.588624 1.589314 0
M  V30 14 N 0.295652 3.894588 1.882294 0
M  V30 15 N -0.859860 4.435912 2.200931 0
M  V30 16 C -1.832681 3.513303 2.139953 0
M  V30 17 N -3.151851 3.567239 2.368970 0
M  V30 18 C -3.886091 2.457363 2.224309 0
M  V30 19 C -3.295734 1.248462 1.838935 0
M  V30 20 C -4.057005 0.017480 1.669451 0
M  V30 21 C -5.190304 -0.438397 2.326250 0
M  V30 22 N -5.497775 -1.629167 1.798681 0
M  V30 23 N -4.619730 -1.951479 0.842998 0
M  V30 24 C -3.718621 -0.947876 0.744850 0
M  V30 25 C -1.940178 1.247914 1.616603 0
M  V30 26 C -1.160488 2.371945 1.757229 0
M  V30 27 C 1.429704 0.411755 0.865389 0
M  V30 28 C 2.741868 0.101878 0.577432 0
M  V30 29 C 2.576081 -2.886314 -1.271282 0
M  V30 30 C 1.115277 -3.110621 -1.668213 0
M  V30 31 H -0.993004 -5.466938 -0.857237 0
M  V30 32 H -0.970118 -4.237630 -2.207146 0
M  V30 33 H -1.506016 -3.775190 -0.575502 0
M  V30 34 H -0.325170 -2.844184 0.646001 0
M  V30 35 H 0.309549 -4.416926 1.262609 0
M  V30 36 H 1.608109 -2.225408 1.869125 0
M  V30 37 H 2.504139 -3.752301 1.456478 0
M  V30 38 H 5.216179 -2.016149 -0.332932 0
M  V30 39 H 6.447423 0.125979 -0.022629 0
M  V30 40 H 2.910766 3.170278 1.282513 0
M  V30 41 H -0.920754 5.441298 2.451157 0
M  V30 42 H -4.962301 2.466419 2.402735 0
M  V30 43 H -5.660082 0.138597 3.104865 0
M  V30 44 H -4.733315 -2.863234 0.336000 0
M  V30 45 H -2.911332 -1.005690 0.023866 0
M  V30 46 H -1.476451 0.327100 1.320408 0
M  V30 47 H 0.649212 -0.297525 0.822586 0
M  V30 48 H 3.045483 -3.909609 -1.228799 0
M  V30 49 H 3.091364 -2.272122 -2.021093 0
M  V30 50 H 0.521703 -2.184635 -1.546566 0
M  V30 51 H 1.091817 -3.546065 -2.678794 0
M  V30 END ATOM
M  V30 BEGIN BOND
M  V30 1 1 1 2
M  V30 2 1 2 3
M  V30 3 1 3 4
M  V30 4 1 4 5
M  V30 5 1 5 6
M  V30 6 2 6 7
M  V30 7 1 7 8
M  V30 8 2 8 9
M  V30 9 1 9 10
M  V30 10 1 10 11
M  V30 11 1 11 12
M  V30 12 1 12 13
M  V30 13 2 13 14
M  V30 14 1 14 15
M  V30 15 1 15 16
M  V30 16 2 16 17
M  V30 17 1 17 18
M  V30 18 2 18 19
M  V30 19 1 19 20
M  V30 20 1 20 21
M  V30 21 2 21 22
M  V30 22 1 22 23
M  V30 23 1 23 24
M  V30 24 1 19 25
M  V30 25 2 25 26
M  V30 26 2 12 27
M  V30 27 1 27 28
M  V30 28 1 5 29
M  V30 29 1 29 30
M  V30 30 1 30 2
M  V30 31 1 28 6
M  V30 32 2 28 10
M  V30 33 1 26 13
M  V30 34 1 26 16
M  V30 35 2 24 20
M  V30 36 1 1 31
M  V30 37 1 1 32
M  V30 38 1 1 33
M  V30 39 1 3 34
M  V30 40 1 3 35
M  V30 41 1 4 36
M  V30 42 1 4 37
M  V30 43 1 7 38
M  V30 44 1 8 39
M  V30 45 1 11 40
M  V30 46 1 15 41
M  V30 47 1 18 42
M  V30 48 1 21 43
M  V30 49 1 23 44
M  V30 50 1 24 45
M  V30 51 1 25 46
M  V30 52 1 27 47
M  V30 53 1 29 48
M  V30 54 1 29 49
M  V30 55 1 30 50
M  V30 56 1 30 51
M  V30 END BOND
M  V30 END CTAB
M  END
>  <Dataset>  (819) 
ChEMBL_Kinases

>  <Ligand_Instance>  (819) 
nan

>  <PDB_ID>  (819) 
nan

>  <Standardized_SMILES>  (819) 
CN1CCN(c2ccnc3[nH]c(-c4n[nH]c5ncc(-c6cn[nH]c6)cc45)cc23)CC1

>  <Name>  (819) 
nan

>  <Pocket>  (819) 
nan

>  <ATP_Site>  (819) 
nan

>  <Peripheral>  (819) 
nan

>  <Num_H_Atoms_ProtBoundConf>  (819) 
nan

>  <Num_Resolved_Atoms>  (819) 
nan

>  <Num_Not_Resolved_Atoms>  (819) 
nan

$$$$
CHEMBL4747741
     RDKit          3D

  0  0  0  0  0  0  0  0  0  0999 V3000
M  V30 BEGIN CTAB
M  V30 COUNTS 57 61 0 0 0
M  V30 BEGIN ATOM
M  V30 1 O 5.557269 2.416192 0.005619 0
M  V30 2 C 4.462268 1.880083 0.398257 0
M  V30 3 N 4.851630 0.819508 1.237606 0
M  V30 4 C 6.212698 0.568826 1.467021 0
M  V30 5 C 6.865969 1.178061 2.517557 0
M  V30 6 N 8.187158 0.947100 2.756042 0
M  V30 7 C 8.854050 0.099318 1.933778 0
M  V30 8 C 8.175789 -0.508704 0.874729 0
M  V30 9 N 6.865124 -0.272811 0.646883 0
M  V30 10 C 3.228761 2.450452 -0.078232 0
M  V30 11 N 3.325945 3.511376 -0.900556 0
M  V30 12 N 2.092866 3.908236 -1.242613 0
M  V30 13 C 1.136782 3.150693 -0.679572 0
M  V30 14 C -0.232020 3.106665 -0.682915 0
M  V30 15 C -0.865032 2.130982 0.058125 0
M  V30 16 C -0.111984 1.229191 0.779749 0
M  V30 17 C -0.802215 0.191287 1.566752 0
M  V30 18 C -0.258494 -0.312668 2.753998 0
M  V30 19 N -0.925191 -1.262469 3.440364 0
M  V30 20 C -2.113548 -1.704329 2.954182 0
M  V30 21 C -2.723207 -1.253064 1.778366 0
M  V30 22 C -4.014702 -1.838393 1.401547 0
M  V30 23 N -3.903597 -3.030753 0.592841 0
M  V30 24 C -5.250721 -3.470958 0.297942 0
M  V30 25 C -5.302090 -4.677089 -0.607735 0
M  V30 26 C -5.196141 -4.291324 -2.065397 0
M  V30 27 C -3.776746 -4.158465 -2.523748 0
M  V30 28 C -2.816278 -3.989828 -1.380152 0
M  V30 29 C -3.201483 -2.726122 -0.616952 0
M  V30 30 C -2.014174 -0.283459 1.104036 0
M  V30 31 C 1.265446 1.266923 0.788224 0
M  V30 32 C 1.878933 2.245126 0.044740 0
M  V30 33 H 4.032776 0.306843 1.618859 0
M  V30 34 H 6.332104 1.859381 3.178967 0
M  V30 35 H 9.899703 -0.162870 2.019946 0
M  V30 36 H 8.650233 -1.202662 0.172691 0
M  V30 37 H 1.932689 4.719953 -1.878106 0
M  V30 38 H -0.716123 3.869529 -1.289106 0
M  V30 39 H -1.946255 2.132927 0.027008 0
M  V30 40 H 0.696944 0.121047 3.037791 0
M  V30 41 H -2.572672 -2.466489 3.574584 0
M  V30 42 H -4.693426 -1.085883 0.950971 0
M  V30 43 H -4.544014 -2.170653 2.341073 0
M  V30 44 H -5.792569 -3.689539 1.241442 0
M  V30 45 H -5.781594 -2.640754 -0.211356 0
M  V30 46 H -4.635184 -5.486666 -0.313210 0
M  V30 47 H -6.345018 -5.095602 -0.485804 0
M  V30 48 H -5.765271 -4.992393 -2.710660 0
M  V30 49 H -5.751742 -3.312935 -2.149910 0
M  V30 50 H -3.691731 -3.212516 -3.135194 0
M  V30 51 H -3.466989 -4.957121 -3.225957 0
M  V30 52 H -2.740937 -4.876900 -0.733891 0
M  V30 53 H -1.796952 -3.885628 -1.854853 0
M  V30 54 H -3.827250 -2.045582 -1.228578 0
M  V30 55 H -2.232165 -2.201142 -0.428535 0
M  V30 56 H -2.458539 0.087930 0.195097 0
M  V30 57 H 1.822931 0.554389 1.357334 0
M  V30 END ATOM
M  V30 BEGIN BOND
M  V30 1 2 1 2
M  V30 2 1 2 3
M  V30 3 1 3 4
M  V30 4 2 4 5
M  V30 5 1 5 6
M  V30 6 2 6 7
M  V30 7 1 7 8
M  V30 8 2 8 9
M  V30 9 1 2 10
M  V30 10 2 10 11
M  V30 11 1 11 12
M  V30 12 1 12 13
M  V30 13 2 13 14
M  V30 14 1 14 15
M  V30 15 2 15 16
M  V30 16 1 16 17
M  V30 17 2 17 18
M  V30 18 1 18 19
M  V30 19 2 19 20
M  V30 20 1 20 21
M  V30 21 1 21 22
M  V30 22 1 22 23
M  V30 23 1 23 24
M  V30 24 1 24 25
M  V30 25 1 25 26
M  V30 26 1 26 27
M  V30 27 1 27 28
M  V30 28 1 28 29
M  V30 29 2 21 30
M  V30 30 1 16 31
M  V30 31 2 31 32
M  V30 32 1 9 4
M  V30 33 1 32 10
M  V30 34 1 32 13
M  V30 35 1 30 17
M  V30 36 1 29 23
M  V30 37 1 3 33
M  V30 38 1 5 34
M  V30 39 1 7 35
M  V30 40 1 8 36
M  V30 41 1 12 37
M  V30 42 1 14 38
M  V30 43 1 15 39
M  V30 44 1 18 40
M  V30 45 1 20 41
M  V30 46 1 22 42
M  V30 47 1 22 43
M  V30 48 1 24 44
M  V30 49 1 24 45
M  V30 50 1 25 46
M  V30 51 1 25 47
M  V30 52 1 26 48
M  V30 53 1 26 49
M  V30 54 1 27 50
M  V30 55 1 27 51
M  V30 56 1 28 52
M  V30 57 1 28 53
M  V30 58 1 29 54
M  V30 59 1 29 55
M  V30 60 1 30 56
M  V30 61 1 31 57
M  V30 END BOND
M  V30 END CTAB
M  END
>  <Dataset>  (820) 
ChEMBL_Kinases

>  <Ligand_Instance>  (820) 
nan

>  <PDB_ID>  (820) 
nan

>  <Standardized_SMILES>  (820) 
O=C(Nc1cnccn1)c1n[nH]c2ccc(-c3cncc(CN4CCCCCC4)c3)cc12

>  <Name>  (820) 
nan

>  <Pocket>  (820) 
nan

>  <ATP_Site>  (820) 
nan

>  <Peripheral>  (820) 
nan

>  <Num_H_Atoms_ProtBoundConf>  (820) 
nan

>  <Num_Resolved_Atoms>  (820) 
nan

>  <Num_Not_Resolved_Atoms>  (820) 
nan

$$$$
CHEMBL4748781
     RDKit          3D

  0  0  0  0  0  0  0  0  0  0999 V3000
M  V30 BEGIN CTAB
M  V30 COUNTS 60 64 0 0 0
M  V30 BEGIN ATOM
M  V30 1 C 1.591554 -6.091983 2.793703 0
M  V30 2 C 0.990452 -5.145247 1.820111 0
M  V30 3 C 0.509559 -3.905127 2.213592 0
M  V30 4 C -0.023346 -3.116864 1.228827 0
M  V30 5 C -0.530443 -1.811481 1.633706 0
M  V30 6 O -0.456345 -1.473179 2.832539 0
M  V30 7 N -1.120367 -0.857314 0.762688 0
M  V30 8 C -1.557844 0.375406 1.365063 0
M  V30 9 C -0.730429 1.483143 1.478005 0
M  V30 10 C -1.248408 2.624864 2.075627 0
M  V30 11 C -0.423928 3.737599 2.191368 0
M  V30 12 C -1.005336 4.846035 2.799018 0
M  V30 13 C -0.143849 6.021345 2.924825 0
M  V30 14 C -0.199621 6.972047 3.945239 0
M  V30 15 N 0.745702 7.902305 3.723250 0
M  V30 16 N 1.414264 7.603576 2.608108 0
M  V30 17 C 2.507007 8.391884 2.064098 0
M  V30 18 C 0.882405 6.467498 2.119254 0
M  V30 19 C -2.298997 4.896021 3.271295 0
M  V30 20 C -3.090091 3.753599 3.133040 0
M  V30 21 C -2.544775 2.628468 2.532007 0
M  V30 22 C -3.329633 1.493729 2.394309 0
M  V30 23 N -2.824426 0.390523 1.815204 0
M  V30 24 C -0.060108 -3.568056 -0.064775 0
M  V30 25 C 0.420774 -4.804701 -0.450500 0
M  V30 26 N 0.394535 -5.293977 -1.788535 0
M  V30 27 C 0.912965 -6.615684 -2.076144 0
M  V30 28 C 0.482424 -7.117017 -3.410065 0
M  V30 29 N 0.756623 -6.201591 -4.491624 0
M  V30 30 C -0.256072 -6.407925 -5.510877 0
M  V30 31 C 0.733840 -4.829411 -4.102827 0
M  V30 32 C -0.128313 -4.533212 -2.893993 0
M  V30 33 N 0.934903 -5.553618 0.527646 0
M  V30 34 H 1.208650 -7.112889 2.536810 0
M  V30 35 H 2.688638 -6.117791 2.748005 0
M  V30 36 H 1.163909 -5.870585 3.788176 0
M  V30 37 H 0.560024 -3.592651 3.246904 0
M  V30 38 H -1.201410 -1.101068 -0.248148 0
M  V30 39 H 0.284141 1.416725 1.097673 0
M  V30 40 H 0.595702 3.746989 1.836874 0
M  V30 41 H -0.921882 6.909638 4.764139 0
M  V30 42 H 3.082059 7.764445 1.352441 0
M  V30 43 H 2.152499 9.274421 1.488429 0
M  V30 44 H 3.222327 8.700342 2.850133 0
M  V30 45 H 1.196137 5.948837 1.216510 0
M  V30 46 H -2.673352 5.811089 3.735831 0
M  V30 47 H -4.103145 3.782122 3.499087 0
M  V30 48 H -4.352379 1.549935 2.773897 0
M  V30 49 H -0.484748 -2.922922 -0.804885 0
M  V30 50 H 0.419464 -7.284713 -1.313961 0
M  V30 51 H 1.994565 -6.721574 -1.868939 0
M  V30 52 H 1.099177 -8.033606 -3.630765 0
M  V30 53 H -0.574787 -7.456661 -3.391549 0
M  V30 54 H -0.459344 -5.480102 -6.077180 0
M  V30 55 H -1.198158 -6.671859 -4.976165 0
M  V30 56 H 0.052817 -7.248800 -6.168040 0
M  V30 57 H 0.333748 -4.208270 -4.943313 0
M  V30 58 H 1.754296 -4.485144 -3.918157 0
M  V30 59 H 0.000970 -3.442407 -2.707416 0
M  V30 60 H -1.187923 -4.760119 -3.084700 0
M  V30 END ATOM
M  V30 BEGIN BOND
M  V30 1 1 1 2
M  V30 2 2 2 3
M  V30 3 1 3 4
M  V30 4 1 4 5
M  V30 5 2 5 6
M  V30 6 1 5 7
M  V30 7 1 7 8
M  V30 8 2 8 9
M  V30 9 1 9 10
M  V30 10 2 10 11
M  V30 11 1 11 12
M  V30 12 1 12 13
M  V30 13 1 13 14
M  V30 14 2 14 15
M  V30 15 1 15 16
M  V30 16 1 16 17
M  V30 17 1 16 18
M  V30 18 2 12 19
M  V30 19 1 19 20
M  V30 20 2 20 21
M  V30 21 1 21 22
M  V30 22 2 22 23
M  V30 23 2 4 24
M  V30 24 1 24 25
M  V30 25 1 25 26
M  V30 26 1 26 27
M  V30 27 1 27 28
M  V30 28 1 28 29
M  V30 29 1 29 30
M  V30 30 1 29 31
M  V30 31 1 31 32
M  V30 32 2 25 33
M  V30 33 1 33 2
M  V30 34 1 23 8
M  V30 35 1 32 26
M  V30 36 1 21 10
M  V30 37 2 18 13
M  V30 38 1 1 34
M  V30 39 1 1 35
M  V30 40 1 1 36
M  V30 41 1 3 37
M  V30 42 1 7 38
M  V30 43 1 9 39
M  V30 44 1 11 40
M  V30 45 1 14 41
M  V30 46 1 17 42
M  V30 47 1 17 43
M  V30 48 1 17 44
M  V30 49 1 18 45
M  V30 50 1 19 46
M  V30 51 1 20 47
M  V30 52 1 22 48
M  V30 53 1 24 49
M  V30 54 1 27 50
M  V30 55 1 27 51
M  V30 56 1 28 52
M  V30 57 1 28 53
M  V30 58 1 30 54
M  V30 59 1 30 55
M  V30 60 1 30 56
M  V30 61 1 31 57
M  V30 62 1 31 58
M  V30 63 1 32 59
M  V30 64 1 32 60
M  V30 END BOND
M  V30 END CTAB
M  END
>  <Dataset>  (821) 
ChEMBL_Kinases

>  <Ligand_Instance>  (821) 
nan

>  <PDB_ID>  (821) 
nan

>  <Standardized_SMILES>  (821) 
Cc1cc(C(=O)Nc2cc3cc(-c4cnn(C)c4)ccc3cn2)cc(N2CCN(C)CC2)n1

>  <Name>  (821) 
nan

>  <Pocket>  (821) 
nan

>  <ATP_Site>  (821) 
nan

>  <Peripheral>  (821) 
nan

>  <Num_H_Atoms_ProtBoundConf>  (821) 
nan

>  <Num_Resolved_Atoms>  (821) 
nan

>  <Num_Not_Resolved_Atoms>  (821) 
nan

$$$$
CHEMBL4447251
     RDKit          3D

  0  0  0  0  0  0  0  0  0  0999 V3000
M  V30 BEGIN CTAB
M  V30 COUNTS 64 67 0 0 0
M  V30 BEGIN ATOM
M  V30 1 C 3.338635 -1.438713 2.410494 0
M  V30 2 C 4.198479 -2.085365 1.357115 0
M  V30 3 C 4.354889 -1.296470 0.097810 0 CFG=2
M  V30 4 C 4.991302 0.052111 0.327310 0
M  V30 5 O 6.197375 0.361929 0.074751 0
M  V30 6 N 4.245331 1.132313 0.872403 0
M  V30 7 C 4.900457 2.238665 1.568164 0
M  V30 8 C 2.807702 1.140443 0.730797 0
M  V30 9 C 2.069466 2.170625 1.270862 0
M  V30 10 N 0.719125 2.078418 1.100323 0
M  V30 11 C 0.195724 1.011160 0.428788 0
M  V30 12 N -1.204901 0.794558 0.188971 0
M  V30 13 C -2.210485 -0.007290 0.835299 0
M  V30 14 C -1.654947 -0.722521 1.898823 0
M  V30 15 C -2.520633 -1.565443 2.606471 0
M  V30 16 C -3.839814 -1.656755 2.242273 0
M  V30 17 C -4.698256 -2.540972 2.983857 0
M  V30 18 C -6.124290 -2.851889 2.816764 0
M  V30 19 O -4.218507 -3.189045 3.948069 0
M  V30 20 C -4.317514 -0.922473 1.184352 0
M  V30 21 C -3.530865 -0.078956 0.448975 0
M  V30 22 O -3.788907 0.721769 -0.609488 0
M  V30 23 C -4.962614 0.961643 -1.301092 0
M  V30 24 C -6.087654 1.573256 -0.530205 0
M  V30 25 O -5.718564 2.814791 -0.007454 0
M  V30 26 N 0.926158 0.014044 -0.093020 0
M  V30 27 C 2.261643 0.048765 0.043069 0
M  V30 28 N 3.063441 -1.008278 -0.491175 0
M  V30 29 C 2.580881 -1.797975 -1.617307 0
M  V30 30 C 1.706182 -1.095470 -2.573904 0
M  V30 31 C 0.616041 -2.084765 -2.927167 0
M  V30 32 C 0.530237 -3.024591 -1.770252 0
M  V30 33 C 1.888943 -3.041718 -1.180766 0
M  V30 34 H 2.282072 -1.310110 2.107453 0
M  V30 35 H 3.804691 -0.532566 2.830128 0
M  V30 36 H 3.285117 -2.150540 3.293387 0
M  V30 37 H 5.210636 -2.268161 1.839590 0
M  V30 38 H 3.818599 -3.110418 1.187992 0
M  V30 39 H 4.978701 -1.885949 -0.620615 0
M  V30 40 H 4.837790 3.174014 0.974728 0
M  V30 41 H 4.582259 2.327999 2.612169 0
M  V30 42 H 5.982823 1.993947 1.595339 0
M  V30 43 H 2.500230 2.996268 1.792026 0
M  V30 44 H -1.340262 1.416254 -0.651154 0
M  V30 45 H -0.633615 -0.685947 2.220367 0
M  V30 46 H -2.141957 -2.140002 3.433792 0
M  V30 47 H -6.731955 -2.510760 3.677904 0
M  V30 48 H -6.576740 -2.435229 1.882142 0
M  V30 49 H -6.274955 -3.966631 2.785039 0
M  V30 50 H -5.346999 -0.981714 0.875866 0
M  V30 51 H -4.797628 1.512931 -2.257428 0
M  V30 52 H -5.339346 -0.047715 -1.649691 0
M  V30 53 H -6.889435 1.815394 -1.293688 0
M  V30 54 H -6.534095 0.909781 0.203218 0
M  V30 55 H -6.198241 3.029357 0.827251 0
M  V30 56 H 3.528297 -2.113851 -2.150236 0
M  V30 57 H 2.268372 -0.958953 -3.559071 0
M  V30 58 H 1.368144 -0.092302 -2.345560 0
M  V30 59 H -0.344383 -1.622563 -3.190676 0
M  V30 60 H 0.884051 -2.724532 -3.815545 0
M  V30 61 H -0.274546 -2.764210 -1.050187 0
M  V30 62 H 0.274844 -4.072242 -2.102132 0
M  V30 63 H 2.436071 -3.944617 -1.582542 0
M  V30 64 H 1.877864 -3.148116 -0.070060 0
M  V30 END ATOM
M  V30 BEGIN BOND
M  V30 1 1 1 2
M  V30 2 1 2 3
M  V30 3 1 3 4
M  V30 4 2 4 5
M  V30 5 1 4 6
M  V30 6 1 6 7
M  V30 7 1 6 8
M  V30 8 2 8 9
M  V30 9 1 9 10
M  V30 10 2 10 11
M  V30 11 1 11 12
M  V30 12 1 12 13
M  V30 13 2 13 14
M  V30 14 1 14 15
M  V30 15 2 15 16
M  V30 16 1 16 17
M  V30 17 1 17 18
M  V30 18 2 17 19
M  V30 19 1 16 20
M  V30 20 2 20 21
M  V30 21 1 21 22
M  V30 22 1 22 23
M  V30 23 1 23 24
M  V30 24 1 24 25
M  V30 25 1 11 26
M  V30 26 2 26 27
M  V30 27 1 27 28
M  V30 28 1 28 29
M  V30 29 1 29 30
M  V30 30 1 30 31
M  V30 31 1 31 32
M  V30 32 1 32 33
M  V30 33 1 28 3
M  V30 34 1 33 29
M  V30 35 1 27 8
M  V30 36 1 21 13
M  V30 37 1 1 34
M  V30 38 1 1 35
M  V30 39 1 1 36
M  V30 40 1 2 37
M  V30 41 1 2 38
M  V30 42 1 3 39 CFG=3
M  V30 43 1 7 40
M  V30 44 1 7 41
M  V30 45 1 7 42
M  V30 46 1 9 43
M  V30 47 1 12 44
M  V30 48 1 14 45
M  V30 49 1 15 46
M  V30 50 1 18 47
M  V30 51 1 18 48
M  V30 52 1 18 49
M  V30 53 1 20 50
M  V30 54 1 23 51
M  V30 55 1 23 52
M  V30 56 1 24 53
M  V30 57 1 24 54
M  V30 58 1 25 55
M  V30 59 1 29 56
M  V30 60 1 30 57
M  V30 61 1 30 58
M  V30 62 1 31 59
M  V30 63 1 31 60
M  V30 64 1 32 61
M  V30 65 1 32 62
M  V30 66 1 33 63
M  V30 67 1 33 64
M  V30 END BOND
M  V30 END CTAB
M  END
>  <Dataset>  (822) 
ChEMBL_Kinases

>  <Ligand_Instance>  (822) 
nan

>  <PDB_ID>  (822) 
nan

>  <Standardized_SMILES>  (822) 
CC[C@@H]1C(=O)N(C)c2cnc(Nc3ccc(C(C)=O)cc3OCCO)nc2N1C1CCCC1

>  <Name>  (822) 
nan

>  <Pocket>  (822) 
nan

>  <ATP_Site>  (822) 
nan

>  <Peripheral>  (822) 
nan

>  <Num_H_Atoms_ProtBoundConf>  (822) 
nan

>  <Num_Resolved_Atoms>  (822) 
nan

>  <Num_Not_Resolved_Atoms>  (822) 
nan

$$$$
CHEMBL4749962
     RDKit          3D

  0  0  0  0  0  0  0  0  0  0999 V3000
M  V30 BEGIN CTAB
M  V30 COUNTS 45 50 0 0 0
M  V30 BEGIN ATOM
M  V30 1 C -1.451708 -1.597856 -7.017119 0
M  V30 2 C -1.298961 -0.785784 -8.145275 0
M  V30 3 N -0.468333 0.294323 -8.050672 0
M  V30 4 C 0.194582 0.578203 -6.895692 0
M  V30 5 C -0.007036 -0.268431 -5.827269 0
M  V30 6 C 0.729558 0.071030 -4.591516 0
M  V30 7 C 1.976081 0.683270 -4.709770 0
M  V30 8 C 2.654252 0.994431 -3.537449 0
M  V30 9 C 2.078132 0.691031 -2.328388 0
M  V30 10 N 2.486552 0.868274 -1.065814 0
M  V30 11 N 1.586943 0.412900 -0.229868 0
M  V30 12 C 0.509511 -0.102880 -0.867570 0
M  V30 13 C -0.658401 -0.683993 -0.237704 0
M  V30 14 N -0.759816 -0.755280 1.102277 0
M  V30 15 C -1.905041 -1.321385 1.498822 0
M  V30 16 C -2.482525 -1.623381 2.715126 0
M  V30 17 C -1.740664 -1.279899 3.937049 0
M  V30 18 C -1.139980 -0.020151 4.026677 0
M  V30 19 C -0.423655 0.360636 5.161026 0
M  V30 20 C -0.308729 -0.538311 6.222762 0
M  V30 21 N -0.896137 -1.743588 6.110894 0
M  V30 22 C -1.592545 -2.137909 5.029947 0
M  V30 23 C -3.735252 -2.236609 2.766925 0
M  V30 24 N -4.358595 -2.522340 1.603525 0
M  V30 25 C -3.834992 -2.246658 0.389427 0
M  V30 26 C -2.598184 -1.641717 0.363832 0
M  V30 27 N -1.803127 -1.236835 -0.638969 0
M  V30 28 C 0.848257 0.086598 -2.186460 0
M  V30 29 C 0.195584 -0.212229 -3.353734 0
M  V30 30 C -0.817231 -1.382612 -5.806127 0
M  V30 31 H -2.127338 -2.453630 -7.138597 0
M  V30 32 H -1.833538 -1.026576 -9.054637 0
M  V30 33 H 0.849641 1.435708 -6.831822 0
M  V30 34 H 2.440361 0.927690 -5.653198 0
M  V30 35 H 3.622347 1.468804 -3.566914 0
M  V30 36 H 3.364973 1.291376 -0.690411 0
M  V30 37 H -1.247056 0.652793 3.188092 0
M  V30 38 H 0.039682 1.337913 5.226547 0
M  V30 39 H 0.241767 -0.265968 7.113365 0
M  V30 40 H -2.064216 -3.106464 4.939992 0
M  V30 41 H -4.185729 -2.471964 3.722821 0
M  V30 42 H -4.327289 -2.471600 -0.535936 0
M  V30 43 H -2.074115 -1.352622 -1.630458 0
M  V30 44 H -0.750789 -0.675836 -3.337059 0
M  V30 45 H -0.949827 -2.014552 -4.961311 0
M  V30 END ATOM
M  V30 BEGIN BOND
M  V30 1 2 1 2
M  V30 2 1 2 3
M  V30 3 2 3 4
M  V30 4 1 4 5
M  V30 5 1 5 6
M  V30 6 2 6 7
M  V30 7 1 7 8
M  V30 8 2 8 9
M  V30 9 1 9 10
M  V30 10 1 10 11
M  V30 11 2 11 12
M  V30 12 1 12 13
M  V30 13 2 13 14
M  V30 14 1 14 15
M  V30 15 2 15 16
M  V30 16 1 16 17
M  V30 17 2 17 18
M  V30 18 1 18 19
M  V30 19 2 19 20
M  V30 20 1 20 21
M  V30 21 2 21 22
M  V30 22 1 16 23
M  V30 23 2 23 24
M  V30 24 1 24 25
M  V30 25 2 25 26
M  V30 26 1 26 27
M  V30 27 1 12 28
M  V30 28 2 28 29
M  V30 29 2 5 30
M  V30 30 1 30 1
M  V30 31 1 29 6
M  V30 32 1 28 9
M  V30 33 1 27 13
M  V30 34 1 26 15
M  V30 35 1 22 17
M  V30 36 1 1 31
M  V30 37 1 2 32
M  V30 38 1 4 33
M  V30 39 1 7 34
M  V30 40 1 8 35
M  V30 41 1 10 36
M  V30 42 1 18 37
M  V30 43 1 19 38
M  V30 44 1 20 39
M  V30 45 1 22 40
M  V30 46 1 23 41
M  V30 47 1 25 42
M  V30 48 1 27 43
M  V30 49 1 29 44
M  V30 50 1 30 45
M  V30 END BOND
M  V30 END CTAB
M  END
>  <Dataset>  (823) 
ChEMBL_Kinases

>  <Ligand_Instance>  (823) 
nan

>  <PDB_ID>  (823) 
nan

>  <Standardized_SMILES>  (823) 
c1cncc(-c2ccc3[nH]nc(-c4nc5c(-c6cccnc6)cncc5[nH]4)c3c2)c1

>  <Name>  (823) 
nan

>  <Pocket>  (823) 
nan

>  <ATP_Site>  (823) 
nan

>  <Peripheral>  (823) 
nan

>  <Num_H_Atoms_ProtBoundConf>  (823) 
nan

>  <Num_Resolved_Atoms>  (823) 
nan

>  <Num_Not_Resolved_Atoms>  (823) 
nan

$$$$
CHEMBL4749957
     RDKit          3D

  0  0  0  0  0  0  0  0  0  0999 V3000
M  V30 BEGIN CTAB
M  V30 COUNTS 57 63 0 0 0
M  V30 BEGIN ATOM
M  V30 1 O 5.007288 -1.773978 -2.167860 0
M  V30 2 C 4.888849 -2.884098 -1.553851 0
M  V30 3 N 4.721628 -2.783861 -0.158882 0
M  V30 4 C 4.659559 -1.683113 0.736516 0
M  V30 5 C 5.936486 -1.382721 1.217129 0
M  V30 6 N 6.078077 -0.348419 2.094672 0
M  V30 7 C 5.001007 0.353343 2.475398 0
M  V30 8 C 3.721656 0.105543 2.037641 0
M  V30 9 C 2.550584 0.862010 2.451383 0
M  V30 10 C 2.684367 1.889135 3.337654 0
M  V30 11 C 1.596796 2.649614 3.779359 0
M  V30 12 C 0.366883 2.299619 3.263171 0
M  V30 13 N -0.849091 2.854267 3.514131 0
M  V30 14 N -1.730118 2.182147 2.793589 0
M  V30 15 C -1.109193 1.213267 2.089151 0
M  V30 16 C -1.768661 0.285001 1.199821 0
M  V30 17 C -3.136172 0.224823 0.927450 0
M  V30 18 C -3.436145 -0.790876 0.027341 0
M  V30 19 C -4.651257 -1.178696 -0.496150 0
M  V30 20 C -5.895916 -0.509902 -0.143069 0
M  V30 21 C -6.447803 -0.260725 1.102040 0
M  V30 22 C -7.655045 0.398791 1.187794 0
M  V30 23 C -8.377295 0.842659 0.101835 0
M  V30 24 C -7.806375 0.582432 -1.131538 0
M  V30 25 C -6.594274 -0.077146 -1.276528 0
M  V30 26 F -6.189363 -0.243853 -2.569490 0
M  V30 27 N -4.590843 -2.223602 -1.363483 0
M  V30 28 C -3.456576 -2.834670 -1.691726 0
M  V30 29 C -2.264178 -2.419704 -1.149253 0
M  V30 30 C -2.220103 -1.374467 -0.264668 0
M  V30 31 N -1.293723 -0.715217 0.437942 0
M  V30 32 C 0.236027 1.262229 2.368624 0
M  V30 33 N 1.327189 0.553952 1.971392 0
M  V30 34 C 3.573991 -0.937022 1.152316 0
M  V30 35 C 4.910748 -4.253590 -2.159509 0
M  V30 36 C 4.035402 -4.396910 -3.404953 0
M  V30 37 C 5.520021 -4.408051 -3.479283 0
M  V30 38 H 4.607423 -3.637484 0.464491 0
M  V30 39 H 6.866509 -1.893199 0.967574 0
M  V30 40 H 5.191725 1.155245 3.170270 0
M  V30 41 H 3.617105 2.226532 3.789238 0
M  V30 42 H 1.680567 3.463645 4.477737 0
M  V30 43 H -1.151342 3.642073 4.122470 0
M  V30 44 H -3.877379 0.895847 1.369398 0
M  V30 45 H -5.847488 -0.625188 1.899900 0
M  V30 46 H -8.050839 0.573578 2.167515 0
M  V30 47 H -9.312326 1.352465 0.201361 0
M  V30 48 H -8.380233 0.935684 -1.999683 0
M  V30 49 H -3.403353 -3.674006 -2.387551 0
M  V30 50 H -1.335865 -2.911813 -1.412124 0
M  V30 51 H -0.272257 -0.974191 0.386157 0
M  V30 52 H 2.658727 -1.256951 0.721442 0
M  V30 53 H 4.807898 -5.123452 -1.477767 0
M  V30 54 H 3.482137 -3.540068 -3.798014 0
M  V30 55 H 3.470415 -5.348798 -3.552618 0
M  V30 56 H 5.982613 -5.376198 -3.756367 0
M  V30 57 H 5.983550 -3.475686 -3.918446 0
M  V30 END ATOM
M  V30 BEGIN BOND
M  V30 1 2 1 2
M  V30 2 1 2 3
M  V30 3 1 3 4
M  V30 4 2 4 5
M  V30 5 1 5 6
M  V30 6 2 6 7
M  V30 7 1 7 8
M  V30 8 1 8 9
M  V30 9 2 9 10
M  V30 10 1 10 11
M  V30 11 2 11 12
M  V30 12 1 12 13
M  V30 13 1 13 14
M  V30 14 2 14 15
M  V30 15 1 15 16
M  V30 16 2 16 17
M  V30 17 1 17 18
M  V30 18 2 18 19
M  V30 19 1 19 20
M  V30 20 2 20 21
M  V30 21 1 21 22
M  V30 22 2 22 23
M  V30 23 1 23 24
M  V30 24 2 24 25
M  V30 25 1 25 26
M  V30 26 1 19 27
M  V30 27 2 27 28
M  V30 28 1 28 29
M  V30 29 2 29 30
M  V30 30 1 30 31
M  V30 31 1 15 32
M  V30 32 2 32 33
M  V30 33 2 8 34
M  V30 34 1 2 35
M  V30 35 1 35 36
M  V30 36 1 36 37
M  V30 37 1 34 4
M  V30 38 1 37 35
M  V30 39 1 33 9
M  V30 40 1 32 12
M  V30 41 1 31 16
M  V30 42 1 30 18
M  V30 43 1 25 20
M  V30 44 1 3 38
M  V30 45 1 5 39
M  V30 46 1 7 40
M  V30 47 1 10 41
M  V30 48 1 11 42
M  V30 49 1 13 43
M  V30 50 1 17 44
M  V30 51 1 21 45
M  V30 52 1 22 46
M  V30 53 1 23 47
M  V30 54 1 24 48
M  V30 55 1 28 49
M  V30 56 1 29 50
M  V30 57 1 31 51
M  V30 58 1 34 52
M  V30 59 1 35 53
M  V30 60 1 36 54
M  V30 61 1 36 55
M  V30 62 1 37 56
M  V30 63 1 37 57
M  V30 END BOND
M  V30 END CTAB
M  END
>  <Dataset>  (824) 
ChEMBL_Kinases

>  <Ligand_Instance>  (824) 
nan

>  <PDB_ID>  (824) 
nan

>  <Standardized_SMILES>  (824) 
O=C(Nc1cncc(-c2ccc3[nH]nc(-c4cc5c(-c6ccccc6F)nccc5[nH]4)c3n2)c1)C1CC1

>  <Name>  (824) 
nan

>  <Pocket>  (824) 
nan

>  <ATP_Site>  (824) 
nan

>  <Peripheral>  (824) 
nan

>  <Num_H_Atoms_ProtBoundConf>  (824) 
nan

>  <Num_Resolved_Atoms>  (824) 
nan

>  <Num_Not_Resolved_Atoms>  (824) 
nan

$$$$
CHEMBL2441273
     RDKit          3D

  0  0  0  0  0  0  0  0  0  0999 V3000
M  V30 BEGIN CTAB
M  V30 COUNTS 62 66 0 0 0
M  V30 BEGIN ATOM
M  V30 1 C 4.257961 -1.784963 6.569676 0
M  V30 2 C 3.608717 -0.414858 6.583316 0
M  V30 3 C 3.672530 0.139078 5.220175 0
M  V30 4 C 4.662890 0.913943 4.663499 0
M  V30 5 C 4.640783 1.386467 3.380963 0
M  V30 6 C 3.566921 1.096963 2.528632 0
M  V30 7 N 3.655940 1.610395 1.305663 0
M  V30 8 C 2.530758 1.257476 0.544164 0
M  V30 9 N 2.102449 1.523391 -0.797265 0
M  V30 10 C 0.874929 1.010777 -1.309436 0
M  V30 11 C -0.270784 1.761610 -1.143455 0
M  V30 12 C -1.463210 1.238651 -1.655724 0
M  V30 13 C -2.693932 2.066250 -1.465522 0
M  V30 14 C -3.355683 1.708338 -0.187776 0
M  V30 15 C -2.990227 2.384146 0.960484 0
M  V30 16 C -3.504523 2.178848 2.233957 0
M  V30 17 C -4.475182 1.200576 2.347836 0
M  V30 18 C -4.877398 0.495109 1.232623 0
M  V30 19 C -4.335929 0.734562 -0.017705 0
M  V30 20 N -1.488401 0.032430 -2.294361 0
M  V30 21 C -0.350530 -0.671320 -2.437250 0
M  V30 22 N -0.358571 -1.930438 -3.101559 0
M  V30 23 C -1.576205 -2.483382 -3.634645 0 CFG=1
M  V30 24 C -1.318283 -3.800607 -4.291376 0
M  V30 25 C -0.983395 -4.918744 -3.360451 0
M  V30 26 C -1.014230 -4.565850 -1.911051 0 CFG=2
M  V30 27 O -1.119715 -5.780749 -1.195461 0
M  V30 28 C -2.143323 -3.687142 -1.494968 0
M  V30 29 C -2.615473 -2.723551 -2.559882 0
M  V30 30 N 0.798642 -0.172411 -1.946091 0
M  V30 31 S 1.444890 0.214355 1.665608 0
M  V30 32 C 2.558572 0.278717 3.172715 0
M  V30 33 C 2.610897 -0.156892 4.403320 0
M  V30 34 H 4.992666 -1.915107 5.751822 0
M  V30 35 H 4.777969 -1.975076 7.545974 0
M  V30 36 H 3.512636 -2.603284 6.460689 0
M  V30 37 H 4.122952 0.268022 7.292631 0
M  V30 38 H 2.561310 -0.533876 6.919004 0
M  V30 39 H 5.466242 1.093692 5.397971 0
M  V30 40 H 5.555079 1.974895 3.202849 0
M  V30 41 H 2.831537 2.115832 -1.247238 0
M  V30 42 H -0.258298 2.712400 -0.641654 0
M  V30 43 H -3.385037 1.891441 -2.340817 0
M  V30 44 H -2.403753 3.128697 -1.407956 0
M  V30 45 H -2.228692 3.153786 0.878913 0
M  V30 46 H -3.144157 2.767607 3.066502 0
M  V30 47 H -4.907203 0.997806 3.299761 0
M  V30 48 H -5.638467 -0.267655 1.339426 0
M  V30 49 H -4.629830 0.195835 -0.922606 0
M  V30 50 H 0.533473 -2.461969 -3.204466 0
M  V30 51 H -2.016196 -1.798543 -4.365828 0
M  V30 52 H -0.523620 -3.629041 -5.064544 0
M  V30 53 H -2.233622 -4.029197 -4.908705 0
M  V30 54 H 0.055540 -5.307827 -3.565097 0
M  V30 55 H -1.682095 -5.759171 -3.561578 0
M  V30 56 H -0.049698 -4.129978 -1.560445 0
M  V30 57 H -1.595306 -5.649531 -0.336891 0
M  V30 58 H -2.985154 -4.329383 -1.133122 0
M  V30 59 H -1.816491 -3.131325 -0.573415 0
M  V30 60 H -3.463329 -3.229437 -3.079404 0
M  V30 61 H -3.019337 -1.783020 -2.140593 0
M  V30 62 H 1.717817 -0.730009 4.573874 0
M  V30 END ATOM
M  V30 BEGIN BOND
M  V30 1 1 1 2
M  V30 2 1 2 3
M  V30 3 2 3 4
M  V30 4 1 4 5
M  V30 5 2 5 6
M  V30 6 1 6 7
M  V30 7 2 7 8
M  V30 8 1 8 9
M  V30 9 1 9 10
M  V30 10 2 10 11
M  V30 11 1 11 12
M  V30 12 1 12 13
M  V30 13 1 13 14
M  V30 14 2 14 15
M  V30 15 1 15 16
M  V30 16 2 16 17
M  V30 17 1 17 18
M  V30 18 2 18 19
M  V30 19 2 12 20
M  V30 20 1 20 21
M  V30 21 1 21 22
M  V30 22 1 22 23
M  V30 23 1 23 24
M  V30 24 1 24 25
M  V30 25 1 25 26
M  V30 26 1 26 27
M  V30 27 1 26 28
M  V30 28 1 28 29
M  V30 29 2 21 30
M  V30 30 1 8 31
M  V30 31 1 31 32
M  V30 32 2 32 33
M  V30 33 1 33 3
M  V30 34 1 32 6
M  V30 35 1 30 10
M  V30 36 1 19 14
M  V30 37 1 29 23
M  V30 38 1 1 34
M  V30 39 1 1 35
M  V30 40 1 1 36
M  V30 41 1 2 37
M  V30 42 1 2 38
M  V30 43 1 4 39
M  V30 44 1 5 40
M  V30 45 1 9 41
M  V30 46 1 11 42
M  V30 47 1 13 43
M  V30 48 1 13 44
M  V30 49 1 15 45
M  V30 50 1 16 46
M  V30 51 1 17 47
M  V30 52 1 18 48
M  V30 53 1 19 49
M  V30 54 1 22 50
M  V30 55 1 23 51 CFG=3
M  V30 56 1 24 52
M  V30 57 1 24 53
M  V30 58 1 25 54
M  V30 59 1 25 55
M  V30 60 1 26 56 CFG=1
M  V30 61 1 27 57
M  V30 62 1 28 58
M  V30 63 1 28 59
M  V30 64 1 29 60
M  V30 65 1 29 61
M  V30 66 1 33 62
M  V30 END BOND
M  V30 END CTAB
M  END
>  <Dataset>  (825) 
ChEMBL_Kinases

>  <Ligand_Instance>  (825) 
nan

>  <PDB_ID>  (825) 
nan

>  <Standardized_SMILES>  (825) 
CCc1ccc2nc(Nc3cc(Cc4ccccc4)nc(N[C@H]4CC[C@H](O)CC4)n3)sc2c1

>  <Name>  (825) 
nan

>  <Pocket>  (825) 
nan

>  <ATP_Site>  (825) 
nan

>  <Peripheral>  (825) 
nan

>  <Num_H_Atoms_ProtBoundConf>  (825) 
nan

>  <Num_Resolved_Atoms>  (825) 
nan

>  <Num_Not_Resolved_Atoms>  (825) 
nan

$$$$
CHEMBL194806
     RDKit          3D

  0  0  0  0  0  0  0  0  0  0999 V3000
M  V30 BEGIN CTAB
M  V30 COUNTS 56 60 0 0 0
M  V30 BEGIN ATOM
M  V30 1 O 2.885554 4.116331 0.356270 0
M  V30 2 C 2.127078 3.118476 0.465635 0
M  V30 3 N 2.463434 2.148637 1.450328 0
M  V30 4 C 3.635993 2.282443 2.311866 0
M  V30 5 C 4.637410 1.206579 2.082537 0
M  V30 6 C 4.698015 0.142569 3.117554 0
M  V30 7 N 4.447479 0.613530 4.461014 0
M  V30 8 C 3.085198 1.119858 4.460474 0
M  V30 9 C 3.142206 2.428668 3.701419 0
M  V30 10 C 0.978040 3.027496 -0.407983 0
M  V30 11 C 0.788794 4.052021 -1.312674 0
M  V30 12 C -0.331370 3.932670 -2.141878 0
M  V30 13 C -1.231432 2.891277 -2.116155 0
M  V30 14 C -1.003050 1.900020 -1.203790 0
M  V30 15 C -1.949652 0.786941 -1.163646 0
M  V30 16 N -3.292902 0.971023 -1.196480 0
M  V30 17 N -3.914350 -0.205668 -1.147418 0
M  V30 18 C -3.000837 -1.198642 -1.080902 0
M  V30 19 C -3.039878 -2.578904 -1.011320 0
M  V30 20 C -1.843015 -3.258472 -0.955739 0
M  V30 21 N -1.850633 -4.676738 -0.880625 0
M  V30 22 C -2.884589 -5.644620 -0.780680 0
M  V30 23 C -3.139114 -6.645464 -1.693991 0
M  V30 24 C -4.173630 -7.554169 -1.513319 0
M  V30 25 C -4.958480 -7.447926 -0.395851 0
M  V30 26 C -4.729031 -6.458164 0.535455 0
M  V30 27 C -3.690344 -5.541657 0.359299 0
M  V30 28 Cl -3.549207 -4.374293 1.629777 0
M  V30 29 C -0.590658 -2.684967 -0.963102 0
M  V30 30 C -0.577818 -1.287025 -1.034088 0
M  V30 31 C -1.762599 -0.579311 -1.090810 0
M  V30 32 C 0.089994 1.972406 -0.362398 0
M  V30 33 H 1.854706 1.312472 1.563921 0
M  V30 34 H 4.103052 3.238662 1.994793 0
M  V30 35 H 4.416830 0.731099 1.102743 0
M  V30 36 H 5.673997 1.618789 1.984046 0
M  V30 37 H 3.981352 -0.682716 2.924706 0
M  V30 38 H 5.704509 -0.331861 3.151378 0
M  V30 39 H 4.583565 -0.175561 5.105069 0
M  V30 40 H 2.483498 0.361760 3.893104 0
M  V30 41 H 2.665820 1.295532 5.452166 0
M  V30 42 H 2.079712 2.809803 3.718210 0
M  V30 43 H 3.717514 3.140551 4.329637 0
M  V30 44 H 1.409965 4.909536 -1.432023 0
M  V30 45 H -0.506291 4.736753 -2.873508 0
M  V30 46 H -2.071674 2.884136 -2.798437 0
M  V30 47 H -4.949299 -0.378563 -1.156695 0
M  V30 48 H -4.010703 -3.044367 -1.006461 0
M  V30 49 H -1.008249 -5.290485 -0.888229 0
M  V30 50 H -2.477161 -6.652460 -2.534668 0
M  V30 51 H -4.265191 -8.297207 -2.313817 0
M  V30 52 H -5.751210 -8.193370 -0.318028 0
M  V30 53 H -5.421954 -6.492209 1.364484 0
M  V30 54 H 0.319262 -3.255029 -0.918191 0
M  V30 55 H 0.397315 -0.789437 -1.042430 0
M  V30 56 H 0.227536 1.163381 0.342298 0
M  V30 END ATOM
M  V30 BEGIN BOND
M  V30 1 2 1 2
M  V30 2 1 2 3
M  V30 3 1 3 4
M  V30 4 1 4 5
M  V30 5 1 5 6
M  V30 6 1 6 7
M  V30 7 1 7 8
M  V30 8 1 8 9
M  V30 9 1 2 10
M  V30 10 2 10 11
M  V30 11 1 11 12
M  V30 12 2 12 13
M  V30 13 1 13 14
M  V30 14 1 14 15
M  V30 15 2 15 16
M  V30 16 1 16 17
M  V30 17 1 17 18
M  V30 18 2 18 19
M  V30 19 1 19 20
M  V30 20 1 20 21
M  V30 21 1 21 22
M  V30 22 2 22 23
M  V30 23 1 23 24
M  V30 24 2 24 25
M  V30 25 1 25 26
M  V30 26 2 26 27
M  V30 27 1 27 28
M  V30 28 2 20 29
M  V30 29 1 29 30
M  V30 30 2 30 31
M  V30 31 2 14 32
M  V30 32 1 9 4
M  V30 33 1 32 10
M  V30 34 1 31 15
M  V30 35 1 31 18
M  V30 36 1 27 22
M  V30 37 1 3 33
M  V30 38 1 4 34
M  V30 39 1 5 35
M  V30 40 1 5 36
M  V30 41 1 6 37
M  V30 42 1 6 38
M  V30 43 1 7 39
M  V30 44 1 8 40
M  V30 45 1 8 41
M  V30 46 1 9 42
M  V30 47 1 9 43
M  V30 48 1 11 44
M  V30 49 1 12 45
M  V30 50 1 13 46
M  V30 51 1 17 47
M  V30 52 1 19 48
M  V30 53 1 21 49
M  V30 54 1 23 50
M  V30 55 1 24 51
M  V30 56 1 25 52
M  V30 57 1 26 53
M  V30 58 1 29 54
M  V30 59 1 30 55
M  V30 60 1 32 56
M  V30 END BOND
M  V30 END CTAB
M  END
>  <Dataset>  (826) 
ChEMBL_Kinases

>  <Ligand_Instance>  (826) 
nan

>  <PDB_ID>  (826) 
nan

>  <Standardized_SMILES>  (826) 
O=C(NC1CCNCC1)c1cccc(-c2n[nH]c3cc(Nc4ccccc4Cl)ccc23)c1

>  <Name>  (826) 
nan

>  <Pocket>  (826) 
nan

>  <ATP_Site>  (826) 
nan

>  <Peripheral>  (826) 
nan

>  <Num_H_Atoms_ProtBoundConf>  (826) 
nan

>  <Num_Resolved_Atoms>  (826) 
nan

>  <Num_Not_Resolved_Atoms>  (826) 
nan

$$$$
CHEMBL4447495
     RDKit          3D

  0  0  0  0  0  0  0  0  0  0999 V3000
M  V30 BEGIN CTAB
M  V30 COUNTS 86 90 0 0 0
M  V30 BEGIN ATOM
M  V30 1 C 0.043358 -0.359909 5.979266 0
M  V30 2 C 1.428999 -0.900957 5.961365 0
M  V30 3 C 1.964777 -1.115307 4.591983 0 CFG=2
M  V30 4 C 3.347237 -1.695364 4.773407 0
M  V30 5 O 3.879622 -1.916291 5.896246 0
M  V30 6 N 4.063858 -1.998982 3.582522 0
M  V30 7 C 5.049472 -3.070759 3.554487 0
M  V30 8 C 3.754835 -1.188698 2.445627 0
M  V30 9 C 4.439516 -1.501201 1.302691 0
M  V30 10 N 4.170646 -0.771651 0.200665 0
M  V30 11 C 3.245315 0.231522 0.259811 0
M  V30 12 N 2.801373 1.112818 -0.762198 0
M  V30 13 C 1.671056 0.741943 -1.576484 0
M  V30 14 C 1.066890 -0.480442 -1.343093 0
M  V30 15 C -0.019207 -0.904248 -2.078168 0
M  V30 16 F -0.628468 -2.088858 -1.869041 0
M  V30 17 C -0.559275 -0.130235 -3.084347 0
M  V30 18 C -1.684113 -0.398731 -3.960335 0
M  V30 19 O -2.139799 0.439786 -4.814212 0
M  V30 20 N -2.447707 -1.589276 -4.023199 0
M  V30 21 C -3.566587 -1.782548 -4.923626 0
M  V30 22 C -4.170550 -3.161500 -4.762092 0
M  V30 23 N -4.657822 -3.481046 -3.488270 0
M  V30 24 C -5.791202 -2.821952 -2.974867 0
M  V30 25 C -5.837463 -2.774254 -1.459543 0
M  V30 26 N -5.451702 -3.998743 -0.827995 0
M  V30 27 C -4.470503 -3.810540 0.225068 0
M  V30 28 C -5.089740 -5.057582 -1.728712 0
M  V30 29 C -4.096722 -4.552382 -2.767067 0
M  V30 30 C 0.059062 1.083370 -3.299397 0
M  V30 31 C 1.144315 1.525998 -2.577789 0
M  V30 32 O 1.762761 2.742593 -2.795879 0
M  V30 33 C 1.353150 3.671819 -3.780660 0
M  V30 34 C 2.192077 4.920143 -3.822479 0
M  V30 35 O 3.524881 4.706207 -4.089056 0
M  V30 36 N 2.599767 0.502435 1.399584 0
M  V30 37 C 2.801996 -0.172213 2.552173 0
M  V30 38 N 2.095319 0.111550 3.788005 0
M  V30 39 C 1.658194 1.500848 3.937279 0
M  V30 40 C 2.478078 2.490397 3.167053 0
M  V30 41 C 1.622821 3.169667 2.153351 0
M  V30 42 C 0.262386 2.535063 2.217643 0
M  V30 43 C 0.231787 1.656833 3.445192 0
M  V30 44 H -0.566511 -0.821731 6.830823 0
M  V30 45 H -0.063603 0.714262 6.152287 0
M  V30 46 H -0.526130 -0.687019 5.076865 0
M  V30 47 H 2.131252 -0.298157 6.608269 0
M  V30 48 H 1.387316 -1.889107 6.508023 0
M  V30 49 H 1.373832 -1.834962 4.036322 0
M  V30 50 H 6.028175 -2.640341 3.297129 0
M  V30 51 H 5.100343 -3.515383 4.548376 0
M  V30 52 H 4.722564 -3.892256 2.863128 0
M  V30 53 H 5.168518 -2.288242 1.245275 0
M  V30 54 H 3.216075 2.059129 -1.016118 0
M  V30 55 H 1.387127 -1.189532 -0.583735 0
M  V30 56 H -2.206481 -2.366290 -3.404096 0
M  V30 57 H -4.303681 -0.980107 -4.788046 0
M  V30 58 H -3.168689 -1.699553 -5.956903 0
M  V30 59 H -5.029521 -3.220492 -5.482611 0
M  V30 60 H -3.409816 -3.896922 -5.071467 0
M  V30 61 H -6.706731 -3.400020 -3.268352 0
M  V30 62 H -5.944063 -1.793113 -3.324279 0
M  V30 63 H -5.230627 -1.948022 -1.033278 0
M  V30 64 H -6.894920 -2.569041 -1.176624 0
M  V30 65 H -4.684719 -2.856257 0.741746 0
M  V30 66 H -3.463528 -3.743111 -0.245159 0
M  V30 67 H -4.464653 -4.640922 0.948290 0
M  V30 68 H -5.947225 -5.513397 -2.240960 0
M  V30 69 H -4.583496 -5.845924 -1.125275 0
M  V30 70 H -3.100559 -4.357871 -2.326241 0
M  V30 71 H -3.944613 -5.417822 -3.469381 0
M  V30 72 H -0.258461 1.797293 -4.059936 0
M  V30 73 H 1.289312 3.243211 -4.790668 0
M  V30 74 H 0.323408 4.013093 -3.492793 0
M  V30 75 H 1.770256 5.553837 -4.627982 0
M  V30 76 H 2.046393 5.540239 -2.888251 0
M  V30 77 H 4.033395 4.882722 -3.235705 0
M  V30 78 H 1.676000 1.796167 5.000489 0
M  V30 79 H 2.824239 3.332846 3.866707 0
M  V30 80 H 3.444509 2.099177 2.793590 0
M  V30 81 H 2.056887 3.201458 1.127413 0
M  V30 82 H 1.446477 4.267151 2.383801 0
M  V30 83 H 0.041067 1.910052 1.333075 0
M  V30 84 H -0.571153 3.268313 2.278447 0
M  V30 85 H -0.153308 0.630563 3.176119 0
M  V30 86 H -0.459867 2.048758 4.214151 0
M  V30 END ATOM
M  V30 BEGIN BOND
M  V30 1 1 1 2
M  V30 2 1 2 3
M  V30 3 1 3 4
M  V30 4 2 4 5
M  V30 5 1 4 6
M  V30 6 1 6 7
M  V30 7 1 6 8
M  V30 8 2 8 9
M  V30 9 1 9 10
M  V30 10 2 10 11
M  V30 11 1 11 12
M  V30 12 1 12 13
M  V30 13 2 13 14
M  V30 14 1 14 15
M  V30 15 1 15 16
M  V30 16 2 15 17
M  V30 17 1 17 18
M  V30 18 2 18 19
M  V30 19 1 18 20
M  V30 20 1 20 21
M  V30 21 1 21 22
M  V30 22 1 22 23
M  V30 23 1 23 24
M  V30 24 1 24 25
M  V30 25 1 25 26
M  V30 26 1 26 27
M  V30 27 1 26 28
M  V30 28 1 28 29
M  V30 29 1 17 30
M  V30 30 2 30 31
M  V30 31 1 31 32
M  V30 32 1 32 33
M  V30 33 1 33 34
M  V30 34 1 34 35
M  V30 35 1 11 36
M  V30 36 2 36 37
M  V30 37 1 37 38
M  V30 38 1 38 39
M  V30 39 1 39 40
M  V30 40 1 40 41
M  V30 41 1 41 42
M  V30 42 1 42 43
M  V30 43 1 38 3
M  V30 44 1 43 39
M  V30 45 1 37 8
M  V30 46 1 31 13
M  V30 47 1 29 23
M  V30 48 1 1 44
M  V30 49 1 1 45
M  V30 50 1 1 46
M  V30 51 1 2 47
M  V30 52 1 2 48
M  V30 53 1 3 49 CFG=3
M  V30 54 1 7 50
M  V30 55 1 7 51
M  V30 56 1 7 52
M  V30 57 1 9 53
M  V30 58 1 12 54
M  V30 59 1 14 55
M  V30 60 1 20 56
M  V30 61 1 21 57
M  V30 62 1 21 58
M  V30 63 1 22 59
M  V30 64 1 22 60
M  V30 65 1 24 61
M  V30 66 1 24 62
M  V30 67 1 25 63
M  V30 68 1 25 64
M  V30 69 1 27 65
M  V30 70 1 27 66
M  V30 71 1 27 67
M  V30 72 1 28 68
M  V30 73 1 28 69
M  V30 74 1 29 70
M  V30 75 1 29 71
M  V30 76 1 30 72
M  V30 77 1 33 73
M  V30 78 1 33 74
M  V30 79 1 34 75
M  V30 80 1 34 76
M  V30 81 1 35 77
M  V30 82 1 39 78
M  V30 83 1 40 79
M  V30 84 1 40 80
M  V30 85 1 41 81
M  V30 86 1 41 82
M  V30 87 1 42 83
M  V30 88 1 42 84
M  V30 89 1 43 85
M  V30 90 1 43 86
M  V30 END BOND
M  V30 END CTAB
M  END
>  <Dataset>  (827) 
ChEMBL_Kinases

>  <Ligand_Instance>  (827) 
nan

>  <PDB_ID>  (827) 
nan

>  <Standardized_SMILES>  (827) 
CC[C@@H]1C(=O)N(C)c2cnc(Nc3cc(F)c(C(=O)NCCN4CCN(C)CC4)cc3OCCO)nc2N1C1CCCC1

>  <Name>  (827) 
nan

>  <Pocket>  (827) 
nan

>  <ATP_Site>  (827) 
nan

>  <Peripheral>  (827) 
nan

>  <Num_H_Atoms_ProtBoundConf>  (827) 
nan

>  <Num_Resolved_Atoms>  (827) 
nan

>  <Num_Not_Resolved_Atoms>  (827) 
nan

$$$$
CHEMBL1950228
     RDKit          3D

  0  0  0  0  0  0  0  0  0  0999 V3000
M  V30 BEGIN CTAB
M  V30 COUNTS 38 42 0 0 0
M  V30 BEGIN ATOM
M  V30 1 O 2.129021 -4.773719 4.292022 0
M  V30 2 C 1.952378 -4.406128 3.107510 0
M  V30 3 C 1.369790 -3.098355 2.766043 0
M  V30 4 C 0.950362 -2.126595 3.646128 0
M  V30 5 N 0.483396 -1.090151 2.934418 0
M  V30 6 C 0.571617 -1.325275 1.605901 0
M  V30 7 C 1.128864 -2.587340 1.515653 0
M  V30 8 C 1.391740 -3.214359 0.295144 0
M  V30 9 C 1.075249 -2.529523 -0.843209 0
M  V30 10 C 0.518814 -1.269219 -0.750097 0
M  V30 11 C 0.136527 -0.432728 -1.779240 0
M  V30 12 C 0.183695 -0.576680 -3.168887 0
M  V30 13 C -0.277280 0.443646 -3.976899 0
M  V30 14 C -0.783845 1.603507 -3.426716 0
M  V30 15 C -0.814680 1.710110 -2.052741 0
M  V30 16 C -0.365922 0.718997 -1.185485 0
M  V30 17 N -0.297959 0.601379 0.154640 0
M  V30 18 C 0.244450 -0.616786 0.449968 0
M  V30 19 C -0.809256 1.775137 0.824891 0
M  V30 20 C -1.119171 1.544956 2.281304 0
M  V30 21 C 0.089740 1.322450 3.125517 0
M  V30 22 C 0.023117 -0.025273 3.840531 0
M  V30 23 H 2.238819 -5.074514 2.326345 0
M  V30 24 H 1.027280 -2.271721 4.715690 0
M  V30 25 H 1.824773 -4.195479 0.210971 0
M  V30 26 H 1.270827 -2.997173 -1.794076 0
M  V30 27 H 0.582212 -1.489164 -3.601620 0
M  V30 28 H -0.241954 0.334373 -5.072511 0
M  V30 29 H -1.154674 2.425213 -4.043252 0
M  V30 30 H -1.219778 2.636583 -1.652242 0
M  V30 31 H -1.757631 2.077142 0.324292 0
M  V30 32 H -0.127236 2.635430 0.705918 0
M  V30 33 H -1.735576 2.409332 2.623218 0
M  V30 34 H -1.784589 0.663008 2.386790 0
M  V30 35 H 1.056771 1.434668 2.588299 0
M  V30 36 H 0.098829 2.121901 3.917570 0
M  V30 37 H 0.663559 0.037985 4.736810 0
M  V30 38 H -1.047557 -0.216769 4.053582 0
M  V30 END ATOM
M  V30 BEGIN BOND
M  V30 1 2 1 2
M  V30 2 1 2 3
M  V30 3 2 3 4
M  V30 4 1 4 5
M  V30 5 1 5 6
M  V30 6 2 6 7
M  V30 7 1 7 8
M  V30 8 2 8 9
M  V30 9 1 9 10
M  V30 10 1 10 11
M  V30 11 2 11 12
M  V30 12 1 12 13
M  V30 13 2 13 14
M  V30 14 1 14 15
M  V30 15 2 15 16
M  V30 16 1 16 17
M  V30 17 1 17 18
M  V30 18 1 17 19
M  V30 19 1 19 20
M  V30 20 1 20 21
M  V30 21 1 21 22
M  V30 22 1 7 3
M  V30 23 2 18 10
M  V30 24 1 22 5
M  V30 25 1 18 6
M  V30 26 1 16 11
M  V30 27 1 2 23
M  V30 28 1 4 24
M  V30 29 1 8 25
M  V30 30 1 9 26
M  V30 31 1 12 27
M  V30 32 1 13 28
M  V30 33 1 14 29
M  V30 34 1 15 30
M  V30 35 1 19 31
M  V30 36 1 19 32
M  V30 37 1 20 33
M  V30 38 1 20 34
M  V30 39 1 21 35
M  V30 40 1 21 36
M  V30 41 1 22 37
M  V30 42 1 22 38
M  V30 END BOND
M  V30 END CTAB
M  END
>  <Dataset>  (828) 
ChEMBL_Kinases

>  <Ligand_Instance>  (828) 
nan

>  <PDB_ID>  (828) 
nan

>  <Standardized_SMILES>  (828) 
O=Cc1cn2c3c1ccc1c4ccccc4n(c13)CCCC2

>  <Name>  (828) 
nan

>  <Pocket>  (828) 
nan

>  <ATP_Site>  (828) 
nan

>  <Peripheral>  (828) 
nan

>  <Num_H_Atoms_ProtBoundConf>  (828) 
nan

>  <Num_Resolved_Atoms>  (828) 
nan

>  <Num_Not_Resolved_Atoms>  (828) 
nan

$$$$
CHEMBL4448563
     RDKit          3D

  0  0  0  0  0  0  0  0  0  0999 V3000
M  V30 BEGIN CTAB
M  V30 COUNTS 72 75 0 0 0
M  V30 BEGIN ATOM
M  V30 1 C 4.538735 -6.114969 2.876737 0
M  V30 2 C 4.231808 -4.914620 1.984735 0
M  V30 3 C 2.848376 -4.483489 2.314311 0 CFG=2
M  V30 4 C 1.954058 -5.612501 2.020707 0
M  V30 5 O 2.377206 -6.751153 1.619495 0
M  V30 6 N 0.559770 -5.439894 2.186865 0
M  V30 7 C -0.315934 -6.573611 2.416107 0
M  V30 8 C 0.102887 -4.084233 2.109583 0
M  V30 9 C -1.262375 -3.927197 2.268694 0
M  V30 10 N -1.759569 -2.671456 2.202733 0
M  V30 11 C -0.924652 -1.639578 1.988740 0
M  V30 12 N -1.253101 -0.259245 1.895309 0
M  V30 13 C -1.686369 0.569741 0.839516 0
M  V30 14 C -1.880739 -0.030518 -0.383802 0
M  V30 15 C -2.312392 0.692545 -1.478123 0
M  V30 16 C -2.558530 2.053680 -1.356915 0
M  V30 17 C -3.021741 2.902882 -2.446343 0
M  V30 18 O -3.000588 4.157751 -2.321305 0
M  V30 19 N -3.509699 2.415140 -3.677697 0
M  V30 20 C -3.946411 3.271609 -4.742637 0
M  V30 21 C -3.266834 3.008004 -6.050661 0
M  V30 22 C -5.453597 3.273183 -4.901331 0
M  V30 23 C -2.349606 2.606901 -0.113272 0
M  V30 24 C -1.922907 1.938733 1.008815 0
M  V30 25 O -1.695855 2.399353 2.255039 0
M  V30 26 C -1.819803 3.649222 2.822859 0
M  V30 27 C -3.170971 4.264601 2.851456 0
M  V30 28 O -3.109499 5.538105 3.465675 0
M  V30 29 N 0.388711 -1.848772 1.841581 0
M  V30 30 C 1.002435 -3.043118 1.886274 0
M  V30 31 N 2.418568 -3.225893 1.719702 0
M  V30 32 C 3.147077 -2.203148 1.027434 0
M  V30 33 C 2.404235 -0.977428 0.640538 0
M  V30 34 C 3.519369 -0.267205 -0.159054 0
M  V30 35 C 4.003446 -1.399417 -1.043670 0
M  V30 36 C 3.729051 -2.671992 -0.280762 0
M  V30 37 H 5.413168 -5.920445 3.529010 0
M  V30 38 H 3.671029 -6.398595 3.515809 0
M  V30 39 H 4.768136 -7.023942 2.287417 0
M  V30 40 H 5.009429 -4.155312 2.048006 0
M  V30 41 H 4.281542 -5.327275 0.939496 0
M  V30 42 H 2.746118 -4.321879 3.434283 0
M  V30 43 H -0.703322 -6.612561 3.455286 0
M  V30 44 H 0.265023 -7.492727 2.177842 0
M  V30 45 H -1.217697 -6.574336 1.763216 0
M  V30 46 H -1.914500 -4.769960 2.437293 0
M  V30 47 H -1.118995 0.167931 2.849146 0
M  V30 48 H -1.731513 -1.073800 -0.636393 0
M  V30 49 H -2.484089 0.280619 -2.459667 0
M  V30 50 H -3.561262 1.387465 -3.832596 0
M  V30 51 H -3.701343 4.318998 -4.435663 0
M  V30 52 H -2.261639 2.532655 -5.934831 0
M  V30 53 H -3.849552 2.261546 -6.645600 0
M  V30 54 H -3.088558 3.940053 -6.607742 0
M  V30 55 H -5.878767 3.897147 -4.090847 0
M  V30 56 H -5.666306 3.829013 -5.840972 0
M  V30 57 H -5.900083 2.277833 -4.986864 0
M  V30 58 H -2.530650 3.663351 -0.013588 0
M  V30 59 H -1.391527 3.708647 3.847321 0
M  V30 60 H -1.165342 4.346507 2.218080 0
M  V30 61 H -3.641826 4.452233 1.875945 0
M  V30 62 H -3.833327 3.598510 3.453643 0
M  V30 63 H -3.082430 5.430618 4.445396 0
M  V30 64 H 4.018904 -1.853729 1.645010 0
M  V30 65 H 2.115726 -0.318794 1.495129 0
M  V30 66 H 1.594724 -1.082241 -0.074788 0
M  V30 67 H 3.140191 0.596110 -0.709751 0
M  V30 68 H 4.276381 -0.020917 0.619212 0
M  V30 69 H 5.107715 -1.297284 -1.201855 0
M  V30 70 H 3.513929 -1.396506 -2.029033 0
M  V30 71 H 2.993611 -3.316102 -0.811514 0
M  V30 72 H 4.684815 -3.252981 -0.141533 0
M  V30 END ATOM
M  V30 BEGIN BOND
M  V30 1 1 1 2
M  V30 2 1 2 3
M  V30 3 1 3 4
M  V30 4 2 4 5
M  V30 5 1 4 6
M  V30 6 1 6 7
M  V30 7 1 6 8
M  V30 8 2 8 9
M  V30 9 1 9 10
M  V30 10 2 10 11
M  V30 11 1 11 12
M  V30 12 1 12 13
M  V30 13 2 13 14
M  V30 14 1 14 15
M  V30 15 2 15 16
M  V30 16 1 16 17
M  V30 17 2 17 18
M  V30 18 1 17 19
M  V30 19 1 19 20
M  V30 20 1 20 21
M  V30 21 1 20 22
M  V30 22 1 16 23
M  V30 23 2 23 24
M  V30 24 1 24 25
M  V30 25 1 25 26
M  V30 26 1 26 27
M  V30 27 1 27 28
M  V30 28 1 11 29
M  V30 29 2 29 30
M  V30 30 1 30 31
M  V30 31 1 31 32
M  V30 32 1 32 33
M  V30 33 1 33 34
M  V30 34 1 34 35
M  V30 35 1 35 36
M  V30 36 1 31 3
M  V30 37 1 36 32
M  V30 38 1 30 8
M  V30 39 1 24 13
M  V30 40 1 1 37
M  V30 41 1 1 38
M  V30 42 1 1 39
M  V30 43 1 2 40
M  V30 44 1 2 41
M  V30 45 1 3 42 CFG=1
M  V30 46 1 7 43
M  V30 47 1 7 44
M  V30 48 1 7 45
M  V30 49 1 9 46
M  V30 50 1 12 47
M  V30 51 1 14 48
M  V30 52 1 15 49
M  V30 53 1 19 50
M  V30 54 1 20 51
M  V30 55 1 21 52
M  V30 56 1 21 53
M  V30 57 1 21 54
M  V30 58 1 22 55
M  V30 59 1 22 56
M  V30 60 1 22 57
M  V30 61 1 23 58
M  V30 62 1 26 59
M  V30 63 1 26 60
M  V30 64 1 27 61
M  V30 65 1 27 62
M  V30 66 1 28 63
M  V30 67 1 32 64
M  V30 68 1 33 65
M  V30 69 1 33 66
M  V30 70 1 34 67
M  V30 71 1 34 68
M  V30 72 1 35 69
M  V30 73 1 35 70
M  V30 74 1 36 71
M  V30 75 1 36 72
M  V30 END BOND
M  V30 END CTAB
M  END
>  <Dataset>  (829) 
ChEMBL_Kinases

>  <Ligand_Instance>  (829) 
nan

>  <PDB_ID>  (829) 
nan

>  <Standardized_SMILES>  (829) 
CC[C@@H]1C(=O)N(C)c2cnc(Nc3ccc(C(=O)NC(C)C)cc3OCCO)nc2N1C1CCCC1

>  <Name>  (829) 
nan

>  <Pocket>  (829) 
nan

>  <ATP_Site>  (829) 
nan

>  <Peripheral>  (829) 
nan

>  <Num_H_Atoms_ProtBoundConf>  (829) 
nan

>  <Num_Resolved_Atoms>  (829) 
nan

>  <Num_Not_Resolved_Atoms>  (829) 
nan

$$$$
CHEMBL1951346
     RDKit          3D

  0  0  0  0  0  0  0  0  0  0999 V3000
M  V30 BEGIN CTAB
M  V30 COUNTS 56 59 0 0 0
M  V30 BEGIN ATOM
M  V30 1 C 3.062222 0.423793 4.310195 0
M  V30 2 C 4.518966 0.468603 4.278757 0
M  V30 3 C 5.400326 0.030631 5.278747 0
M  V30 4 N 6.669652 0.191096 4.919009 0
M  V30 5 C 6.679789 0.731022 3.691304 0
M  V30 6 N 7.674878 1.089595 2.839845 0
M  V30 7 C 7.323971 1.602806 1.635804 0
M  V30 8 N 6.053443 1.777831 1.237494 0
M  V30 9 C 5.036519 1.425874 2.076810 0
M  V30 10 C 3.733570 1.679104 1.496126 0
M  V30 11 C 3.531998 1.097249 0.235426 0
M  V30 12 C 2.391139 1.224867 -0.529850 0
M  V30 13 C 1.360497 1.984993 -0.020483 0
M  V30 14 N 0.131873 2.193668 -0.711618 0
M  V30 15 C -0.998150 1.312690 -0.552920 0
M  V30 16 O -0.887814 0.337007 0.216586 0
M  V30 17 N -2.234914 1.496959 -1.228293 0
M  V30 18 C -3.158649 0.449566 -0.857218 0
M  V30 19 C -3.992384 0.619753 0.231125 0
M  V30 20 C -4.849553 -0.418741 0.529416 0
M  V30 21 C -4.873940 -1.574260 -0.223621 0
M  V30 22 C -4.038507 -1.737031 -1.308961 0
M  V30 23 C -3.963023 -2.900869 -2.184676 0
M  V30 24 O -3.195412 -3.026950 -3.171155 0
M  V30 25 N -4.799279 -4.029344 -1.966126 0
M  V30 26 C -4.856136 -5.256096 -2.729424 0
M  V30 27 C -4.399927 -6.442145 -1.899190 0
M  V30 28 C -6.216301 -5.508872 -3.338845 0
M  V30 29 C -3.160678 -0.694533 -1.628584 0
M  V30 30 C 1.506794 2.579658 1.214211 0
M  V30 31 C 2.659306 2.423385 1.935478 0
M  V30 32 C 5.378959 0.901708 3.300921 0
M  V30 33 H 2.561968 0.012218 3.417705 0
M  V30 34 H 2.615386 1.363375 4.674892 0
M  V30 35 H 2.794518 -0.325998 5.121009 0
M  V30 36 H 5.081565 -0.388143 6.230126 0
M  V30 37 H 7.528603 -0.043004 5.454732 0
M  V30 38 H 8.205332 1.848549 1.048272 0
M  V30 39 H 4.310007 0.476264 -0.236692 0
M  V30 40 H 2.290108 0.754779 -1.494085 0
M  V30 41 H 0.024386 3.005850 -1.359675 0
M  V30 42 H -2.281896 2.339855 -1.871533 0
M  V30 43 H -3.970055 1.528110 0.819396 0
M  V30 44 H -5.527360 -0.340029 1.373897 0
M  V30 45 H -5.537031 -2.403649 -0.010321 0
M  V30 46 H -5.490444 -4.076171 -1.185895 0
M  V30 47 H -4.108586 -5.185013 -3.566566 0
M  V30 48 H -4.815955 -7.393363 -2.285561 0
M  V30 49 H -4.725929 -6.350190 -0.843685 0
M  V30 50 H -3.277710 -6.542998 -1.944917 0
M  V30 51 H -6.969318 -5.377383 -2.528072 0
M  V30 52 H -6.279488 -6.578648 -3.621770 0
M  V30 53 H -6.375854 -4.881755 -4.220151 0
M  V30 54 H -2.476249 -0.769529 -2.478073 0
M  V30 55 H 0.735140 3.182000 1.657494 0
M  V30 56 H 2.823135 2.885993 2.896031 0
M  V30 END ATOM
M  V30 BEGIN BOND
M  V30 1 1 1 2
M  V30 2 2 2 3
M  V30 3 1 3 4
M  V30 4 1 4 5
M  V30 5 2 5 6
M  V30 6 1 6 7
M  V30 7 2 7 8
M  V30 8 1 8 9
M  V30 9 1 9 10
M  V30 10 2 10 11
M  V30 11 1 11 12
M  V30 12 2 12 13
M  V30 13 1 13 14
M  V30 14 1 14 15
M  V30 15 2 15 16
M  V30 16 1 15 17
M  V30 17 1 17 18
M  V30 18 2 18 19
M  V30 19 1 19 20
M  V30 20 2 20 21
M  V30 21 1 21 22
M  V30 22 1 22 23
M  V30 23 2 23 24
M  V30 24 1 23 25
M  V30 25 1 25 26
M  V30 26 1 26 27
M  V30 27 1 26 28
M  V30 28 2 22 29
M  V30 29 1 13 30
M  V30 30 2 30 31
M  V30 31 2 9 32
M  V30 32 1 32 2
M  V30 33 1 32 5
M  V30 34 1 31 10
M  V30 35 1 29 18
M  V30 36 1 1 33
M  V30 37 1 1 34
M  V30 38 1 1 35
M  V30 39 1 3 36
M  V30 40 1 4 37
M  V30 41 1 7 38
M  V30 42 1 11 39
M  V30 43 1 12 40
M  V30 44 1 14 41
M  V30 45 1 17 42
M  V30 46 1 19 43
M  V30 47 1 20 44
M  V30 48 1 21 45
M  V30 49 1 25 46
M  V30 50 1 26 47
M  V30 51 1 27 48
M  V30 52 1 27 49
M  V30 53 1 27 50
M  V30 54 1 28 51
M  V30 55 1 28 52
M  V30 56 1 28 53
M  V30 57 1 29 54
M  V30 58 1 30 55
M  V30 59 1 31 56
M  V30 END BOND
M  V30 END CTAB
M  END
>  <Dataset>  (830) 
ChEMBL_Kinases

>  <Ligand_Instance>  (830) 
nan

>  <PDB_ID>  (830) 
nan

>  <Standardized_SMILES>  (830) 
Cc1c[nH]c2ncnc(-c3ccc(NC(=O)Nc4cccc(C(=O)NC(C)C)c4)cc3)c12

>  <Name>  (830) 
nan

>  <Pocket>  (830) 
nan

>  <ATP_Site>  (830) 
nan

>  <Peripheral>  (830) 
nan

>  <Num_H_Atoms_ProtBoundConf>  (830) 
nan

>  <Num_Resolved_Atoms>  (830) 
nan

>  <Num_Not_Resolved_Atoms>  (830) 
nan

$$$$
CHEMBL4749876
     RDKit          3D

  0  0  0  0  0  0  0  0  0  0999 V3000
M  V30 BEGIN CTAB
M  V30 COUNTS 54 59 0 0 0
M  V30 BEGIN ATOM
M  V30 1 C -1.164723 -4.609596 1.202354 0
M  V30 2 N 0.136913 -4.707050 1.780521 0
M  V30 3 C 0.489991 -3.669082 2.689852 0
M  V30 4 C 1.075269 -2.451299 2.062244 0
M  V30 5 N 1.912557 -2.848961 0.950750 0
M  V30 6 C 3.005405 -1.996009 0.631817 0
M  V30 7 N 4.244931 -2.486782 0.684341 0
M  V30 8 C 5.343298 -1.762933 0.402171 0
M  V30 9 C 5.120335 -0.445752 0.044102 0
M  V30 10 C 3.839889 0.084192 -0.016664 0
M  V30 11 N 3.355686 1.306017 -0.329388 0
M  V30 12 C 2.012986 1.326642 -0.241323 0
M  V30 13 C 1.192014 2.504807 -0.517798 0
M  V30 14 N 1.731118 3.682102 -0.889216 0
M  V30 15 N 0.779539 4.581184 -1.077368 0
M  V30 16 C -0.373419 3.940166 -0.814920 0
M  V30 17 C -1.686791 4.421297 -0.859342 0
M  V30 18 C -2.670745 3.501852 -0.529926 0
M  V30 19 C -2.439811 2.196187 -0.176104 0
M  V30 20 C -3.504950 1.283511 0.156571 0
M  V30 21 C -4.845351 1.596301 0.161882 0
M  V30 22 N -5.857021 0.768245 0.466465 0
M  V30 23 C -5.600035 -0.509322 0.809384 0
M  V30 24 C -4.264656 -0.847463 0.811565 0
M  V30 25 N -3.920194 -2.177737 1.163553 0
M  V30 26 C -3.223920 -0.020870 0.505361 0
M  V30 27 N -1.152594 1.771521 -0.145821 0
M  V30 28 C -0.181000 2.616101 -0.453157 0
M  V30 29 N 1.628080 0.090172 0.136369 0
M  V30 30 C 2.737049 -0.689231 0.279877 0
M  V30 31 C 1.784908 -4.018944 0.106342 0
M  V30 32 C 1.183607 -5.124894 0.908968 0
M  V30 33 H -1.889951 -4.619382 2.067323 0
M  V30 34 H -1.376971 -5.552824 0.662405 0
M  V30 35 H -1.328889 -3.692118 0.611176 0
M  V30 36 H 1.127621 -4.088006 3.515165 0
M  V30 37 H -0.443706 -3.349743 3.215452 0
M  V30 38 H 0.240869 -1.831186 1.654113 0
M  V30 39 H 1.647463 -1.911481 2.842995 0
M  V30 40 H 6.362176 -2.136819 0.437078 0
M  V30 41 H 5.991301 0.151932 -0.186391 0
M  V30 42 H 4.025249 2.082975 -0.596613 0
M  V30 43 H 0.863115 5.576222 -1.365353 0
M  V30 44 H -1.901125 5.444763 -1.134378 0
M  V30 45 H -3.669569 3.913329 -0.576748 0
M  V30 46 H -5.145877 2.600757 -0.100762 0
M  V30 47 H -6.343070 -1.250183 1.070495 0
M  V30 48 H -3.671428 -3.139621 1.440268 0
M  V30 49 H -3.684999 -3.045657 0.635066 0
M  V30 50 H -2.196097 -0.352785 0.527261 0
M  V30 51 H 1.062242 -3.754021 -0.701324 0
M  V30 52 H 2.763623 -4.344745 -0.298909 0
M  V30 53 H 0.768700 -5.937775 0.255392 0
M  V30 54 H 2.001915 -5.591456 1.531525 0
M  V30 END ATOM
M  V30 BEGIN BOND
M  V30 1 1 1 2
M  V30 2 1 2 3
M  V30 3 1 3 4
M  V30 4 1 4 5
M  V30 5 1 5 6
M  V30 6 2 6 7
M  V30 7 1 7 8
M  V30 8 2 8 9
M  V30 9 1 9 10
M  V30 10 1 10 11
M  V30 11 1 11 12
M  V30 12 1 12 13
M  V30 13 2 13 14
M  V30 14 1 14 15
M  V30 15 1 15 16
M  V30 16 2 16 17
M  V30 17 1 17 18
M  V30 18 2 18 19
M  V30 19 1 19 20
M  V30 20 2 20 21
M  V30 21 1 21 22
M  V30 22 2 22 23
M  V30 23 1 23 24
M  V30 24 1 24 25
M  V30 25 2 24 26
M  V30 26 1 19 27
M  V30 27 2 27 28
M  V30 28 2 12 29
M  V30 29 1 29 30
M  V30 30 1 5 31
M  V30 31 1 31 32
M  V30 32 1 32 2
M  V30 33 1 30 6
M  V30 34 2 30 10
M  V30 35 1 28 13
M  V30 36 1 28 16
M  V30 37 1 26 20
M  V30 38 1 1 33
M  V30 39 1 1 34
M  V30 40 1 1 35
M  V30 41 1 3 36
M  V30 42 1 3 37
M  V30 43 1 4 38
M  V30 44 1 4 39
M  V30 45 1 8 40
M  V30 46 1 9 41
M  V30 47 1 11 42
M  V30 48 1 15 43
M  V30 49 1 17 44
M  V30 50 1 18 45
M  V30 51 1 21 46
M  V30 52 1 23 47
M  V30 53 1 25 48
M  V30 54 1 25 49
M  V30 55 1 26 50
M  V30 56 1 31 51
M  V30 57 1 31 52
M  V30 58 1 32 53
M  V30 59 1 32 54
M  V30 END BOND
M  V30 END CTAB
M  END
>  <Dataset>  (831) 
ChEMBL_Kinases

>  <Ligand_Instance>  (831) 
nan

>  <PDB_ID>  (831) 
nan

>  <Standardized_SMILES>  (831) 
CN1CCN(c2nccc3[nH]c(-c4n[nH]c5ccc(-c6cncc(N)c6)nc45)nc23)CC1

>  <Name>  (831) 
nan

>  <Pocket>  (831) 
nan

>  <ATP_Site>  (831) 
nan

>  <Peripheral>  (831) 
nan

>  <Num_H_Atoms_ProtBoundConf>  (831) 
nan

>  <Num_Resolved_Atoms>  (831) 
nan

>  <Num_Not_Resolved_Atoms>  (831) 
nan

$$$$
CHEMBL4749868
     RDKit          3D

  0  0  0  0  0  0  0  0  0  0999 V3000
M  V30 BEGIN CTAB
M  V30 COUNTS 78 83 0 0 0
M  V30 BEGIN ATOM
M  V30 1 C -0.638332 -3.693328 -2.526936 0
M  V30 2 C -0.201377 -3.415982 -3.942934 0
M  V30 3 C 0.743591 -4.497788 -4.385533 0
M  V30 4 C 0.365277 -2.038625 -4.112299 0
M  V30 5 C 1.539142 -1.782072 -3.275239 0
M  V30 6 O 2.127435 -2.454364 -2.398014 0
M  V30 7 N 2.196924 -0.511499 -3.453934 0
M  V30 8 C 3.333344 -0.259845 -2.645782 0
M  V30 9 C 4.517415 -0.746332 -3.182718 0
M  V30 10 N 5.650451 -0.528102 -2.454372 0
M  V30 11 C 5.590308 0.128418 -1.280775 0
M  V30 12 C 4.418227 0.635486 -0.703881 0
M  V30 13 C 4.543837 1.312814 0.552265 0
M  V30 14 C 5.746417 1.995930 0.763030 0
M  V30 15 C 6.074557 2.711413 1.895447 0
M  V30 16 C 5.156797 2.774433 2.920539 0
M  V30 17 N 5.166311 3.366730 4.116378 0
M  V30 18 N 4.009075 3.087547 4.680370 0
M  V30 19 C 3.233222 2.333004 3.903214 0
M  V30 20 C 1.904136 1.875366 4.263330 0
M  V30 21 N 1.002187 1.135066 3.600552 0
M  V30 22 C -0.130016 0.970612 4.349786 0
M  V30 23 C -1.344046 0.334262 4.200248 0
M  V30 24 C -1.461299 -0.339695 2.893564 0
M  V30 25 C -0.407397 -1.083708 2.412476 0
M  V30 26 C -0.519177 -1.696766 1.200967 0
M  V30 27 F 0.539336 -2.420659 0.759872 0
M  V30 28 C -1.695269 -1.546585 0.497190 0
M  V30 29 C -2.789662 -0.819201 0.915729 0
M  V30 30 N -3.977117 -0.703149 0.133099 0
M  V30 31 C -3.941229 -1.391449 -1.140810 0
M  V30 32 C -5.269753 -1.208274 -1.839344 0
M  V30 33 N -6.274974 -1.793766 -0.961344 0
M  V30 34 C -7.600670 -1.660714 -1.558554 0
M  V30 35 C -5.989524 -3.232693 -0.822460 0
M  V30 36 C -2.645135 -0.202163 2.161702 0
M  V30 37 C -2.312835 0.354708 5.175916 0
M  V30 38 N -2.056144 1.024195 6.315419 0
M  V30 39 C -0.884490 1.663711 6.511348 0
M  V30 40 C 0.111642 1.652272 5.528243 0
M  V30 41 N 1.342213 2.188589 5.452430 0
M  V30 42 C 3.961617 2.111014 2.740456 0
M  V30 43 C 3.655020 1.401156 1.599288 0
M  V30 44 C 3.284011 0.408005 -1.447973 0
M  V30 45 H -0.437537 -4.751741 -2.262680 0
M  V30 46 H -0.080896 -3.030435 -1.837647 0
M  V30 47 H -1.711978 -3.437703 -2.419996 0
M  V30 48 H -1.113655 -3.524946 -4.590821 0
M  V30 49 H 1.567120 -4.577367 -3.658815 0
M  V30 50 H 1.100033 -4.347555 -5.425098 0
M  V30 51 H 0.187400 -5.455148 -4.379886 0
M  V30 52 H 0.519551 -1.831970 -5.189075 0
M  V30 53 H -0.457628 -1.328180 -3.811300 0
M  V30 54 H 1.921372 0.244121 -4.119546 0
M  V30 55 H 4.576195 -1.274072 -4.124337 0
M  V30 56 H 6.604480 0.195754 -0.858160 0
M  V30 57 H 6.559257 2.022718 0.020005 0
M  V30 58 H 6.993692 3.225543 2.041227 0
M  V30 59 H 5.938804 3.935318 4.518239 0
M  V30 60 H 0.503664 -1.178181 2.999470 0
M  V30 61 H -1.767215 -2.031044 -0.446795 0
M  V30 62 H -4.753428 -0.141144 0.542678 0
M  V30 63 H -3.102747 -1.034750 -1.796114 0
M  V30 64 H -3.798046 -2.493609 -0.968148 0
M  V30 65 H -5.474544 -0.132052 -1.972739 0
M  V30 66 H -5.299472 -1.746883 -2.800581 0
M  V30 67 H -7.465199 -1.710279 -2.664952 0
M  V30 68 H -8.175653 -2.556644 -1.240797 0
M  V30 69 H -8.067102 -0.716958 -1.261832 0
M  V30 70 H -5.378378 -3.534107 -1.723656 0
M  V30 71 H -6.890041 -3.846858 -0.856294 0
M  V30 72 H -5.408987 -3.339286 0.099387 0
M  V30 73 H -3.481262 0.373170 2.519235 0
M  V30 74 H -3.233648 -0.175287 4.964924 0
M  V30 75 H -0.694334 2.204029 7.444374 0
M  V30 76 H 1.708855 2.741399 6.243491 0
M  V30 77 H 2.714790 0.887197 1.474331 0
M  V30 78 H 2.357343 0.778511 -1.046134 0
M  V30 END ATOM
M  V30 BEGIN BOND
M  V30 1 1 1 2
M  V30 2 1 2 3
M  V30 3 1 2 4
M  V30 4 1 4 5
M  V30 5 2 5 6
M  V30 6 1 5 7
M  V30 7 1 7 8
M  V30 8 2 8 9
M  V30 9 1 9 10
M  V30 10 2 10 11
M  V30 11 1 11 12
M  V30 12 1 12 13
M  V30 13 2 13 14
M  V30 14 1 14 15
M  V30 15 2 15 16
M  V30 16 1 16 17
M  V30 17 1 17 18
M  V30 18 2 18 19
M  V30 19 1 19 20
M  V30 20 2 20 21
M  V30 21 1 21 22
M  V30 22 2 22 23
M  V30 23 1 23 24
M  V30 24 2 24 25
M  V30 25 1 25 26
M  V30 26 1 26 27
M  V30 27 2 26 28
M  V30 28 1 28 29
M  V30 29 1 29 30
M  V30 30 1 30 31
M  V30 31 1 31 32
M  V30 32 1 32 33
M  V30 33 1 33 34
M  V30 34 1 33 35
M  V30 35 2 29 36
M  V30 36 1 23 37
M  V30 37 2 37 38
M  V30 38 1 38 39
M  V30 39 2 39 40
M  V30 40 1 40 41
M  V30 41 1 19 42
M  V30 42 2 42 43
M  V30 43 2 12 44
M  V30 44 1 44 8
M  V30 45 1 43 13
M  V30 46 1 42 16
M  V30 47 1 41 20
M  V30 48 1 40 22
M  V30 49 1 36 24
M  V30 50 1 1 45
M  V30 51 1 1 46
M  V30 52 1 1 47
M  V30 53 1 2 48
M  V30 54 1 3 49
M  V30 55 1 3 50
M  V30 56 1 3 51
M  V30 57 1 4 52
M  V30 58 1 4 53
M  V30 59 1 7 54
M  V30 60 1 9 55
M  V30 61 1 11 56
M  V30 62 1 14 57
M  V30 63 1 15 58
M  V30 64 1 17 59
M  V30 65 1 25 60
M  V30 66 1 28 61
M  V30 67 1 30 62
M  V30 68 1 31 63
M  V30 69 1 31 64
M  V30 70 1 32 65
M  V30 71 1 32 66
M  V30 72 1 34 67
M  V30 73 1 34 68
M  V30 74 1 34 69
M  V30 75 1 35 70
M  V30 76 1 35 71
M  V30 77 1 35 72
M  V30 78 1 36 73
M  V30 79 1 37 74
M  V30 80 1 39 75
M  V30 81 1 41 76
M  V30 82 1 43 77
M  V30 83 1 44 78
M  V30 END BOND
M  V30 END CTAB
M  END
>  <Dataset>  (832) 
ChEMBL_Kinases

>  <Ligand_Instance>  (832) 
nan

>  <PDB_ID>  (832) 
nan

>  <Standardized_SMILES>  (832) 
CC(C)CC(=O)Nc1cncc(-c2ccc3[nH]nc(-c4nc5c(-c6cc(F)cc(NCCN(C)C)c6)cncc5[nH]4)c3c2)c1

>  <Name>  (832) 
nan

>  <Pocket>  (832) 
nan

>  <ATP_Site>  (832) 
nan

>  <Peripheral>  (832) 
nan

>  <Num_H_Atoms_ProtBoundConf>  (832) 
nan

>  <Num_Resolved_Atoms>  (832) 
nan

>  <Num_Not_Resolved_Atoms>  (832) 
nan

$$$$
CHEMBL4448806
     RDKit          3D

  0  0  0  0  0  0  0  0  0  0999 V3000
M  V30 BEGIN CTAB
M  V30 COUNTS 45 47 0 0 0
M  V30 BEGIN ATOM
M  V30 1 C 2.014164 -6.547807 -3.058607 0
M  V30 2 O 1.804670 -5.163787 -3.257368 0
M  V30 3 C 1.990334 -4.207712 -2.296705 0
M  V30 4 C 2.407344 -4.499257 -1.016252 0
M  V30 5 C 2.591239 -3.512856 -0.049678 0
M  V30 6 C 2.334227 -2.209107 -0.434131 0
M  V30 7 C 1.912372 -1.912089 -1.728859 0
M  V30 8 C 1.683971 -0.442525 -1.958505 0 CFG=1
M  V30 9 C 1.036853 -0.172962 -3.271716 0
M  V30 10 N 0.947205 0.022880 -0.817932 0
M  V30 11 C 1.320161 0.899107 0.214070 0
M  V30 12 O 2.465751 1.411735 0.229254 0
M  V30 13 C 0.412144 1.252550 1.302376 0
M  V30 14 C 0.874298 2.137626 2.275765 0
M  V30 15 C 0.055412 2.511511 3.338748 0
M  V30 16 C -1.231221 2.021942 3.463070 0
M  V30 17 C -2.146763 2.371623 4.549323 0
M  V30 18 C -3.077467 1.434126 4.974548 0
M  V30 19 C -3.983702 1.700438 6.004874 0
M  V30 20 N -3.950551 2.905314 6.601764 0
M  V30 21 C -3.056977 3.849170 6.216303 0
M  V30 22 C -2.148010 3.607083 5.196077 0
M  V30 23 C -1.668874 1.146000 2.486963 0
M  V30 24 C -0.869509 0.750218 1.404953 0
M  V30 25 C 1.740810 -2.907449 -2.657453 0
M  V30 26 H 1.373942 -7.146216 -3.734908 0
M  V30 27 H 3.077477 -6.754605 -3.337328 0
M  V30 28 H 1.859204 -6.887457 -2.030034 0
M  V30 29 H 2.608372 -5.518801 -0.716152 0
M  V30 30 H 2.920258 -3.800006 0.940464 0
M  V30 31 H 2.483163 -1.443577 0.336041 0
M  V30 32 H 2.725241 -0.014650 -2.001847 0
M  V30 33 H 0.977749 0.913232 -3.408117 0
M  V30 34 H 1.748689 -0.557465 -4.051274 0
M  V30 35 H 0.102168 -0.718689 -3.437143 0
M  V30 36 H 0.005120 -0.419403 -0.860755 0
M  V30 37 H 1.880357 2.561474 2.237907 0
M  V30 38 H 0.407687 3.205092 4.108229 0
M  V30 39 H -3.113847 0.445497 4.493860 0
M  V30 40 H -4.680695 0.908220 6.276086 0
M  V30 41 H -3.072486 4.797601 6.726951 0
M  V30 42 H -1.429601 4.346551 4.876133 0
M  V30 43 H -2.672782 0.721483 2.522811 0
M  V30 44 H -1.245526 0.067337 0.665500 0
M  V30 45 H 1.416462 -2.524392 -3.597161 0
M  V30 END ATOM
M  V30 BEGIN BOND
M  V30 1 1 1 2
M  V30 2 1 2 3
M  V30 3 2 3 4
M  V30 4 1 4 5
M  V30 5 2 5 6
M  V30 6 1 6 7
M  V30 7 1 7 8
M  V30 8 1 8 9
M  V30 9 1 8 10
M  V30 10 1 10 11
M  V30 11 2 11 12
M  V30 12 1 11 13
M  V30 13 2 13 14
M  V30 14 1 14 15
M  V30 15 2 15 16
M  V30 16 1 16 17
M  V30 17 2 17 18
M  V30 18 1 18 19
M  V30 19 2 19 20
M  V30 20 1 20 21
M  V30 21 2 21 22
M  V30 22 1 16 23
M  V30 23 2 23 24
M  V30 24 2 7 25
M  V30 25 1 25 3
M  V30 26 1 24 13
M  V30 27 1 22 17
M  V30 28 1 1 26
M  V30 29 1 1 27
M  V30 30 1 1 28
M  V30 31 1 4 29
M  V30 32 1 5 30
M  V30 33 1 6 31
M  V30 34 1 8 32 CFG=3
M  V30 35 1 9 33
M  V30 36 1 9 34
M  V30 37 1 9 35
M  V30 38 1 10 36
M  V30 39 1 14 37
M  V30 40 1 15 38
M  V30 41 1 18 39
M  V30 42 1 19 40
M  V30 43 1 21 41
M  V30 44 1 22 42
M  V30 45 1 23 43
M  V30 46 1 24 44
M  V30 47 1 25 45
M  V30 END BOND
M  V30 END CTAB
M  END
>  <Dataset>  (833) 
ChEMBL_Kinases

>  <Ligand_Instance>  (833) 
nan

>  <PDB_ID>  (833) 
nan

>  <Standardized_SMILES>  (833) 
COc1cccc([C@@H](C)NC(=O)c2ccc(-c3ccncc3)cc2)c1

>  <Name>  (833) 
nan

>  <Pocket>  (833) 
nan

>  <ATP_Site>  (833) 
nan

>  <Peripheral>  (833) 
nan

>  <Num_H_Atoms_ProtBoundConf>  (833) 
nan

>  <Num_Resolved_Atoms>  (833) 
nan

>  <Num_Not_Resolved_Atoms>  (833) 
nan

$$$$
CHEMBL4749762
     RDKit          3D

  0  0  0  0  0  0  0  0  0  0999 V3000
M  V30 BEGIN CTAB
M  V30 COUNTS 63 69 0 0 0
M  V30 BEGIN ATOM
M  V30 1 C 1.936714 -2.278411 1.153861 0
M  V30 2 C 3.111551 -3.061073 1.261962 0
M  V30 3 S 4.001645 -2.202248 2.660012 0
M  V30 4 C 2.759193 -0.970567 2.911505 0
M  V30 5 C 2.921510 0.052705 3.954049 0
M  V30 6 C 4.048401 0.047867 4.735186 0
M  V30 7 N 4.125299 1.025011 5.682588 0
M  V30 8 C 3.147159 1.938222 5.836986 0
M  V30 9 C 2.016786 1.919442 5.031829 0
M  V30 10 N 0.937605 2.761835 5.049902 0
M  V30 11 C 0.116988 2.302522 4.055728 0
M  V30 12 C -1.163301 2.921921 3.735854 0
M  V30 13 N -1.636337 3.991225 4.393578 0
M  V30 14 N -2.805958 4.360387 3.915080 0
M  V30 15 C -3.162987 3.534686 2.899712 0
M  V30 16 N -4.194432 3.357931 2.011812 0
M  V30 17 C -4.157226 2.362333 1.115903 0
M  V30 18 C -3.143866 1.441933 0.974337 0
M  V30 19 C -3.287309 0.436980 -0.061815 0
M  V30 20 C -3.982840 0.830989 -1.212176 0
M  V30 21 N -4.175838 -0.013441 -2.224601 0
M  V30 22 C -3.758084 -1.283881 -2.287207 0
M  V30 23 C -3.057004 -1.707988 -1.147798 0
M  V30 24 C -2.577281 -3.090534 -1.138028 0
M  V30 25 N -1.247044 -3.265406 -1.707794 0
M  V30 26 C -1.168085 -2.829972 -3.063424 0
M  V30 27 C 0.162351 -3.000165 -3.708997 0
M  V30 28 C 1.261399 -2.234661 -2.994438 0
M  V30 29 C 2.479218 -2.727994 -3.753901 0
M  V30 30 C 2.178133 -4.164955 -4.061612 0
M  V30 31 C 0.732372 -4.405441 -3.611315 0
M  V30 32 C -2.843806 -0.862903 -0.092161 0
M  V30 33 C -2.087180 1.602069 1.865055 0
M  V30 34 C -2.110633 2.614510 2.786521 0
M  V30 35 N 0.726905 1.245360 3.513116 0
M  V30 36 C 1.888780 0.955101 4.059448 0
M  V30 37 C 1.763913 -1.225233 1.988447 0
M  V30 38 H 1.175802 -2.529326 0.396914 0
M  V30 39 H 3.307276 -3.937909 0.602692 0
M  V30 40 H 4.848760 -0.651326 4.649150 0
M  V30 41 H 3.332491 2.643525 6.612587 0
M  V30 42 H 0.835284 3.561240 5.710381 0
M  V30 43 H -3.435126 5.142539 4.196983 0
M  V30 44 H -5.056916 2.402720 0.522414 0
M  V30 45 H -4.378263 1.823952 -1.308908 0
M  V30 46 H -3.910298 -1.970831 -3.102025 0
M  V30 47 H -3.277020 -3.763396 -1.667843 0
M  V30 48 H -2.519098 -3.460187 -0.090416 0
M  V30 49 H -0.945961 -4.258362 -1.614951 0
M  V30 50 H -1.915245 -3.379789 -3.701472 0
M  V30 51 H -1.465955 -1.750319 -3.185257 0
M  V30 52 H 0.170901 -2.677135 -4.774889 0
M  V30 53 H 1.325792 -2.679260 -1.987006 0
M  V30 54 H 1.142203 -1.152670 -3.018097 0
M  V30 55 H 3.385094 -2.583908 -3.143379 0
M  V30 56 H 2.537880 -2.143443 -4.708287 0
M  V30 57 H 2.260302 -4.393966 -5.152468 0
M  V30 58 H 2.875252 -4.831697 -3.495534 0
M  V30 59 H 0.212575 -5.131270 -4.238173 0
M  V30 60 H 0.752855 -4.753384 -2.579073 0
M  V30 61 H -2.300632 -1.164063 0.811066 0
M  V30 62 H -1.285484 0.889861 1.764021 0
M  V30 63 H 0.915357 -0.562322 1.994660 0
M  V30 END ATOM
M  V30 BEGIN BOND
M  V30 1 2 1 2
M  V30 2 1 2 3
M  V30 3 1 3 4
M  V30 4 1 4 5
M  V30 5 2 5 6
M  V30 6 1 6 7
M  V30 7 2 7 8
M  V30 8 1 8 9
M  V30 9 1 9 10
M  V30 10 1 10 11
M  V30 11 1 11 12
M  V30 12 2 12 13
M  V30 13 1 13 14
M  V30 14 1 14 15
M  V30 15 2 15 16
M  V30 16 1 16 17
M  V30 17 2 17 18
M  V30 18 1 18 19
M  V30 19 2 19 20
M  V30 20 1 20 21
M  V30 21 2 21 22
M  V30 22 1 22 23
M  V30 23 1 23 24
M  V30 24 1 24 25
M  V30 25 1 25 26
M  V30 26 1 26 27
M  V30 27 1 27 28
M  V30 28 1 28 29
M  V30 29 1 29 30
M  V30 30 1 30 31
M  V30 31 2 23 32
M  V30 32 1 18 33
M  V30 33 2 33 34
M  V30 34 2 11 35
M  V30 35 1 35 36
M  V30 36 2 4 37
M  V30 37 1 37 1
M  V30 38 1 36 5
M  V30 39 2 36 9
M  V30 40 1 34 12
M  V30 41 1 34 15
M  V30 42 1 32 19
M  V30 43 1 31 27
M  V30 44 1 1 38
M  V30 45 1 2 39
M  V30 46 1 6 40
M  V30 47 1 8 41
M  V30 48 1 10 42
M  V30 49 1 14 43
M  V30 50 1 17 44
M  V30 51 1 20 45
M  V30 52 1 22 46
M  V30 53 1 24 47
M  V30 54 1 24 48
M  V30 55 1 25 49
M  V30 56 1 26 50
M  V30 57 1 26 51
M  V30 58 1 27 52
M  V30 59 1 28 53
M  V30 60 1 28 54
M  V30 61 1 29 55
M  V30 62 1 29 56
M  V30 63 1 30 57
M  V30 64 1 30 58
M  V30 65 1 31 59
M  V30 66 1 31 60
M  V30 67 1 32 61
M  V30 68 1 33 62
M  V30 69 1 37 63
M  V30 END BOND
M  V30 END CTAB
M  END
>  <Dataset>  (834) 
ChEMBL_Kinases

>  <Ligand_Instance>  (834) 
nan

>  <PDB_ID>  (834) 
nan

>  <Standardized_SMILES>  (834) 
c1csc(-c2cncc3[nH]c(-c4n[nH]c5ncc(-c6cncc(CNCC7CCCC7)c6)cc45)nc23)c1

>  <Name>  (834) 
nan

>  <Pocket>  (834) 
nan

>  <ATP_Site>  (834) 
nan

>  <Peripheral>  (834) 
nan

>  <Num_H_Atoms_ProtBoundConf>  (834) 
nan

>  <Num_Resolved_Atoms>  (834) 
nan

>  <Num_Not_Resolved_Atoms>  (834) 
nan

$$$$
CHEMBL4449080
     RDKit          3D

  0  0  0  0  0  0  0  0  0  0999 V3000
M  V30 BEGIN CTAB
M  V30 COUNTS 52 55 0 0 0
M  V30 BEGIN ATOM
M  V30 1 C 1.483217 -4.022266 4.073723 0
M  V30 2 N 1.889371 -2.740450 3.484760 0
M  V30 3 N 2.693401 -1.901842 4.132465 0
M  V30 4 C 2.917387 -0.802091 3.388431 0
M  V30 5 C 2.199071 -1.008787 2.230741 0
M  V30 6 N 2.112214 -0.111005 1.105425 0
M  V30 7 C 1.067392 0.855942 1.122713 0
M  V30 8 O 0.352729 0.775486 2.157836 0
M  V30 9 C 0.910609 1.804220 0.017338 0
M  V30 10 C 1.728873 1.852987 -1.105718 0
M  V30 11 S 0.924735 3.290378 -2.051813 0
M  V30 12 C -0.296249 3.510330 -0.780008 0
M  V30 13 C -1.430828 4.569059 -0.777879 0
M  V30 14 C -2.291780 4.603696 0.285530 0
M  V30 15 F -2.140205 3.724335 1.305038 0
M  V30 16 C -3.272862 5.572038 0.213607 0
M  V30 17 C -3.369080 6.440880 -0.862962 0
M  V30 18 C -2.453176 6.347449 -1.916050 0
M  V30 19 C -1.439168 5.382852 -1.891773 0
M  V30 20 F -0.540028 5.265346 -2.889754 0
M  V30 21 N -0.066506 2.700124 0.041718 0
M  V30 22 C 1.539218 -2.238197 2.276770 0
M  V30 23 N 0.692160 -2.871161 1.325848 0
M  V30 24 C 1.422787 -3.711816 0.395507 0
M  V30 25 C 0.998253 -5.152108 0.570931 0
M  V30 26 C -0.484162 -5.293532 0.624970 0
M  V30 27 C -1.231122 -4.432672 -0.367927 0 CFG=2
M  V30 28 N -0.629600 -4.540261 -1.681674 0
M  V30 29 C -1.334063 -2.996051 0.007277 0
M  V30 30 C -0.721882 -2.654278 1.345921 0
M  V30 31 H 0.441714 -4.269569 3.729074 0
M  V30 32 H 2.219880 -4.799667 3.831886 0
M  V30 33 H 1.409172 -3.923530 5.166847 0
M  V30 34 H 3.503102 0.091990 3.558145 0
M  V30 35 H 2.775460 -0.156185 0.310710 0
M  V30 36 H 2.616974 1.129708 -1.253433 0
M  V30 37 H -3.966923 5.601140 1.069166 0
M  V30 38 H -4.151730 7.185801 -0.882141 0
M  V30 39 H -2.534790 7.031400 -2.756032 0
M  V30 40 H 1.141404 -3.342774 -0.625109 0
M  V30 41 H 2.502790 -3.592713 0.479626 0
M  V30 42 H 1.404683 -5.481632 1.569486 0
M  V30 43 H 1.483402 -5.743403 -0.232942 0
M  V30 44 H -0.855606 -5.086033 1.627444 0
M  V30 45 H -0.716119 -6.347040 0.336857 0
M  V30 46 H -2.256934 -4.861618 -0.416119 0
M  V30 47 H -1.347002 -4.403521 -2.402318 0
M  V30 48 H -0.067953 -5.398513 -1.828211 0
M  V30 49 H -0.848051 -2.359599 -0.759658 0
M  V30 50 H -2.401072 -2.674665 0.056144 0
M  V30 51 H -1.277800 -3.158922 2.135176 0
M  V30 52 H -0.940966 -1.555803 1.488096 0
M  V30 END ATOM
M  V30 BEGIN BOND
M  V30 1 1 1 2
M  V30 2 1 2 3
M  V30 3 2 3 4
M  V30 4 1 4 5
M  V30 5 1 5 6
M  V30 6 1 6 7
M  V30 7 2 7 8
M  V30 8 1 7 9
M  V30 9 2 9 10
M  V30 10 1 10 11
M  V30 11 1 11 12
M  V30 12 1 12 13
M  V30 13 2 13 14
M  V30 14 1 14 15
M  V30 15 1 14 16
M  V30 16 2 16 17
M  V30 17 1 17 18
M  V30 18 2 18 19
M  V30 19 1 19 20
M  V30 20 2 12 21
M  V30 21 2 5 22
M  V30 22 1 22 23
M  V30 23 1 23 24
M  V30 24 1 24 25
M  V30 25 1 25 26
M  V30 26 1 26 27
M  V30 27 1 27 28
M  V30 28 1 27 29
M  V30 29 1 29 30
M  V30 30 1 22 2
M  V30 31 1 30 23
M  V30 32 1 21 9
M  V30 33 1 19 13
M  V30 34 1 1 31
M  V30 35 1 1 32
M  V30 36 1 1 33
M  V30 37 1 4 34
M  V30 38 1 6 35
M  V30 39 1 10 36
M  V30 40 1 16 37
M  V30 41 1 17 38
M  V30 42 1 18 39
M  V30 43 1 24 40
M  V30 44 1 24 41
M  V30 45 1 25 42
M  V30 46 1 25 43
M  V30 47 1 26 44
M  V30 48 1 26 45
M  V30 49 1 27 46 CFG=3
M  V30 50 1 28 47
M  V30 51 1 28 48
M  V30 52 1 29 49
M  V30 53 1 29 50
M  V30 54 1 30 51
M  V30 55 1 30 52
M  V30 END BOND
M  V30 END CTAB
M  END
>  <Dataset>  (835) 
ChEMBL_Kinases

>  <Ligand_Instance>  (835) 
nan

>  <PDB_ID>  (835) 
nan

>  <Standardized_SMILES>  (835) 
Cn1ncc(NC(=O)c2csc(-c3c(F)cccc3F)n2)c1N1CCC[C@H](N)CC1

>  <Name>  (835) 
nan

>  <Pocket>  (835) 
nan

>  <ATP_Site>  (835) 
nan

>  <Peripheral>  (835) 
nan

>  <Num_H_Atoms_ProtBoundConf>  (835) 
nan

>  <Num_Resolved_Atoms>  (835) 
nan

>  <Num_Not_Resolved_Atoms>  (835) 
nan

$$$$
CHEMBL4749742
     RDKit          3D

  0  0  0  0  0  0  0  0  0  0999 V3000
M  V30 BEGIN CTAB
M  V30 COUNTS 56 61 0 0 0
M  V30 BEGIN ATOM
M  V30 1 C 0.608278 -2.897252 6.204803 0
M  V30 2 C 1.872294 -2.710270 5.685493 0
M  V30 3 C 1.969233 -1.967367 4.535597 0
M  V30 4 C 3.015540 -1.573615 3.741902 0
M  V30 5 C 2.584284 -0.807532 2.654643 0
M  V30 6 C 3.510484 -0.279575 1.677688 0
M  V30 7 N 4.846997 -0.445966 1.684894 0
M  V30 8 N 5.426868 0.151452 0.665335 0
M  V30 9 C 4.509612 0.759808 -0.094162 0
M  V30 10 C 4.588932 1.506488 -1.250914 0
M  V30 11 C 3.414107 2.003734 -1.795665 0
M  V30 12 C 2.183285 1.750801 -1.182838 0
M  V30 13 C 0.939897 2.273618 -1.755725 0
M  V30 14 C 0.814402 3.458064 -2.450584 0
M  V30 15 N -0.404408 3.833916 -2.938576 0
M  V30 16 C -1.493026 3.057656 -2.748727 0
M  V30 17 C -1.427463 1.866924 -2.063823 0
M  V30 18 O -2.533846 1.026370 -1.840741 0
M  V30 19 C -2.358723 -0.198181 -1.113432 0
M  V30 20 C -3.666265 -0.902464 -1.007850 0
M  V30 21 N -3.607418 -2.144171 -0.296154 0
M  V30 22 C -4.863196 -2.825030 -0.172262 0
M  V30 23 C -4.822222 -4.033401 -1.045902 0
M  V30 24 C -3.353652 -4.364594 -1.104436 0
M  V30 25 C -2.632605 -3.080103 -0.737526 0
M  V30 26 C -0.182063 1.473082 -1.559834 0
M  V30 27 C 2.188671 0.996047 -0.028868 0
M  V30 28 C 3.323928 0.481892 0.549016 0
M  V30 29 N 1.268245 -0.789204 2.870537 0
M  V30 30 C 0.860512 -1.445796 3.946428 0
M  V30 31 C -0.372020 -1.670883 4.517803 0
M  V30 32 N -0.496537 -2.392536 5.640521 0
M  V30 33 H 0.593820 -3.499741 7.125278 0
M  V30 34 H 2.760370 -3.111795 6.132837 0
M  V30 35 H 4.041416 -1.865038 3.995917 0
M  V30 36 H 6.460890 0.108953 0.539678 0
M  V30 37 H 5.558191 1.693876 -1.715694 0
M  V30 38 H 3.419600 2.596448 -2.702859 0
M  V30 39 H 1.716115 4.043692 -2.575832 0
M  V30 40 H -2.462966 3.367483 -3.143384 0
M  V30 41 H -2.005857 0.090801 -0.106924 0
M  V30 42 H -1.611092 -0.759009 -1.695533 0
M  V30 43 H -4.087237 -1.024089 -2.033343 0
M  V30 44 H -4.393499 -0.243544 -0.477641 0
M  V30 45 H -5.038603 -3.192085 0.880054 0
M  V30 46 H -5.735285 -2.214808 -0.453765 0
M  V30 47 H -5.387282 -4.888662 -0.579227 0
M  V30 48 H -5.238701 -3.823817 -2.068717 0
M  V30 49 H -3.130603 -5.197278 -0.405321 0
M  V30 50 H -3.063603 -4.717229 -2.116458 0
M  V30 51 H -1.929912 -2.754373 -1.499836 0
M  V30 52 H -1.996764 -3.333620 0.161063 0
M  V30 53 H -0.150904 0.533997 -1.025939 0
M  V30 54 H 1.245965 0.825927 0.408111 0
M  V30 55 H 0.595012 -0.302043 2.253043 0
M  V30 56 H -1.247690 -1.251828 4.040699 0
M  V30 END ATOM
M  V30 BEGIN BOND
M  V30 1 2 1 2
M  V30 2 1 2 3
M  V30 3 1 3 4
M  V30 4 2 4 5
M  V30 5 1 5 6
M  V30 6 2 6 7
M  V30 7 1 7 8
M  V30 8 1 8 9
M  V30 9 2 9 10
M  V30 10 1 10 11
M  V30 11 2 11 12
M  V30 12 1 12 13
M  V30 13 2 13 14
M  V30 14 1 14 15
M  V30 15 2 15 16
M  V30 16 1 16 17
M  V30 17 1 17 18
M  V30 18 1 18 19
M  V30 19 1 19 20
M  V30 20 1 20 21
M  V30 21 1 21 22
M  V30 22 1 22 23
M  V30 23 1 23 24
M  V30 24 1 24 25
M  V30 25 2 17 26
M  V30 26 1 12 27
M  V30 27 2 27 28
M  V30 28 1 5 29
M  V30 29 1 29 30
M  V30 30 1 30 31
M  V30 31 2 31 32
M  V30 32 1 32 1
M  V30 33 2 30 3
M  V30 34 1 28 6
M  V30 35 1 28 9
M  V30 36 1 26 13
M  V30 37 1 25 21
M  V30 38 1 1 33
M  V30 39 1 2 34
M  V30 40 1 4 35
M  V30 41 1 8 36
M  V30 42 1 10 37
M  V30 43 1 11 38
M  V30 44 1 14 39
M  V30 45 1 16 40
M  V30 46 1 19 41
M  V30 47 1 19 42
M  V30 48 1 20 43
M  V30 49 1 20 44
M  V30 50 1 22 45
M  V30 51 1 22 46
M  V30 52 1 23 47
M  V30 53 1 23 48
M  V30 54 1 24 49
M  V30 55 1 24 50
M  V30 56 1 25 51
M  V30 57 1 25 52
M  V30 58 1 26 53
M  V30 59 1 27 54
M  V30 60 1 29 55
M  V30 61 1 31 56
M  V30 END BOND
M  V30 END CTAB
M  END
>  <Dataset>  (836) 
ChEMBL_Kinases

>  <Ligand_Instance>  (836) 
nan

>  <PDB_ID>  (836) 
nan

>  <Standardized_SMILES>  (836) 
c1cc2cc(-c3n[nH]c4ccc(-c5cncc(OCCN6CCCC6)c5)cc34)[nH]c2cn1

>  <Name>  (836) 
nan

>  <Pocket>  (836) 
nan

>  <ATP_Site>  (836) 
nan

>  <Peripheral>  (836) 
nan

>  <Num_H_Atoms_ProtBoundConf>  (836) 
nan

>  <Num_Resolved_Atoms>  (836) 
nan

>  <Num_Not_Resolved_Atoms>  (836) 
nan

$$$$
CHEMBL4450356
     RDKit          3D

  0  0  0  0  0  0  0  0  0  0999 V3000
M  V30 BEGIN CTAB
M  V30 COUNTS 54 57 0 0 0
M  V30 BEGIN ATOM
M  V30 1 C 0.661305 -5.456444 2.107899 0
M  V30 2 N 0.821508 -4.076000 2.514150 0
M  V30 3 N 1.310393 -3.515964 3.599519 0
M  V30 4 C 1.221815 -2.157526 3.472291 0
M  V30 5 C 0.639609 -1.894113 2.223817 0
M  V30 6 N 0.509367 -0.496528 2.002432 0
M  V30 7 C -0.599202 0.310835 2.356348 0
M  V30 8 O -1.552067 -0.324418 2.927896 0
M  V30 9 C -0.721723 1.746341 2.125492 0
M  V30 10 N 0.277644 2.403571 1.520712 0
M  V30 11 C 0.191265 3.622469 1.313535 0
M  V30 12 C 1.197170 4.552850 0.648144 0
M  V30 13 C 0.835865 5.889611 0.538461 0
M  V30 14 F -0.332890 6.382513 0.984886 0
M  V30 15 C 1.755311 6.724975 -0.068014 0
M  V30 16 C 2.953929 6.217755 -0.525038 0
M  V30 17 C 3.278829 4.873756 -0.396739 0
M  V30 18 C 2.370819 4.002178 0.211914 0
M  V30 19 F 2.627926 2.681992 0.367027 0
M  V30 20 S -1.334814 4.185366 1.918366 0
M  V30 21 C -1.838512 2.434258 2.512045 0
M  V30 22 N -2.996438 1.975203 3.151960 0
M  V30 23 C 0.399842 -3.150920 1.645836 0
M  V30 24 N -0.191744 -3.050186 0.351643 0
M  V30 25 C -1.637740 -3.122626 0.363082 0
M  V30 26 C -2.230578 -3.171264 -1.008693 0
M  V30 27 C -1.974017 -4.446102 -1.743247 0 CFG=1
M  V30 28 N -2.761719 -4.449966 -2.964241 0
M  V30 29 C -0.525257 -4.707099 -1.991508 0
M  V30 30 F -0.406346 -5.334463 -3.234701 0
M  V30 31 F -0.058588 -5.548432 -0.999617 0
M  V30 32 C 0.274122 -3.435959 -2.052158 0
M  V30 33 C 0.711343 -2.892571 -0.738901 0
M  V30 34 H 0.884839 -6.119597 2.973075 0
M  V30 35 H -0.346271 -5.663936 1.717013 0
M  V30 36 H 1.369333 -5.747602 1.308276 0
M  V30 37 H 1.617694 -1.647950 4.353604 0
M  V30 38 H 1.305815 -0.026929 1.535636 0
M  V30 39 H 1.517761 7.782692 -0.177110 0
M  V30 40 H 3.687409 6.882333 -1.008701 0
M  V30 41 H 4.238666 4.486515 -0.766728 0
M  V30 42 H -2.980606 2.138920 4.173771 0
M  V30 43 H -3.815008 1.512605 2.702130 0
M  V30 44 H -2.005159 -2.162475 0.831157 0
M  V30 45 H -2.012047 -3.956121 0.987045 0
M  V30 46 H -3.346314 -3.121019 -0.856402 0
M  V30 47 H -1.971192 -2.251587 -1.567545 0
M  V30 48 H -2.369630 -5.271266 -1.096692 0
M  V30 49 H -2.452198 -5.258731 -3.571028 0
M  V30 50 H -3.764352 -4.570056 -2.654472 0
M  V30 51 H -0.318284 -2.704849 -2.658672 0
M  V30 52 H 1.215401 -3.581176 -2.658948 0
M  V30 53 H 0.837944 -1.778287 -0.876499 0
M  V30 54 H 1.720729 -3.238034 -0.414809 0
M  V30 END ATOM
M  V30 BEGIN BOND
M  V30 1 1 1 2
M  V30 2 1 2 3
M  V30 3 2 3 4
M  V30 4 1 4 5
M  V30 5 1 5 6
M  V30 6 1 6 7
M  V30 7 2 7 8
M  V30 8 1 7 9
M  V30 9 1 9 10
M  V30 10 2 10 11
M  V30 11 1 11 12
M  V30 12 2 12 13
M  V30 13 1 13 14
M  V30 14 1 13 15
M  V30 15 2 15 16
M  V30 16 1 16 17
M  V30 17 2 17 18
M  V30 18 1 18 19
M  V30 19 1 11 20
M  V30 20 1 20 21
M  V30 21 1 21 22
M  V30 22 2 5 23
M  V30 23 1 23 24
M  V30 24 1 24 25
M  V30 25 1 25 26
M  V30 26 1 26 27
M  V30 27 1 27 28
M  V30 28 1 27 29
M  V30 29 1 29 30
M  V30 30 1 29 31
M  V30 31 1 29 32
M  V30 32 1 32 33
M  V30 33 1 23 2
M  V30 34 1 33 24
M  V30 35 2 21 9
M  V30 36 1 18 12
M  V30 37 1 1 34
M  V30 38 1 1 35
M  V30 39 1 1 36
M  V30 40 1 4 37
M  V30 41 1 6 38
M  V30 42 1 15 39
M  V30 43 1 16 40
M  V30 44 1 17 41
M  V30 45 1 22 42
M  V30 46 1 22 43
M  V30 47 1 25 44
M  V30 48 1 25 45
M  V30 49 1 26 46
M  V30 50 1 26 47
M  V30 51 1 27 48 CFG=1
M  V30 52 1 28 49
M  V30 53 1 28 50
M  V30 54 1 32 51
M  V30 55 1 32 52
M  V30 56 1 33 53
M  V30 57 1 33 54
M  V30 END BOND
M  V30 END CTAB
M  END
>  <Dataset>  (837) 
ChEMBL_Kinases

>  <Ligand_Instance>  (837) 
nan

>  <PDB_ID>  (837) 
nan

>  <Standardized_SMILES>  (837) 
Cn1ncc(NC(=O)c2nc(-c3c(F)cccc3F)sc2N)c1N1CC[C@@H](N)C(F)(F)CC1

>  <Name>  (837) 
nan

>  <Pocket>  (837) 
nan

>  <ATP_Site>  (837) 
nan

>  <Peripheral>  (837) 
nan

>  <Num_H_Atoms_ProtBoundConf>  (837) 
nan

>  <Num_Resolved_Atoms>  (837) 
nan

>  <Num_Not_Resolved_Atoms>  (837) 
nan

$$$$
CHEMBL4749673
     RDKit          3D

  0  0  0  0  0  0  0  0  0  0999 V3000
M  V30 BEGIN CTAB
M  V30 COUNTS 49 52 0 0 0
M  V30 BEGIN ATOM
M  V30 1 C 3.985381 -3.692015 5.382681 0
M  V30 2 O 4.336341 -4.291961 4.140283 0
M  V30 3 C 4.250974 -3.623224 2.937135 0
M  V30 4 C 4.611595 -4.279025 1.773769 0
M  V30 5 N 4.558407 -3.706601 0.575620 0
M  V30 6 C 4.138254 -2.427343 0.447575 0
M  V30 7 C 3.756201 -1.689453 1.555941 0
M  V30 8 C 3.289533 -0.308094 1.527286 0
M  V30 9 O 2.950750 0.321436 2.580687 0
M  V30 10 N 3.181249 0.428363 0.323711 0
M  V30 11 C 2.723830 1.792795 0.265507 0
M  V30 12 C 3.593880 2.877867 0.366135 0
M  V30 13 N 2.831526 3.982310 0.272330 0
M  V30 14 N 1.561110 3.632755 0.122010 0
M  V30 15 C 1.446597 2.290094 0.112056 0
M  V30 16 C 0.269268 1.446169 -0.025801 0
M  V30 17 O 0.446303 0.204694 -0.001170 0
M  V30 18 N -1.045350 1.939034 -0.183839 0
M  V30 19 C -2.275356 1.254219 -0.328429 0
M  V30 20 C -3.429143 1.961576 -0.467972 0
M  V30 21 C -4.655588 1.355264 -0.612378 0
M  V30 22 C -4.784216 -0.016367 -0.623746 0
M  V30 23 C -3.638993 -0.771412 -0.485092 0
M  V30 24 C -2.438926 -0.110808 -0.343982 0
M  V30 25 C -3.733681 -2.253770 -0.492215 0
M  V30 26 C -4.863605 -2.577385 -1.476018 0
M  V30 27 N -6.088889 -2.036517 -0.972838 0
M  V30 28 C -6.109424 -0.621934 -0.779938 0
M  V30 29 C 3.822472 -2.315009 2.796376 0
M  V30 30 H 4.859643 -3.082515 5.710237 0
M  V30 31 H 3.101954 -3.037517 5.302902 0
M  V30 32 H 3.766888 -4.482972 6.119511 0
M  V30 33 H 4.965117 -5.315998 1.767998 0
M  V30 34 H 4.084187 -1.934578 -0.513834 0
M  V30 35 H 3.435901 -0.001715 -0.591963 0
M  V30 36 H 4.664106 2.802167 0.493782 0
M  V30 37 H 3.230851 4.947188 0.317232 0
M  V30 38 H -1.056386 2.984962 -0.188170 0
M  V30 39 H -3.380880 3.061194 -0.465404 0
M  V30 40 H -5.515625 2.002313 -0.716739 0
M  V30 41 H -1.587663 -0.762762 -0.240643 0
M  V30 42 H -2.792050 -2.757503 -0.761712 0
M  V30 43 H -4.084863 -2.531672 0.543677 0
M  V30 44 H -4.546796 -2.130565 -2.429162 0
M  V30 45 H -4.996776 -3.672982 -1.553354 0
M  V30 46 H -6.408763 -2.607618 -0.168252 0
M  V30 47 H -6.641069 -0.125233 -1.625704 0
M  V30 48 H -6.733808 -0.424598 0.134565 0
M  V30 49 H 3.538432 -1.802705 3.724947 0
M  V30 END ATOM
M  V30 BEGIN BOND
M  V30 1 1 1 2
M  V30 2 1 2 3
M  V30 3 2 3 4
M  V30 4 1 4 5
M  V30 5 2 5 6
M  V30 6 1 6 7
M  V30 7 1 7 8
M  V30 8 2 8 9
M  V30 9 1 8 10
M  V30 10 1 10 11
M  V30 11 2 11 12
M  V30 12 1 12 13
M  V30 13 1 13 14
M  V30 14 2 14 15
M  V30 15 1 15 16
M  V30 16 2 16 17
M  V30 17 1 16 18
M  V30 18 1 18 19
M  V30 19 2 19 20
M  V30 20 1 20 21
M  V30 21 2 21 22
M  V30 22 1 22 23
M  V30 23 2 23 24
M  V30 24 1 23 25
M  V30 25 1 25 26
M  V30 26 1 26 27
M  V30 27 1 27 28
M  V30 28 2 7 29
M  V30 29 1 29 3
M  V30 30 1 15 11
M  V30 31 1 24 19
M  V30 32 1 28 22
M  V30 33 1 1 30
M  V30 34 1 1 31
M  V30 35 1 1 32
M  V30 36 1 4 33
M  V30 37 1 6 34
M  V30 38 1 10 35
M  V30 39 1 12 36
M  V30 40 1 13 37
M  V30 41 1 18 38
M  V30 42 1 20 39
M  V30 43 1 21 40
M  V30 44 1 24 41
M  V30 45 1 25 42
M  V30 46 1 25 43
M  V30 47 1 26 44
M  V30 48 1 26 45
M  V30 49 1 27 46
M  V30 50 1 28 47
M  V30 51 1 28 48
M  V30 52 1 29 49
M  V30 END BOND
M  V30 END CTAB
M  END
>  <Dataset>  (838) 
ChEMBL_Kinases

>  <Ligand_Instance>  (838) 
nan

>  <PDB_ID>  (838) 
nan

>  <Standardized_SMILES>  (838) 
COc1cncc(C(=O)Nc2c[nH]nc2C(=O)Nc2ccc3c(c2)CCNC3)c1

>  <Name>  (838) 
nan

>  <Pocket>  (838) 
nan

>  <ATP_Site>  (838) 
nan

>  <Peripheral>  (838) 
nan

>  <Num_H_Atoms_ProtBoundConf>  (838) 
nan

>  <Num_Resolved_Atoms>  (838) 
nan

>  <Num_Not_Resolved_Atoms>  (838) 
nan

$$$$
CHEMBL4749646
     RDKit          3D

  0  0  0  0  0  0  0  0  0  0999 V3000
M  V30 BEGIN CTAB
M  V30 COUNTS 127 135 0 0 0
M  V30 BEGIN ATOM
M  V30 1 C 3.967344 2.121005 2.297765 0
M  V30 2 C 4.418338 3.385550 1.649180 0
M  V30 3 C 5.420053 4.007336 2.664691 0
M  V30 4 C 5.081519 3.198448 0.364255 0
M  V30 5 C 6.475404 3.206378 0.225199 0
M  V30 6 C 6.776125 3.028839 -1.112957 0
M  V30 7 N 5.603391 2.918457 -1.755652 0
M  V30 8 N 5.405057 2.737524 -3.047180 0
M  V30 9 C 4.136142 2.652563 -3.472287 0
M  V30 10 N 3.089322 2.744634 -2.634824 0
M  V30 11 C 3.271399 2.932530 -1.293332 0
M  V30 12 N 2.120164 3.005181 -0.469763 0
M  V30 13 C 0.833869 2.917532 -1.142661 0 CFG=1
M  V30 14 C -0.274135 2.769692 -0.145741 0
M  V30 15 C -1.602746 3.311459 -0.568855 0
M  V30 16 C -1.804605 3.486713 -2.031211 0 CFG=1
M  V30 17 N -3.003973 4.227250 -2.276741 0
M  V30 18 C -3.245770 4.437137 -3.701892 0
M  V30 19 C -3.493269 3.160243 -4.457438 0
M  V30 20 N -4.131983 2.208675 -3.535719 0
M  V30 21 C -4.034921 0.779379 -3.317285 0
M  V30 22 O -4.745180 0.206445 -2.463722 0
M  V30 23 C -3.061363 -0.033295 -4.127913 0
M  V30 24 C -3.157353 -1.496620 -3.742376 0
M  V30 25 C -2.199882 -2.358963 -4.438715 0
M  V30 26 O -1.284172 -2.305380 -5.294747 0
M  V30 27 N -2.304266 -3.738345 -4.037856 0
M  V30 28 C -1.365581 -4.706466 -4.593796 0
M  V30 29 C -0.359615 -5.099435 -3.513742 0
M  V30 30 C -0.978295 -4.998307 -2.152251 0
M  V30 31 C -0.278466 -5.842131 -1.127334 0
M  V30 32 C 1.164854 -5.412014 -0.952446 0
M  V30 33 N 1.911276 -6.153045 -0.018054 0
M  V30 34 C 3.214930 -5.636220 0.175309 0
M  V30 35 C 3.355552 -4.681570 1.340535 0
M  V30 36 N 2.160679 -4.537462 2.123236 0
M  V30 37 C 1.580832 -3.303023 2.566962 0
M  V30 38 C 2.273286 -2.136525 2.565293 0
M  V30 39 C 1.623143 -0.988749 3.004312 0
M  V30 40 C 0.320820 -0.940988 3.444364 0
M  V30 41 C -0.362045 -2.139657 3.436008 0
M  V30 42 C 0.276678 -3.292433 2.999951 0
M  V30 43 C -1.721254 -1.845795 3.940535 0
M  V30 44 O -2.639652 -2.712595 4.075405 0
M  V30 45 N -1.822624 -0.463394 4.242015 0
M  V30 46 C -3.018434 0.166717 4.750333 0
M  V30 47 C -4.104574 0.093492 3.696793 0
M  V30 48 C -5.482967 -0.109725 4.270585 0
M  V30 49 C -5.505163 -1.423745 5.001039 0
M  V30 50 O -6.249877 -2.446251 4.911587 0
M  V30 51 N -4.443729 -1.455657 5.980533 0
M  V30 52 C -3.436844 -0.420594 6.028460 0
M  V30 53 O -3.014965 -0.123445 7.181579 0
M  V30 54 C -0.549358 0.142242 3.940808 0
M  V30 55 O -0.245429 1.348236 4.075253 0
M  V30 56 C 1.654269 -5.844638 2.401709 0
M  V30 57 C 1.316746 -6.627320 1.159424 0
M  V30 58 C -2.454806 -5.161016 -2.125149 0
M  V30 59 C -3.232461 -4.382616 -3.123174 0
M  V30 60 C -5.044827 2.938612 -2.650624 0
M  V30 61 C -4.209395 3.768668 -1.684117 0
M  V30 62 C -0.649476 4.197494 -2.703042 0
M  V30 63 C 0.615560 4.214955 -1.888706 0
M  V30 64 C 4.581505 3.016916 -0.887604 0
M  V30 65 H 3.323684 1.499422 1.645584 0
M  V30 66 H 3.391108 2.297306 3.238885 0
M  V30 67 H 4.805735 1.458605 2.605216 0
M  V30 68 H 3.606676 4.115455 1.562946 0
M  V30 69 H 5.840615 4.947087 2.273466 0
M  V30 70 H 4.919899 4.099479 3.650704 0
M  V30 71 H 6.259850 3.298539 2.813740 0
M  V30 72 H 7.217590 3.331282 1.025588 0
M  V30 73 H 7.786449 2.998192 -1.484885 0
M  V30 74 H 3.963756 2.505330 -4.528753 0
M  V30 75 H 1.954990 3.102878 0.537693 0
M  V30 76 H 0.821979 2.096582 -1.885610 0
M  V30 77 H -0.353035 1.691033 0.132937 0
M  V30 78 H 0.030172 3.297698 0.802681 0
M  V30 79 H -1.874576 4.226168 0.001490 0
M  V30 80 H -2.368076 2.550385 -0.224929 0
M  V30 81 H -1.867824 2.461120 -2.487333 0
M  V30 82 H -4.234994 4.991183 -3.715184 0
M  V30 83 H -2.538328 5.126424 -4.150113 0
M  V30 84 H -2.537278 2.801731 -4.854272 0
M  V30 85 H -4.228384 3.391380 -5.278278 0
M  V30 86 H -3.324359 0.147161 -5.197137 0
M  V30 87 H -2.026009 0.267069 -4.000090 0
M  V30 88 H -3.015207 -1.535512 -2.630580 0
M  V30 89 H -4.186827 -1.823893 -3.943373 0
M  V30 90 H -0.822642 -4.216542 -5.414239 0
M  V30 91 H -1.926440 -5.555546 -4.973881 0
M  V30 92 H -0.099735 -6.153307 -3.703829 0
M  V30 93 H 0.554566 -4.498871 -3.635988 0
M  V30 94 H -0.787073 -3.928779 -1.825065 0
M  V30 95 H -0.826200 -5.639820 -0.157132 0
M  V30 96 H -0.399191 -6.892918 -1.404981 0
M  V30 97 H 1.152380 -4.302290 -0.788845 0
M  V30 98 H 1.645433 -5.534579 -1.968037 0
M  V30 99 H 3.932033 -6.504312 0.254177 0
M  V30 100 H 3.542370 -5.130116 -0.782107 0
M  V30 101 H 4.128872 -5.115856 2.017892 0
M  V30 102 H 3.691788 -3.690831 0.951681 0
M  V30 103 H 3.295144 -2.085756 2.235765 0
M  V30 104 H 2.131164 -0.025349 3.025408 0
M  V30 105 H -0.367504 -4.162464 3.037780 0
M  V30 106 H -2.834614 1.267027 4.916306 0
M  V30 107 H -4.115253 1.035090 3.076978 0
M  V30 108 H -3.894531 -0.725359 2.982983 0
M  V30 109 H -6.188992 -0.086889 3.420166 0
M  V30 110 H -5.759864 0.683035 4.995983 0
M  V30 111 H -4.411447 -2.258983 6.673224 0
M  V30 112 H 0.806453 -5.797288 3.111464 0
M  V30 113 H 2.457048 -6.381081 2.998012 0
M  V30 114 H 1.713386 -7.676808 1.326098 0
M  V30 115 H 0.218898 -6.771866 1.160578 0
M  V30 116 H -2.905699 -5.019543 -1.132331 0
M  V30 117 H -2.649864 -6.250761 -2.363204 0
M  V30 118 H -3.897357 -5.015255 -3.770875 0
M  V30 119 H -3.861883 -3.633346 -2.594331 0
M  V30 120 H -5.628173 2.229223 -2.056945 0
M  V30 121 H -5.715717 3.577146 -3.237385 0
M  V30 122 H -4.106741 3.276016 -0.727226 0
M  V30 123 H -4.857262 4.679172 -1.471333 0
M  V30 124 H -0.479709 3.709097 -3.679434 0
M  V30 125 H -0.936596 5.239458 -2.934365 0
M  V30 126 H 0.545513 5.025707 -1.136048 0
M  V30 127 H 1.478782 4.393250 -2.542306 0
M  V30 END ATOM
M  V30 BEGIN BOND
M  V30 1 1 1 2
M  V30 2 1 2 3
M  V30 3 1 2 4
M  V30 4 1 4 5
M  V30 5 2 5 6
M  V30 6 1 6 7
M  V30 7 1 7 8
M  V30 8 2 8 9
M  V30 9 1 9 10
M  V30 10 2 10 11
M  V30 11 1 11 12
M  V30 12 1 12 13
M  V30 13 1 13 14
M  V30 14 1 14 15
M  V30 15 1 15 16
M  V30 16 1 16 17
M  V30 17 1 17 18
M  V30 18 1 18 19
M  V30 19 1 19 20
M  V30 20 1 20 21
M  V30 21 2 21 22
M  V30 22 1 21 23
M  V30 23 1 23 24
M  V30 24 1 24 25
M  V30 25 2 25 26
M  V30 26 1 25 27
M  V30 27 1 27 28
M  V30 28 1 28 29
M  V30 29 1 29 30
M  V30 30 1 30 31
M  V30 31 1 31 32
M  V30 32 1 32 33
M  V30 33 1 33 34
M  V30 34 1 34 35
M  V30 35 1 35 36
M  V30 36 1 36 37
M  V30 37 2 37 38
M  V30 38 1 38 39
M  V30 39 2 39 40
M  V30 40 1 40 41
M  V30 41 2 41 42
M  V30 42 1 41 43
M  V30 43 2 43 44
M  V30 44 1 43 45
M  V30 45 1 45 46
M  V30 46 1 46 47
M  V30 47 1 47 48
M  V30 48 1 48 49
M  V30 49 2 49 50
M  V30 50 1 49 51
M  V30 51 1 51 52
M  V30 52 2 52 53
M  V30 53 1 45 54
M  V30 54 2 54 55
M  V30 55 1 36 56
M  V30 56 1 56 57
M  V30 57 1 30 58
M  V30 58 1 58 59
M  V30 59 1 20 60
M  V30 60 1 60 61
M  V30 61 1 16 62
M  V30 62 1 62 63
M  V30 63 1 11 64
M  V30 64 2 64 4
M  V30 65 1 64 7
M  V30 66 1 63 13
M  V30 67 1 61 17
M  V30 68 1 59 27
M  V30 69 1 57 33
M  V30 70 1 42 37
M  V30 71 1 52 46
M  V30 72 1 54 40
M  V30 73 1 1 65
M  V30 74 1 1 66
M  V30 75 1 1 67
M  V30 76 1 2 68
M  V30 77 1 3 69
M  V30 78 1 3 70
M  V30 79 1 3 71
M  V30 80 1 5 72
M  V30 81 1 6 73
M  V30 82 1 9 74
M  V30 83 1 12 75
M  V30 84 1 13 76 CFG=3
M  V30 85 1 14 77
M  V30 86 1 14 78
M  V30 87 1 15 79
M  V30 88 1 15 80
M  V30 89 1 16 81 CFG=3
M  V30 90 1 18 82
M  V30 91 1 18 83
M  V30 92 1 19 84
M  V30 93 1 19 85
M  V30 94 1 23 86
M  V30 95 1 23 87
M  V30 96 1 24 88
M  V30 97 1 24 89
M  V30 98 1 28 90
M  V30 99 1 28 91
M  V30 100 1 29 92
M  V30 101 1 29 93
M  V30 102 1 30 94
M  V30 103 1 31 95
M  V30 104 1 31 96
M  V30 105 1 32 97
M  V30 106 1 32 98
M  V30 107 1 34 99
M  V30 108 1 34 100
M  V30 109 1 35 101
M  V30 110 1 35 102
M  V30 111 1 38 103
M  V30 112 1 39 104
M  V30 113 1 42 105
M  V30 114 1 46 106
M  V30 115 1 47 107
M  V30 116 1 47 108
M  V30 117 1 48 109
M  V30 118 1 48 110
M  V30 119 1 51 111
M  V30 120 1 56 112
M  V30 121 1 56 113
M  V30 122 1 57 114
M  V30 123 1 57 115
M  V30 124 1 58 116
M  V30 125 1 58 117
M  V30 126 1 59 118
M  V30 127 1 59 119
M  V30 128 1 60 120
M  V30 129 1 60 121
M  V30 130 1 61 122
M  V30 131 1 61 123
M  V30 132 1 62 124
M  V30 133 1 62 125
M  V30 134 1 63 126
M  V30 135 1 63 127
M  V30 END BOND
M  V30 END CTAB
M  END
>  <Dataset>  (839) 
ChEMBL_Kinases

>  <Ligand_Instance>  (839) 
nan

>  <PDB_ID>  (839) 
nan

>  <Standardized_SMILES>  (839) 
CC(C)c1ccn2ncnc(N[C@H]3CC[C@@H](N4CCN(C(=O)CCC(=O)N5CCC(CCN6CCN(c7ccc8c(c7)C(=O)N(C7CCC(=O)NC7=O)C8=O)CC6)CC5)CC4)CC3)c12

>  <Name>  (839) 
nan

>  <Pocket>  (839) 
nan

>  <ATP_Site>  (839) 
nan

>  <Peripheral>  (839) 
nan

>  <Num_H_Atoms_ProtBoundConf>  (839) 
nan

>  <Num_Resolved_Atoms>  (839) 
nan

>  <Num_Not_Resolved_Atoms>  (839) 
nan

$$$$
CHEMBL4749618
     RDKit          3D

  0  0  0  0  0  0  0  0  0  0999 V3000
M  V30 BEGIN CTAB
M  V30 COUNTS 43 48 0 0 0
M  V30 BEGIN ATOM
M  V30 1 C 2.099259 -2.449790 5.416034 0
M  V30 2 C 1.022241 -3.206641 4.948751 0
M  V30 3 N 0.580212 -3.192007 3.680422 0
M  V30 4 C 1.161026 -2.423784 2.740972 0
M  V30 5 C 2.244298 -1.639912 3.136262 0
M  V30 6 C 2.867403 -0.810227 2.110274 0
M  V30 7 C 4.202568 -0.467504 2.075000 0
M  V30 8 C 4.728424 0.327801 1.064156 0
M  V30 9 C 3.902082 0.795822 0.059226 0
M  V30 10 N 4.060608 1.559581 -1.036262 0
M  V30 11 N 2.899637 1.712992 -1.686967 0
M  V30 12 C 1.934001 1.046410 -1.029351 0
M  V30 13 C 0.521431 0.934894 -1.371175 0
M  V30 14 N -0.399775 0.250592 -0.671621 0
M  V30 15 C -1.601232 0.353150 -1.261078 0
M  V30 16 C -2.823949 -0.187864 -0.887208 0
M  V30 17 C -2.896840 -1.001515 0.316451 0
M  V30 18 C -2.129302 -2.015973 0.853495 0
M  V30 19 C -2.756413 -2.371085 2.046199 0
M  V30 20 O -3.824354 -1.632263 2.225817 0
M  V30 21 C -3.929985 -0.809401 1.210287 0
M  V30 22 C -3.882445 0.097883 -1.701981 0
M  V30 23 N -3.754826 0.868437 -2.818955 0
M  V30 24 C -2.542396 1.384646 -3.159004 0
M  V30 25 C -1.414901 1.149739 -2.396104 0
M  V30 26 N -0.106061 1.482465 -2.424643 0
M  V30 27 C 2.558979 0.474804 0.059039 0
M  V30 28 C 2.088097 -0.317123 1.084512 0
M  V30 29 C 2.687119 -1.665503 4.442994 0
M  V30 30 H 2.421786 -2.492295 6.445078 0
M  V30 31 H 0.515369 -3.846440 5.670055 0
M  V30 32 H 0.737450 -2.476770 1.747426 0
M  V30 33 H 4.842345 -0.845615 2.877911 0
M  V30 34 H 5.778812 0.583232 1.057724 0
M  V30 35 H 4.975248 1.971964 -1.328580 0
M  V30 36 H -1.247910 -2.358815 0.337941 0
M  V30 37 H -2.308798 -3.169207 2.643995 0
M  V30 38 H -4.791806 -0.140974 1.255476 0
M  V30 39 H -4.855487 -0.303905 -1.447756 0
M  V30 40 H -2.430590 1.995175 -4.039919 0
M  V30 41 H 0.296461 2.077057 -3.175885 0
M  V30 42 H 1.017934 -0.567653 1.076468 0
M  V30 43 H 3.529244 -1.053758 4.743313 0
M  V30 END ATOM
M  V30 BEGIN BOND
M  V30 1 2 1 2
M  V30 2 1 2 3
M  V30 3 2 3 4
M  V30 4 1 4 5
M  V30 5 1 5 6
M  V30 6 2 6 7
M  V30 7 1 7 8
M  V30 8 2 8 9
M  V30 9 1 9 10
M  V30 10 1 10 11
M  V30 11 2 11 12
M  V30 12 1 12 13
M  V30 13 2 13 14
M  V30 14 1 14 15
M  V30 15 2 15 16
M  V30 16 1 16 17
M  V30 17 1 17 18
M  V30 18 2 18 19
M  V30 19 1 19 20
M  V30 20 1 20 21
M  V30 21 1 16 22
M  V30 22 2 22 23
M  V30 23 1 23 24
M  V30 24 2 24 25
M  V30 25 1 25 26
M  V30 26 1 12 27
M  V30 27 2 27 28
M  V30 28 2 5 29
M  V30 29 1 29 1
M  V30 30 1 28 6
M  V30 31 1 27 9
M  V30 32 1 26 13
M  V30 33 1 25 15
M  V30 34 2 21 17
M  V30 35 1 1 30
M  V30 36 1 2 31
M  V30 37 1 4 32
M  V30 38 1 7 33
M  V30 39 1 8 34
M  V30 40 1 10 35
M  V30 41 1 18 36
M  V30 42 1 19 37
M  V30 43 1 21 38
M  V30 44 1 22 39
M  V30 45 1 24 40
M  V30 46 1 26 41
M  V30 47 1 28 42
M  V30 48 1 29 43
M  V30 END BOND
M  V30 END CTAB
M  END
>  <Dataset>  (840) 
ChEMBL_Kinases

>  <Ligand_Instance>  (840) 
nan

>  <PDB_ID>  (840) 
nan

>  <Standardized_SMILES>  (840) 
c1cncc(-c2ccc3[nH]nc(-c4nc5c(-c6ccoc6)cncc5[nH]4)c3c2)c1

>  <Name>  (840) 
nan

>  <Pocket>  (840) 
nan

>  <ATP_Site>  (840) 
nan

>  <Peripheral>  (840) 
nan

>  <Num_H_Atoms_ProtBoundConf>  (840) 
nan

>  <Num_Resolved_Atoms>  (840) 
nan

>  <Num_Not_Resolved_Atoms>  (840) 
nan

$$$$
CHEMBL4749607
     RDKit          3D

  0  0  0  0  0  0  0  0  0  0999 V3000
M  V30 BEGIN CTAB
M  V30 COUNTS 46 51 0 0 0
M  V30 BEGIN ATOM
M  V30 1 F 6.767358 2.796675 4.321778 0
M  V30 2 C 5.839365 1.808456 4.135712 0
M  V30 3 C 5.311593 1.288505 5.311265 0
M  V30 4 C 4.370728 0.289673 5.243195 0
M  V30 5 C 3.978289 -0.167926 3.984393 0
M  V30 6 C 4.484334 0.329247 2.801850 0
M  V30 7 C 4.069098 -0.144881 1.488626 0
M  V30 8 C 5.004404 -0.478567 0.533738 0
M  V30 9 N 4.626826 -0.926012 -0.672445 0
M  V30 10 C 3.308367 -1.066261 -0.996070 0
M  V30 11 C 2.358424 -0.738773 -0.058256 0
M  V30 12 N 1.017373 -0.758133 -0.057551 0
M  V30 13 C 0.450136 -0.349821 1.078305 0
M  V30 14 C -0.901212 -0.190586 1.570886 0
M  V30 15 N -1.242655 0.259550 2.808843 0
M  V30 16 N -2.542005 0.297612 2.969504 0
M  V30 17 C -3.168714 -0.121989 1.857527 0
M  V30 18 N -4.463504 -0.267040 1.520696 0
M  V30 19 C -4.791225 -0.722561 0.298243 0
M  V30 20 C -3.796828 -1.039420 -0.605970 0
M  V30 21 C -4.277243 -1.518551 -1.886435 0
M  V30 22 C -3.552559 -2.426771 -2.619373 0
M  V30 23 C -4.024671 -2.875103 -3.841640 0
M  V30 24 C -5.222511 -2.430495 -4.357392 0
M  V30 25 N -5.942294 -1.529732 -3.631707 0
M  V30 26 C -5.472692 -1.091054 -2.427570 0
M  V30 27 C -2.484354 -0.881047 -0.233926 0
M  V30 28 C -2.132344 -0.417940 1.007859 0
M  V30 29 C 1.554685 -0.050408 1.850616 0
M  V30 30 C 2.731650 -0.278167 1.183859 0
M  V30 31 C 5.441196 1.345194 2.876921 0
M  V30 32 H 5.627440 1.655689 6.290494 0
M  V30 33 H 3.964129 -0.110559 6.159634 0
M  V30 34 H 3.240295 -0.958373 3.971997 0
M  V30 35 H 6.077160 -0.395961 0.710854 0
M  V30 36 H 2.992568 -1.424319 -1.962299 0
M  V30 37 H 0.497657 -1.072598 -0.893862 0
M  V30 38 H -2.963602 0.621727 3.867124 0
M  V30 39 H -5.866384 -0.815738 0.093054 0
M  V30 40 H -2.620049 -2.755687 -2.189838 0
M  V30 41 H -3.400846 -3.581432 -4.348376 0
M  V30 42 H -5.587843 -2.787059 -5.319548 0
M  V30 43 H -6.092696 -0.364309 -1.882973 0
M  V30 44 H -1.756329 -1.134179 -0.952098 0
M  V30 45 H 1.576799 0.328828 2.874075 0
M  V30 46 H 5.900985 1.803827 2.014184 0
M  V30 END ATOM
M  V30 BEGIN BOND
M  V30 1 1 1 2
M  V30 2 2 2 3
M  V30 3 1 3 4
M  V30 4 2 4 5
M  V30 5 1 5 6
M  V30 6 1 6 7
M  V30 7 2 7 8
M  V30 8 1 8 9
M  V30 9 2 9 10
M  V30 10 1 10 11
M  V30 11 1 11 12
M  V30 12 1 12 13
M  V30 13 1 13 14
M  V30 14 2 14 15
M  V30 15 1 15 16
M  V30 16 1 16 17
M  V30 17 2 17 18
M  V30 18 1 18 19
M  V30 19 2 19 20
M  V30 20 1 20 21
M  V30 21 2 21 22
M  V30 22 1 22 23
M  V30 23 2 23 24
M  V30 24 1 24 25
M  V30 25 2 25 26
M  V30 26 1 20 27
M  V30 27 2 27 28
M  V30 28 2 13 29
M  V30 29 1 29 30
M  V30 30 2 6 31
M  V30 31 1 31 2
M  V30 32 1 30 7
M  V30 33 2 30 11
M  V30 34 1 28 14
M  V30 35 1 28 17
M  V30 36 1 26 21
M  V30 37 1 3 32
M  V30 38 1 4 33
M  V30 39 1 5 34
M  V30 40 1 8 35
M  V30 41 1 10 36
M  V30 42 1 12 37
M  V30 43 1 16 38
M  V30 44 1 19 39
M  V30 45 1 22 40
M  V30 46 1 23 41
M  V30 47 1 24 42
M  V30 48 1 26 43
M  V30 49 1 27 44
M  V30 50 1 29 45
M  V30 51 1 31 46
M  V30 END BOND
M  V30 END CTAB
M  END
>  <Dataset>  (841) 
ChEMBL_Kinases

>  <Ligand_Instance>  (841) 
nan

>  <PDB_ID>  (841) 
nan

>  <Standardized_SMILES>  (841) 
Fc1cccc(-c2cncc3[nH]c(-c4n[nH]c5ncc(-c6cccnc6)cc45)cc23)c1

>  <Name>  (841) 
nan

>  <Pocket>  (841) 
nan

>  <ATP_Site>  (841) 
nan

>  <Peripheral>  (841) 
nan

>  <Num_H_Atoms_ProtBoundConf>  (841) 
nan

>  <Num_Resolved_Atoms>  (841) 
nan

>  <Num_Not_Resolved_Atoms>  (841) 
nan

$$$$
CHEMBL1952142
     RDKit          3D

  0  0  0  0  0  0  0  0  0  0999 V3000
M  V30 BEGIN CTAB
M  V30 COUNTS 51 54 0 0 0
M  V30 BEGIN ATOM
M  V30 1 C -1.501793 -2.302107 6.803862 0
M  V30 2 O -1.173510 -2.121454 5.569729 0
M  V30 3 C -0.799218 -1.893180 4.388001 0
M  V30 4 C 0.232481 -0.948567 4.264422 0
M  V30 5 C 0.760879 -0.582401 3.014850 0
M  V30 6 N 1.781099 0.346108 2.770901 0
M  V30 7 C 1.911921 1.759934 2.395530 0
M  V30 8 C 1.280135 1.899146 1.003169 0
M  V30 9 C 1.975042 1.044075 0.025623 0
M  V30 10 C 2.426524 1.662061 -1.254183 0
M  V30 11 N 2.488762 3.097319 -1.254086 0
M  V30 12 C 1.184752 3.584037 -0.845537 0
M  V30 13 C 1.118481 3.331267 0.650771 0
M  V30 14 N 0.241892 -1.171144 1.927748 0
M  V30 15 C -0.734226 -2.072196 1.965111 0
M  V30 16 C -1.251982 -2.430979 3.198207 0
M  V30 17 N -2.191850 -3.324426 2.942589 0
M  V30 18 N -2.264955 -3.518728 1.636131 0
M  V30 19 N -1.387049 -2.769593 0.991100 0
M  V30 20 C -1.174516 -2.691921 -0.392216 0
M  V30 21 C 0.133398 -2.704566 -0.715723 0
M  V30 22 C 0.888382 -2.651392 -1.865534 0
M  V30 23 C -0.119184 -2.561457 -2.911671 0
M  V30 24 C -1.531364 -2.537897 -2.732856 0
M  V30 25 O -2.659015 -2.459188 -3.591185 0
M  V30 26 C -3.192780 -3.719163 -4.051004 0
M  V30 27 F -2.270974 -4.442533 -4.757773 0
M  V30 28 F -4.353238 -3.492595 -4.749843 0
M  V30 29 F -3.533892 -4.497634 -2.939056 0
M  V30 30 C -2.074894 -2.604464 -1.436921 0
M  V30 31 H -0.900596 -3.149523 7.292025 0
M  V30 32 H -2.564628 -2.703231 6.960453 0
M  V30 33 H -1.427602 -1.421538 7.516479 0
M  V30 34 H 0.697607 -0.440904 5.086767 0
M  V30 35 H 2.578499 -0.305700 2.947840 0
M  V30 36 H 3.000039 1.944164 2.325667 0
M  V30 37 H 1.465253 2.430523 3.132791 0
M  V30 38 H 0.245571 1.485526 1.160958 0
M  V30 39 H 2.907167 0.624290 0.508887 0
M  V30 40 H 1.402157 0.133283 -0.246094 0
M  V30 41 H 1.756657 1.387053 -2.099306 0
M  V30 42 H 3.432117 1.307869 -1.570745 0
M  V30 43 H 2.629787 3.379271 -2.259276 0
M  V30 44 H 1.097856 4.676575 -1.017467 0
M  V30 45 H 0.346624 3.012329 -1.314870 0
M  V30 46 H 0.137365 3.781001 0.979001 0
M  V30 47 H 1.898193 3.980541 1.093284 0
M  V30 48 H 1.032404 -2.769529 -0.053198 0
M  V30 49 H 1.565278 -2.617881 -2.662531 0
M  V30 50 H -0.178717 -2.488354 -4.025767 0
M  V30 51 H -3.082634 -2.598836 -1.080393 0
M  V30 END ATOM
M  V30 BEGIN BOND
M  V30 1 1 1 2
M  V30 2 1 2 3
M  V30 3 2 3 4
M  V30 4 1 4 5
M  V30 5 1 5 6
M  V30 6 1 6 7
M  V30 7 1 7 8
M  V30 8 1 8 9
M  V30 9 1 9 10
M  V30 10 1 10 11
M  V30 11 1 11 12
M  V30 12 1 12 13
M  V30 13 2 5 14
M  V30 14 1 14 15
M  V30 15 2 15 16
M  V30 16 1 16 17
M  V30 17 2 17 18
M  V30 18 1 18 19
M  V30 19 1 19 20
M  V30 20 2 20 21
M  V30 21 1 21 22
M  V30 22 2 22 23
M  V30 23 1 23 24
M  V30 24 1 24 25
M  V30 25 1 25 26
M  V30 26 1 26 27
M  V30 27 1 26 28
M  V30 28 1 26 29
M  V30 29 2 24 30
M  V30 30 1 16 3
M  V30 31 1 30 20
M  V30 32 1 13 8
M  V30 33 1 19 15
M  V30 34 1 1 31
M  V30 35 1 1 32
M  V30 36 1 1 33
M  V30 37 1 4 34
M  V30 38 1 6 35
M  V30 39 1 7 36
M  V30 40 1 7 37
M  V30 41 1 8 38
M  V30 42 1 9 39
M  V30 43 1 9 40
M  V30 44 1 10 41
M  V30 45 1 10 42
M  V30 46 1 11 43
M  V30 47 1 12 44
M  V30 48 1 12 45
M  V30 49 1 13 46
M  V30 50 1 13 47
M  V30 51 1 21 48
M  V30 52 1 22 49
M  V30 53 1 23 50
M  V30 54 1 30 51
M  V30 END BOND
M  V30 END CTAB
M  END
>  <Dataset>  (842) 
ChEMBL_Kinases

>  <Ligand_Instance>  (842) 
nan

>  <PDB_ID>  (842) 
nan

>  <Standardized_SMILES>  (842) 
COc1cc(NCC2CCNCC2)nc2c1nnn2-c1cccc(OC(F)(F)F)c1

>  <Name>  (842) 
nan

>  <Pocket>  (842) 
nan

>  <ATP_Site>  (842) 
nan

>  <Peripheral>  (842) 
nan

>  <Num_H_Atoms_ProtBoundConf>  (842) 
nan

>  <Num_Resolved_Atoms>  (842) 
nan

>  <Num_Not_Resolved_Atoms>  (842) 
nan

$$$$
CHEMBL4749604
     RDKit          3D

  0  0  0  0  0  0  0  0  0  0999 V3000
M  V30 BEGIN CTAB
M  V30 COUNTS 48 53 0 0 0
M  V30 BEGIN ATOM
M  V30 1 C -0.948609 -4.997371 1.529973 0
M  V30 2 C 0.362719 -4.307064 1.778461 0
M  V30 3 C 1.553875 -4.785622 2.288310 0
M  V30 4 C 2.573663 -3.875793 2.384527 0
M  V30 5 C 2.390302 -2.602135 1.996597 0
M  V30 6 C 3.314774 -1.503788 2.013054 0
M  V30 7 C 4.593219 -1.722613 2.480560 0
M  V30 8 C 5.512259 -0.700199 2.513771 0
M  V30 9 C 5.127245 0.546764 2.069764 0
M  V30 10 C 3.824392 0.748899 1.598730 0
M  V30 11 N 3.204750 1.850901 1.116769 0
M  V30 12 C 1.923575 1.559779 0.779619 0
M  V30 13 C 1.003542 2.549865 0.228914 0
M  V30 14 N 1.350954 3.829417 0.010606 0
M  V30 15 N 0.336729 4.511179 -0.490111 0
M  V30 16 C -0.667885 3.634187 -0.586122 0
M  V30 17 C -1.959743 3.838950 -1.052387 0
M  V30 18 C -2.806516 2.738350 -1.039615 0
M  V30 19 C -2.407037 1.498222 -0.591993 0
M  V30 20 C -3.314779 0.362310 -0.588010 0
M  V30 21 C -4.621383 0.412345 -1.019228 0
M  V30 22 N -5.493055 -0.607526 -1.032775 0
M  V30 23 C -5.086897 -1.831319 -0.584250 0
M  V30 24 C -3.774260 -1.937901 -0.136385 0
M  V30 25 N -3.465407 -3.253864 0.305406 0
M  V30 26 C -2.901576 -0.871761 -0.134578 0
M  V30 27 N -1.136725 1.325520 -0.140971 0
M  V30 28 C -0.311779 2.373931 -0.147280 0
M  V30 29 N 1.736423 0.257368 1.053602 0
M  V30 30 C 2.877003 -0.277452 1.557443 0
M  V30 31 S 0.678723 -2.565732 1.431989 0
M  V30 32 H -0.764961 -6.060064 1.681983 0
M  V30 33 H -1.735070 -4.596725 2.204253 0
M  V30 34 H -1.193936 -4.879471 0.447550 0
M  V30 35 H 1.566185 -5.829140 2.561419 0
M  V30 36 H 3.547354 -4.203964 2.785041 0
M  V30 37 H 4.906536 -2.689762 2.829658 0
M  V30 38 H 6.506926 -0.901477 2.885462 0
M  V30 39 H 5.838769 1.354381 2.091323 0
M  V30 40 H 3.725625 2.765141 1.049627 0
M  V30 41 H 0.360435 5.519319 -0.742284 0
M  V30 42 H -2.269368 4.810336 -1.401952 0
M  V30 43 H -3.796215 2.935442 -1.407189 0
M  V30 44 H -5.027938 1.333650 -1.389147 0
M  V30 45 H -5.806698 -2.637969 -0.604665 0
M  V30 46 H -3.716815 -3.651484 1.234018 0
M  V30 47 H -2.966580 -3.581200 -0.558053 0
M  V30 48 H -1.898721 -1.052072 0.233294 0
M  V30 END ATOM
M  V30 BEGIN BOND
M  V30 1 1 1 2
M  V30 2 2 2 3
M  V30 3 1 3 4
M  V30 4 2 4 5
M  V30 5 1 5 6
M  V30 6 2 6 7
M  V30 7 1 7 8
M  V30 8 2 8 9
M  V30 9 1 9 10
M  V30 10 1 10 11
M  V30 11 1 11 12
M  V30 12 1 12 13
M  V30 13 2 13 14
M  V30 14 1 14 15
M  V30 15 1 15 16
M  V30 16 2 16 17
M  V30 17 1 17 18
M  V30 18 2 18 19
M  V30 19 1 19 20
M  V30 20 2 20 21
M  V30 21 1 21 22
M  V30 22 2 22 23
M  V30 23 1 23 24
M  V30 24 1 24 25
M  V30 25 2 24 26
M  V30 26 1 19 27
M  V30 27 2 27 28
M  V30 28 2 12 29
M  V30 29 1 29 30
M  V30 30 1 5 31
M  V30 31 1 31 2
M  V30 32 1 30 6
M  V30 33 2 30 10
M  V30 34 1 28 13
M  V30 35 1 28 16
M  V30 36 1 26 20
M  V30 37 1 1 32
M  V30 38 1 1 33
M  V30 39 1 1 34
M  V30 40 1 3 35
M  V30 41 1 4 36
M  V30 42 1 7 37
M  V30 43 1 8 38
M  V30 44 1 9 39
M  V30 45 1 11 40
M  V30 46 1 15 41
M  V30 47 1 17 42
M  V30 48 1 18 43
M  V30 49 1 21 44
M  V30 50 1 23 45
M  V30 51 1 25 46
M  V30 52 1 25 47
M  V30 53 1 26 48
M  V30 END BOND
M  V30 END CTAB
M  END
>  <Dataset>  (843) 
ChEMBL_Kinases

>  <Ligand_Instance>  (843) 
nan

>  <PDB_ID>  (843) 
nan

>  <Standardized_SMILES>  (843) 
Cc1ccc(-c2cccc3[nH]c(-c4n[nH]c5ccc(-c6cncc(N)c6)nc45)nc23)s1

>  <Name>  (843) 
nan

>  <Pocket>  (843) 
nan

>  <ATP_Site>  (843) 
nan

>  <Peripheral>  (843) 
nan

>  <Num_H_Atoms_ProtBoundConf>  (843) 
nan

>  <Num_Resolved_Atoms>  (843) 
nan

>  <Num_Not_Resolved_Atoms>  (843) 
nan

$$$$
CHEMBL2436977
     RDKit          3D

  0  0  0  0  0  0  0  0  0  0999 V3000
M  V30 BEGIN CTAB
M  V30 COUNTS 58 63 0 0 0
M  V30 BEGIN ATOM
M  V30 1 C 3.573201 -1.881330 5.613288 0
M  V30 2 N 4.664400 -1.444706 4.789693 0
M  V30 3 C 5.013054 -2.404622 3.764908 0
M  V30 4 C 5.082064 -1.822373 2.378829 0
M  V30 5 N 3.825455 -1.227750 1.966871 0
M  V30 6 C 3.920540 -0.344154 0.860275 0
M  V30 7 C 2.659382 0.275462 0.428318 0
M  V30 8 C 2.167927 1.480282 0.894378 0
M  V30 9 C 0.958908 2.009926 0.441599 0
M  V30 10 C 0.239931 1.296027 -0.503501 0
M  V30 11 C -1.049419 1.789898 -1.034525 0
M  V30 12 C -1.345209 3.150016 -1.186545 0
M  V30 13 N -2.553709 3.493528 -1.679616 0
M  V30 14 C -3.466672 2.568506 -2.023002 0
M  V30 15 N -4.691106 2.672904 -2.516872 0
M  V30 16 C -5.260950 1.452254 -2.715393 0
M  V30 17 C -4.333419 0.489367 -2.319470 0
M  V30 18 C -4.501589 -0.959800 -2.348921 0
M  V30 19 C -5.035612 -1.661776 -3.437398 0
M  V30 20 N -5.151170 -3.015229 -3.363172 0
M  V30 21 C -4.776037 -3.731474 -2.286850 0
M  V30 22 N -4.827772 -5.057465 -2.067944 0
M  V30 23 C -4.325657 -5.273079 -0.818943 0
M  V30 24 C -3.962848 -4.060151 -0.269200 0
M  V30 25 C -4.245735 -3.053061 -1.201205 0
M  V30 26 C -4.112176 -1.679218 -1.237781 0
M  V30 27 C -3.229778 1.217174 -1.894742 0
M  V30 28 C -2.000803 0.839089 -1.392678 0
M  V30 29 C 0.718561 0.087981 -0.980247 0
M  V30 30 C 1.934568 -0.449213 -0.527904 0
M  V30 31 C 3.177729 -0.713126 3.119960 0
M  V30 32 C 4.240792 -0.236254 4.095591 0
M  V30 33 H 3.077206 -2.804597 5.225542 0
M  V30 34 H 3.874043 -2.017096 6.677879 0
M  V30 35 H 2.768406 -1.120050 5.642423 0
M  V30 36 H 4.433996 -3.346014 3.815888 0
M  V30 37 H 6.075299 -2.718020 3.991802 0
M  V30 38 H 5.300024 -2.688977 1.700487 0
M  V30 39 H 5.940562 -1.125697 2.327443 0
M  V30 40 H 4.587638 0.511891 1.173701 0
M  V30 41 H 4.402808 -0.828409 -0.012285 0
M  V30 42 H 2.747052 2.017072 1.630038 0
M  V30 43 H 0.577586 2.954962 0.810006 0
M  V30 44 H -0.559970 3.810617 -0.887990 0
M  V30 45 H -5.160328 3.571767 -2.727364 0
M  V30 46 H -6.246298 1.205817 -3.104774 0
M  V30 47 H -5.337965 -1.092074 -4.302899 0
M  V30 48 H -5.171435 -5.822872 -2.687674 0
M  V30 49 H -4.223815 -6.247828 -0.325661 0
M  V30 50 H -3.527547 -3.846857 0.710325 0
M  V30 51 H -3.693440 -1.282240 -0.343589 0
M  V30 52 H -1.762657 -0.207083 -1.272001 0
M  V30 53 H 0.198979 -0.525084 -1.727155 0
M  V30 54 H 2.293009 -1.394500 -0.911565 0
M  V30 55 H 2.610551 -1.580456 3.571418 0
M  V30 56 H 2.411185 0.054819 2.967600 0
M  V30 57 H 5.109987 0.216942 3.614428 0
M  V30 58 H 3.712882 0.458481 4.783439 0
M  V30 END ATOM
M  V30 BEGIN BOND
M  V30 1 1 1 2
M  V30 2 1 2 3
M  V30 3 1 3 4
M  V30 4 1 4 5
M  V30 5 1 5 6
M  V30 6 1 6 7
M  V30 7 2 7 8
M  V30 8 1 8 9
M  V30 9 2 9 10
M  V30 10 1 10 11
M  V30 11 2 11 12
M  V30 12 1 12 13
M  V30 13 2 13 14
M  V30 14 1 14 15
M  V30 15 1 15 16
M  V30 16 2 16 17
M  V30 17 1 17 18
M  V30 18 2 18 19
M  V30 19 1 19 20
M  V30 20 2 20 21
M  V30 21 1 21 22
M  V30 22 1 22 23
M  V30 23 2 23 24
M  V30 24 1 24 25
M  V30 25 2 25 26
M  V30 26 1 17 27
M  V30 27 2 27 28
M  V30 28 1 10 29
M  V30 29 2 29 30
M  V30 30 1 5 31
M  V30 31 1 31 32
M  V30 32 1 32 2
M  V30 33 1 30 7
M  V30 34 1 28 11
M  V30 35 1 27 14
M  V30 36 1 26 18
M  V30 37 1 25 21
M  V30 38 1 1 33
M  V30 39 1 1 34
M  V30 40 1 1 35
M  V30 41 1 3 36
M  V30 42 1 3 37
M  V30 43 1 4 38
M  V30 44 1 4 39
M  V30 45 1 6 40
M  V30 46 1 6 41
M  V30 47 1 8 42
M  V30 48 1 9 43
M  V30 49 1 12 44
M  V30 50 1 15 45
M  V30 51 1 16 46
M  V30 52 1 19 47
M  V30 53 1 22 48
M  V30 54 1 23 49
M  V30 55 1 24 50
M  V30 56 1 26 51
M  V30 57 1 28 52
M  V30 58 1 29 53
M  V30 59 1 30 54
M  V30 60 1 31 55
M  V30 61 1 31 56
M  V30 62 1 32 57
M  V30 63 1 32 58
M  V30 END BOND
M  V30 END CTAB
M  END
>  <Dataset>  (844) 
ChEMBL_Kinases

>  <Ligand_Instance>  (844) 
nan

>  <PDB_ID>  (844) 
nan

>  <Standardized_SMILES>  (844) 
CN1CCN(Cc2ccc(-c3cnc4[nH]cc(-c5cnc6[nH]ccc6c5)c4c3)cc2)CC1

>  <Name>  (844) 
nan

>  <Pocket>  (844) 
nan

>  <ATP_Site>  (844) 
nan

>  <Peripheral>  (844) 
nan

>  <Num_H_Atoms_ProtBoundConf>  (844) 
nan

>  <Num_Resolved_Atoms>  (844) 
nan

>  <Num_Not_Resolved_Atoms>  (844) 
nan

$$$$
CHEMBL4449598
     RDKit          3D

  0  0  0  0  0  0  0  0  0  0999 V3000
M  V30 BEGIN CTAB
M  V30 COUNTS 57 62 0 0 0
M  V30 BEGIN ATOM
M  V30 1 C 1.795934 -2.136421 5.694281 0
M  V30 2 N 2.757945 -2.494756 4.645420 0
M  V30 3 C 3.812636 -3.485479 4.775404 0
M  V30 4 C 5.099154 -2.878870 4.269046 0
M  V30 5 O 4.920039 -2.635239 2.871848 0
M  V30 6 C 3.763592 -1.923462 2.533076 0
M  V30 7 C 2.674714 -1.837326 3.395172 0
M  V30 8 C 1.546141 -1.124291 3.027337 0
M  V30 9 N 1.519836 -0.514275 1.818803 0
M  V30 10 N 2.535728 -0.572530 0.969788 0
M  V30 11 C 2.748273 -0.055994 -0.277025 0
M  V30 12 C 1.776760 0.761613 -1.005750 0
M  V30 13 C 2.278841 1.818854 -1.752537 0
M  V30 14 C 1.376521 2.613215 -2.455863 0
M  V30 15 C 0.022723 2.349188 -2.405907 0
M  V30 16 C -0.837326 3.159283 -3.116604 0
M  V30 17 C -2.183333 2.883802 -3.057019 0
M  V30 18 C -2.651345 1.827369 -2.306880 0
M  V30 19 C -1.831401 0.992046 -1.581840 0
M  V30 20 N -2.369492 -0.086244 -0.832419 0
M  V30 21 C -3.795859 -0.318949 -0.865092 0
M  V30 22 C -4.181395 -1.428225 0.086811 0
M  V30 23 C -3.366272 -2.687471 -0.096315 0
M  V30 24 C -3.312597 -2.974651 -1.568389 0
M  V30 25 C -4.374241 -2.245555 -2.344346 0
M  V30 26 C -4.148370 -0.735613 -2.281442 0
M  V30 27 C -0.492816 1.304341 -1.670022 0
M  V30 28 C 0.415416 0.533712 -0.984060 0
M  V30 29 N 3.992422 -0.443355 -0.677771 0
M  V30 30 N 4.528330 -1.182374 0.306644 0
M  V30 31 C 3.639699 -1.262529 1.314452 0
M  V30 32 H 0.775628 -2.436415 5.347035 0
M  V30 33 H 2.017376 -2.681275 6.610151 0
M  V30 34 H 1.755064 -1.044027 5.865161 0
M  V30 35 H 3.923971 -3.785511 5.844455 0
M  V30 36 H 3.488379 -4.352043 4.154100 0
M  V30 37 H 5.976148 -3.483621 4.488064 0
M  V30 38 H 5.190278 -1.882255 4.780347 0
M  V30 39 H 0.701479 -1.069813 3.721048 0
M  V30 40 H 3.321846 2.087234 -1.840325 0
M  V30 41 H 1.719137 3.454000 -3.056043 0
M  V30 42 H -0.448192 3.977366 -3.694552 0
M  V30 43 H -2.816999 3.546324 -3.630487 0
M  V30 44 H -3.725105 1.735111 -2.347591 0
M  V30 45 H -1.806528 -0.735049 -0.249290 0
M  V30 46 H -4.294326 0.596412 -0.553944 0
M  V30 47 H -4.019401 -1.032783 1.122916 0
M  V30 48 H -5.239968 -1.692677 -0.072988 0
M  V30 49 H -2.384458 -2.575093 0.387526 0
M  V30 50 H -3.977024 -3.497820 0.402191 0
M  V30 51 H -3.510296 -4.058864 -1.725217 0
M  V30 52 H -2.314338 -2.792092 -2.000076 0
M  V30 53 H -5.389911 -2.427751 -1.960177 0
M  V30 54 H -4.270775 -2.551938 -3.410641 0
M  V30 55 H -5.073388 -0.220626 -2.567253 0
M  V30 56 H -3.321005 -0.516605 -2.963692 0
M  V30 57 H 0.124167 -0.293755 -0.388427 0
M  V30 END ATOM
M  V30 BEGIN BOND
M  V30 1 1 1 2
M  V30 2 1 2 3
M  V30 3 1 3 4
M  V30 4 1 4 5
M  V30 5 1 5 6
M  V30 6 2 6 7
M  V30 7 1 7 8
M  V30 8 2 8 9
M  V30 9 1 9 10
M  V30 10 1 10 11
M  V30 11 1 11 12
M  V30 12 2 12 13
M  V30 13 1 13 14
M  V30 14 2 14 15
M  V30 15 1 15 16
M  V30 16 2 16 17
M  V30 17 1 17 18
M  V30 18 2 18 19
M  V30 19 1 19 20
M  V30 20 1 20 21
M  V30 21 1 21 22
M  V30 22 1 22 23
M  V30 23 1 23 24
M  V30 24 1 24 25
M  V30 25 1 25 26
M  V30 26 1 19 27
M  V30 27 2 27 28
M  V30 28 2 11 29
M  V30 29 1 29 30
M  V30 30 2 30 31
M  V30 31 1 7 2
M  V30 32 1 31 10
M  V30 33 1 31 6
M  V30 34 1 28 12
M  V30 35 1 27 15
M  V30 36 1 26 21
M  V30 37 1 1 32
M  V30 38 1 1 33
M  V30 39 1 1 34
M  V30 40 1 3 35
M  V30 41 1 3 36
M  V30 42 1 4 37
M  V30 43 1 4 38
M  V30 44 1 8 39
M  V30 45 1 13 40
M  V30 46 1 14 41
M  V30 47 1 16 42
M  V30 48 1 17 43
M  V30 49 1 18 44
M  V30 50 1 20 45
M  V30 51 1 21 46
M  V30 52 1 22 47
M  V30 53 1 22 48
M  V30 54 1 23 49
M  V30 55 1 23 50
M  V30 56 1 24 51
M  V30 57 1 24 52
M  V30 58 1 25 53
M  V30 59 1 25 54
M  V30 60 1 26 55
M  V30 61 1 26 56
M  V30 62 1 28 57
M  V30 END BOND
M  V30 END CTAB
M  END
>  <Dataset>  (845) 
ChEMBL_Kinases

>  <Ligand_Instance>  (845) 
nan

>  <PDB_ID>  (845) 
nan

>  <Standardized_SMILES>  (845) 
CN1CCOc2c1cnn1c(-c3ccc4cccc(NC5CCCCC5)c4c3)nnc21

>  <Name>  (845) 
nan

>  <Pocket>  (845) 
nan

>  <ATP_Site>  (845) 
nan

>  <Peripheral>  (845) 
nan

>  <Num_H_Atoms_ProtBoundConf>  (845) 
nan

>  <Num_Resolved_Atoms>  (845) 
nan

>  <Num_Not_Resolved_Atoms>  (845) 
nan

$$$$
CHEMBL4749547
     RDKit          3D

  0  0  0  0  0  0  0  0  0  0999 V3000
M  V30 BEGIN CTAB
M  V30 COUNTS 50 53 0 0 0
M  V30 BEGIN ATOM
M  V30 1 C -0.959771 4.727766 2.338011 0
M  V30 2 C 0.054037 3.684313 2.196824 0
M  V30 3 S 1.878202 3.731109 2.727586 0
M  V30 4 C 2.214696 2.132569 2.170210 0
M  V30 5 C 3.581656 1.577457 2.328279 0
M  V30 6 O 4.448231 2.330139 2.879576 0
M  V30 7 N 4.005039 0.306149 1.928347 0
M  V30 8 C 5.357603 -0.137485 2.128501 0 CFG=2
M  V30 9 C 5.992326 -0.433210 0.763241 0
M  V30 10 C 6.888554 -1.585555 1.078725 0
M  V30 11 O 6.765795 -1.875365 2.421746 0
M  V30 12 C 5.494429 -1.458790 2.813910 0
M  V30 13 C 1.086098 1.644243 1.654596 0
M  V30 14 C -0.027642 2.429655 1.662471 0
M  V30 15 N -1.293702 1.980193 1.125689 0
M  V30 16 C -1.439704 1.170810 0.043407 0
M  V30 17 C -2.781140 0.941102 -0.191698 0
M  V30 18 N -3.266747 0.114856 -1.275974 0
M  V30 19 C -3.409129 -1.243864 -0.912215 0
M  V30 20 O -3.094402 -1.486652 0.268359 0
M  V30 21 N -3.852058 -2.318425 -1.708017 0
M  V30 22 C -4.044422 -3.695321 -1.494394 0
M  V30 23 C -3.838996 -4.413879 -0.347378 0
M  V30 24 F -3.399384 -3.807479 0.770356 0
M  V30 25 C -4.041691 -5.765202 -0.191963 0
M  V30 26 C -4.492713 -6.448148 -1.297825 0
M  V30 27 C -4.711735 -5.763667 -2.469448 0
M  V30 28 C -4.493753 -4.411552 -2.573433 0
M  V30 29 Cl -4.822439 -3.672867 -4.150795 0
M  V30 30 C -3.434517 1.648043 0.796858 0
M  V30 31 N -2.503207 2.251456 1.558061 0
M  V30 32 H -1.769007 4.532253 3.039230 0
M  V30 33 H -0.439459 5.685097 2.636384 0
M  V30 34 H -1.381160 4.956450 1.338846 0
M  V30 35 H 3.296210 -0.309304 1.477101 0
M  V30 36 H 5.965651 0.631582 2.623596 0
M  V30 37 H 5.217213 -0.768672 0.038844 0
M  V30 38 H 6.535350 0.460245 0.393173 0
M  V30 39 H 6.601125 -2.506672 0.511454 0
M  V30 40 H 7.952979 -1.359053 0.816681 0
M  V30 41 H 4.710786 -2.174357 2.494626 0
M  V30 42 H 5.516313 -1.359303 3.936143 0
M  V30 43 H 1.144949 0.639496 1.261498 0
M  V30 44 H -0.592126 0.790321 -0.516310 0
M  V30 45 H -3.527342 0.360187 -2.278059 0
M  V30 46 H -4.065727 -1.911757 -2.659130 0
M  V30 47 H -3.872371 -6.298750 0.717404 0
M  V30 48 H -4.678952 -7.511104 -1.267797 0
M  V30 49 H -5.059107 -6.310098 -3.309045 0
M  V30 50 H -4.513317 1.659604 0.873011 0
M  V30 END ATOM
M  V30 BEGIN BOND
M  V30 1 1 1 2
M  V30 2 1 2 3
M  V30 3 1 3 4
M  V30 4 1 4 5
M  V30 5 2 5 6
M  V30 6 1 5 7
M  V30 7 1 7 8
M  V30 8 1 8 9
M  V30 9 1 9 10
M  V30 10 1 10 11
M  V30 11 1 11 12
M  V30 12 2 4 13
M  V30 13 1 13 14
M  V30 14 1 14 15
M  V30 15 1 15 16
M  V30 16 2 16 17
M  V30 17 1 17 18
M  V30 18 1 18 19
M  V30 19 2 19 20
M  V30 20 1 19 21
M  V30 21 1 21 22
M  V30 22 2 22 23
M  V30 23 1 23 24
M  V30 24 1 23 25
M  V30 25 2 25 26
M  V30 26 1 26 27
M  V30 27 2 27 28
M  V30 28 1 28 29
M  V30 29 1 17 30
M  V30 30 2 30 31
M  V30 31 2 14 2
M  V30 32 1 31 15
M  V30 33 1 12 8
M  V30 34 1 28 22
M  V30 35 1 1 32
M  V30 36 1 1 33
M  V30 37 1 1 34
M  V30 38 1 7 35
M  V30 39 1 8 36 CFG=1
M  V30 40 1 9 37
M  V30 41 1 9 38
M  V30 42 1 10 39
M  V30 43 1 10 40
M  V30 44 1 12 41
M  V30 45 1 12 42
M  V30 46 1 13 43
M  V30 47 1 16 44
M  V30 48 1 18 45
M  V30 49 1 21 46
M  V30 50 1 25 47
M  V30 51 1 26 48
M  V30 52 1 27 49
M  V30 53 1 30 50
M  V30 END BOND
M  V30 END CTAB
M  END
>  <Dataset>  (846) 
ChEMBL_Kinases

>  <Ligand_Instance>  (846) 
nan

>  <PDB_ID>  (846) 
nan

>  <Standardized_SMILES>  (846) 
Cc1sc(C(=O)N[C@@H]2CCOC2)cc1-n1cc(NC(=O)Nc2c(F)cccc2Cl)cn1

>  <Name>  (846) 
nan

>  <Pocket>  (846) 
nan

>  <ATP_Site>  (846) 
nan

>  <Peripheral>  (846) 
nan

>  <Num_H_Atoms_ProtBoundConf>  (846) 
nan

>  <Num_Resolved_Atoms>  (846) 
nan

>  <Num_Not_Resolved_Atoms>  (846) 
nan

$$$$
CHEMBL4749506
     RDKit          3D

  0  0  0  0  0  0  0  0  0  0999 V3000
M  V30 BEGIN CTAB
M  V30 COUNTS 73 79 0 0 0
M  V30 BEGIN ATOM
M  V30 1 C 3.040420 -4.111900 3.618678 0
M  V30 2 N 2.061932 -4.187515 2.585769 0
M  V30 3 C 0.842775 -3.479793 2.815028 0
M  V30 4 C 1.102167 -2.019007 3.209771 0
M  V30 5 N 2.192778 -1.552590 2.390141 0
M  V30 6 C 2.566426 -0.367237 3.089946 0
M  V30 7 N 3.670795 -0.481466 3.828562 0
M  V30 8 C 4.128048 0.560007 4.605973 0
M  V30 9 C 3.336598 1.678349 4.525364 0
M  V30 10 C 2.201178 1.919630 3.817446 0
M  V30 11 N 1.263720 2.821451 3.519580 0
M  V30 12 C 0.367850 2.406808 2.686573 0
M  V30 13 C -0.759285 3.265284 2.232876 0
M  V30 14 N -0.872957 4.536770 2.688364 0
M  V30 15 N -1.922847 5.113962 2.146739 0
M  V30 16 C -2.514899 4.249584 1.336698 0
M  V30 17 C -3.627122 4.423987 0.575670 0
M  V30 18 N -4.049389 3.384270 -0.181938 0
M  V30 19 C -3.337954 2.224658 -0.138292 0
M  V30 20 C -3.825420 1.131253 -0.965157 0
M  V30 21 C -4.940087 1.334295 -1.731436 0
M  V30 22 N -5.464609 0.376752 -2.508062 0
M  V30 23 C -4.945117 -0.851438 -2.598457 0
M  V30 24 C -3.793677 -1.116207 -1.826946 0
M  V30 25 N -3.225038 -2.418030 -1.909061 0
M  V30 26 C -2.350417 -2.212993 -3.037215 0
M  V30 27 O -2.469819 -1.001076 -3.443557 0
M  V30 28 C -1.415421 -3.205534 -3.699335 0
M  V30 29 C -0.354563 -3.639930 -2.756336 0
M  V30 30 C 0.789045 -2.669446 -2.747193 0
M  V30 31 C 1.328154 -2.536284 -4.127515 0
M  V30 32 C 0.318512 -2.016281 -5.113743 0
M  V30 33 C -1.016091 -2.662877 -5.012634 0
M  V30 34 C -3.269567 -0.117573 -1.035174 0
M  V30 35 C -2.212473 2.027296 0.621542 0
M  V30 36 C -1.798679 3.082067 1.377908 0
M  V30 37 C 0.655232 1.108742 2.340442 0
M  V30 38 C 1.806343 0.809368 3.054382 0
M  V30 39 C 2.640934 -2.260959 1.182576 0
M  V30 40 C 2.631635 -3.739080 1.343399 0
M  V30 41 H 3.368074 -5.167411 3.853554 0
M  V30 42 H 3.987295 -3.606426 3.267078 0
M  V30 43 H 2.712412 -3.692394 4.571787 0
M  V30 44 H 0.193404 -3.533925 1.928837 0
M  V30 45 H 0.260499 -3.892306 3.689546 0
M  V30 46 H 0.145365 -1.524155 3.063292 0
M  V30 47 H 1.397784 -2.139111 4.301737 0
M  V30 48 H 5.011488 0.510969 5.209800 0
M  V30 49 H 3.652283 2.531781 5.119617 0
M  V30 50 H 1.417104 3.732035 4.017082 0
M  V30 51 H -2.174910 6.107789 2.376925 0
M  V30 52 H -4.173287 5.360058 0.564290 0
M  V30 53 H -5.472737 2.275809 -1.766958 0
M  V30 54 H -5.316853 -1.669033 -3.202966 0
M  V30 55 H -3.195997 -3.373838 -1.510161 0
M  V30 56 H -2.028604 -4.152289 -3.902614 0
M  V30 57 H -0.815156 -3.755492 -1.746118 0
M  V30 58 H 0.062990 -4.607297 -3.122051 0
M  V30 59 H 1.631799 -3.029166 -2.101503 0
M  V30 60 H 0.417475 -1.723944 -2.297699 0
M  V30 61 H 1.683572 -3.548352 -4.434393 0
M  V30 62 H 2.178037 -1.830150 -4.142708 0
M  V30 63 H 0.312771 -0.913381 -5.130807 0
M  V30 64 H 0.726830 -2.313622 -6.124731 0
M  V30 65 H -1.169341 -3.444776 -5.821794 0
M  V30 66 H -1.782132 -1.881509 -5.315240 0
M  V30 67 H -2.405403 -0.344583 -0.463760 0
M  V30 68 H -1.641634 1.133020 0.673948 0
M  V30 69 H 0.180758 0.426176 1.698877 0
M  V30 70 H 3.708544 -1.975978 0.959538 0
M  V30 71 H 2.043298 -1.887202 0.328890 0
M  V30 72 H 3.603011 -4.235382 1.117937 0
M  V30 73 H 1.942889 -4.148855 0.542521 0
M  V30 END ATOM
M  V30 BEGIN BOND
M  V30 1 1 1 2
M  V30 2 1 2 3
M  V30 3 1 3 4
M  V30 4 1 4 5
M  V30 5 1 5 6
M  V30 6 2 6 7
M  V30 7 1 7 8
M  V30 8 2 8 9
M  V30 9 1 9 10
M  V30 10 1 10 11
M  V30 11 1 11 12
M  V30 12 1 12 13
M  V30 13 2 13 14
M  V30 14 1 14 15
M  V30 15 1 15 16
M  V30 16 2 16 17
M  V30 17 1 17 18
M  V30 18 2 18 19
M  V30 19 1 19 20
M  V30 20 2 20 21
M  V30 21 1 21 22
M  V30 22 2 22 23
M  V30 23 1 23 24
M  V30 24 1 24 25
M  V30 25 1 25 26
M  V30 26 2 26 27
M  V30 27 1 26 28
M  V30 28 1 28 29
M  V30 29 1 29 30
M  V30 30 1 30 31
M  V30 31 1 31 32
M  V30 32 1 32 33
M  V30 33 2 24 34
M  V30 34 1 19 35
M  V30 35 2 35 36
M  V30 36 2 12 37
M  V30 37 1 37 38
M  V30 38 1 5 39
M  V30 39 1 39 40
M  V30 40 1 40 2
M  V30 41 1 38 6
M  V30 42 2 38 10
M  V30 43 1 36 13
M  V30 44 1 36 16
M  V30 45 1 34 20
M  V30 46 1 33 28
M  V30 47 1 1 41
M  V30 48 1 1 42
M  V30 49 1 1 43
M  V30 50 1 3 44
M  V30 51 1 3 45
M  V30 52 1 4 46
M  V30 53 1 4 47
M  V30 54 1 8 48
M  V30 55 1 9 49
M  V30 56 1 11 50
M  V30 57 1 15 51
M  V30 58 1 17 52
M  V30 59 1 21 53
M  V30 60 1 23 54
M  V30 61 1 25 55
M  V30 62 1 28 56
M  V30 63 1 29 57
M  V30 64 1 29 58
M  V30 65 1 30 59
M  V30 66 1 30 60
M  V30 67 1 31 61
M  V30 68 1 31 62
M  V30 69 1 32 63
M  V30 70 1 32 64
M  V30 71 1 33 65
M  V30 72 1 33 66
M  V30 73 1 34 67
M  V30 74 1 35 68
M  V30 75 1 37 69
M  V30 76 1 39 70
M  V30 77 1 39 71
M  V30 78 1 40 72
M  V30 79 1 40 73
M  V30 END BOND
M  V30 END CTAB
M  END
>  <Dataset>  (847) 
ChEMBL_Kinases

>  <Ligand_Instance>  (847) 
nan

>  <PDB_ID>  (847) 
nan

>  <Standardized_SMILES>  (847) 
CN1CCN(c2nccc3[nH]c(-c4n[nH]c5cnc(-c6cncc(NC(=O)C7CCCCC7)c6)cc45)cc23)CC1

>  <Name>  (847) 
nan

>  <Pocket>  (847) 
nan

>  <ATP_Site>  (847) 
nan

>  <Peripheral>  (847) 
nan

>  <Num_H_Atoms_ProtBoundConf>  (847) 
nan

>  <Num_Resolved_Atoms>  (847) 
nan

>  <Num_Not_Resolved_Atoms>  (847) 
nan

$$$$
CHEMBL4749420
     RDKit          3D

  0  0  0  0  0  0  0  0  0  0999 V3000
M  V30 BEGIN CTAB
M  V30 COUNTS 48 53 0 0 0
M  V30 BEGIN ATOM
M  V30 1 N 5.745102 -6.060456 1.973151 0
M  V30 2 C 4.583846 -5.316569 2.321769 0
M  V30 3 C 3.626431 -5.893450 3.132284 0
M  V30 4 N 2.559382 -5.110425 3.408482 0
M  V30 5 C 2.452628 -3.859307 2.920321 0
M  V30 6 C 3.399376 -3.267519 2.109431 0
M  V30 7 C 3.270161 -1.910880 1.587569 0
M  V30 8 C 4.419183 -1.178085 1.373701 0
M  V30 9 C 4.312949 0.105969 0.880463 0
M  V30 10 C 3.069221 0.637049 0.609315 0
M  V30 11 N 2.627460 1.815854 0.137094 0
M  V30 12 N 1.325431 1.826706 0.060025 0
M  V30 13 C 0.776666 0.656247 0.473579 0
M  V30 14 C -0.630471 0.328599 0.518613 0
M  V30 15 C -1.597723 1.247623 0.115189 0
M  V30 16 C -2.865335 0.731949 0.239907 0
M  V30 17 C -4.141886 1.188288 -0.007679 0
M  V30 18 C -4.345332 2.530732 -0.531955 0
M  V30 19 C -5.240363 2.546319 -1.593535 0
M  V30 20 C -5.608459 3.712264 -2.266995 0
M  V30 21 C -5.009301 4.884655 -1.798130 0
M  V30 22 N -4.143221 4.866267 -0.770159 0
M  V30 23 C -3.801959 3.732126 -0.134672 0
M  V30 24 N -5.219025 0.416862 0.221443 0
M  V30 25 C -5.067183 -0.826799 0.701807 0
M  V30 26 C -3.801566 -1.307990 0.958581 0
M  V30 27 C -2.698105 -0.527095 0.727217 0
M  V30 28 N -1.379942 -0.708800 0.870363 0
M  V30 29 C 1.897484 -0.061994 0.809052 0
M  V30 30 C 2.051672 -1.336391 1.301372 0
M  V30 31 C 4.516962 -4.039292 1.798921 0
M  V30 32 H 6.572268 -6.538435 2.438471 0
M  V30 33 H 5.825037 -6.185760 0.929172 0
M  V30 34 H 3.768709 -6.899554 3.491855 0
M  V30 35 H 1.577613 -3.273069 3.171491 0
M  V30 36 H 5.422615 -1.552469 1.571841 0
M  V30 37 H 5.176066 0.728854 0.692344 0
M  V30 38 H 3.204069 2.640477 -0.143633 0
M  V30 39 H -1.442059 2.259867 -0.263313 0
M  V30 40 H -5.739633 1.668987 -2.004420 0
M  V30 41 H -6.300710 3.732229 -3.089798 0
M  V30 42 H -5.265972 5.813226 -2.291555 0
M  V30 43 H -3.121619 3.635900 0.696345 0
M  V30 44 H -5.866367 -1.507881 0.913050 0
M  V30 45 H -3.645856 -2.314861 1.349411 0
M  V30 46 H -1.006489 -1.594931 1.227988 0
M  V30 47 H 1.202008 -1.962031 1.491133 0
M  V30 48 H 5.300265 -3.640219 1.167819 0
M  V30 END ATOM
M  V30 BEGIN BOND
M  V30 1 1 1 2
M  V30 2 2 2 3
M  V30 3 1 3 4
M  V30 4 2 4 5
M  V30 5 1 5 6
M  V30 6 1 6 7
M  V30 7 2 7 8
M  V30 8 1 8 9
M  V30 9 2 9 10
M  V30 10 1 10 11
M  V30 11 1 11 12
M  V30 12 2 12 13
M  V30 13 1 13 14
M  V30 14 2 14 15
M  V30 15 1 15 16
M  V30 16 2 16 17
M  V30 17 1 17 18
M  V30 18 2 18 19
M  V30 19 1 19 20
M  V30 20 2 20 21
M  V30 21 1 21 22
M  V30 22 2 22 23
M  V30 23 1 17 24
M  V30 24 2 24 25
M  V30 25 1 25 26
M  V30 26 2 26 27
M  V30 27 1 27 28
M  V30 28 1 13 29
M  V30 29 2 29 30
M  V30 30 2 6 31
M  V30 31 1 31 2
M  V30 32 1 30 7
M  V30 33 1 29 10
M  V30 34 1 28 14
M  V30 35 1 27 16
M  V30 36 1 23 18
M  V30 37 1 1 32
M  V30 38 1 1 33
M  V30 39 1 3 34
M  V30 40 1 5 35
M  V30 41 1 8 36
M  V30 42 1 9 37
M  V30 43 1 11 38
M  V30 44 1 15 39
M  V30 45 1 19 40
M  V30 46 1 20 41
M  V30 47 1 21 42
M  V30 48 1 23 43
M  V30 49 1 25 44
M  V30 50 1 26 45
M  V30 51 1 28 46
M  V30 52 1 30 47
M  V30 53 1 31 48
M  V30 END BOND
M  V30 END CTAB
M  END
>  <Dataset>  (848) 
ChEMBL_Kinases

>  <Ligand_Instance>  (848) 
nan

>  <PDB_ID>  (848) 
nan

>  <Standardized_SMILES>  (848) 
Nc1cncc(-c2ccc3[nH]nc(-c4cc5c(-c6cccnc6)nccc5[nH]4)c3c2)c1

>  <Name>  (848) 
nan

>  <Pocket>  (848) 
nan

>  <ATP_Site>  (848) 
nan

>  <Peripheral>  (848) 
nan

>  <Num_H_Atoms_ProtBoundConf>  (848) 
nan

>  <Num_Resolved_Atoms>  (848) 
nan

>  <Num_Not_Resolved_Atoms>  (848) 
nan

$$$$
CHEMBL4449918
     RDKit          3D

  0  0  0  0  0  0  0  0  0  0999 V3000
M  V30 BEGIN CTAB
M  V30 COUNTS 34 37 0 0 0
M  V30 BEGIN ATOM
M  V30 1 C 0.716037 -4.793077 2.959480 0
M  V30 2 C 0.788452 -3.504425 2.220940 0
M  V30 3 C -0.377608 -2.835522 1.863863 0
M  V30 4 C -0.189067 -1.661156 1.188148 0
M  V30 5 N -1.333249 -1.002626 0.836539 0
M  V30 6 C -1.301633 0.165390 0.167889 0
M  V30 7 C -0.106896 0.752596 -0.194012 0
M  V30 8 N 1.019835 0.103227 0.152741 0
M  V30 9 C 1.000794 -1.065132 0.821315 0
M  V30 10 C 2.141897 -1.765098 1.196701 0
M  V30 11 C 2.030192 -2.959859 1.882403 0
M  V30 12 C 3.310733 -3.654866 2.251899 0
M  V30 13 C -0.361019 2.001348 -0.902600 0
M  V30 14 C 0.447723 2.966056 -1.471956 0
M  V30 15 C -0.045182 4.088740 -2.103237 0
M  V30 16 C -1.429240 4.249201 -2.164779 0
M  V30 17 C -2.298269 3.309207 -1.608235 0
M  V30 18 C -1.728211 2.204655 -0.989011 0
M  V30 19 C -2.373307 1.058615 -0.319526 0
M  V30 20 N -3.646518 0.880654 -0.189936 0
M  V30 21 O -4.133770 -0.225875 0.453524 0
M  V30 22 H 1.535787 -5.488429 2.715804 0
M  V30 23 H -0.239106 -5.298326 2.702649 0
M  V30 24 H 0.638205 -4.545900 4.038423 0
M  V30 25 H -1.345240 -3.210470 2.099421 0
M  V30 26 H 3.108396 -1.335955 0.930195 0
M  V30 27 H 3.631458 -4.240116 1.367766 0
M  V30 28 H 3.167857 -4.323244 3.100978 0
M  V30 29 H 4.090436 -2.916706 2.511951 0
M  V30 30 H 1.515613 2.799432 -1.399962 0
M  V30 31 H 0.602529 4.845915 -2.550391 0
M  V30 32 H -1.814850 5.138097 -2.664708 0
M  V30 33 H -3.358157 3.435028 -1.657037 0
M  V30 34 H -3.666228 -0.714865 1.211002 0
M  V30 END ATOM
M  V30 BEGIN BOND
M  V30 1 1 1 2
M  V30 2 2 2 3
M  V30 3 1 3 4
M  V30 4 2 4 5
M  V30 5 1 5 6
M  V30 6 2 6 7
M  V30 7 1 7 8
M  V30 8 2 8 9
M  V30 9 1 9 10
M  V30 10 2 10 11
M  V30 11 1 11 12
M  V30 12 1 7 13
M  V30 13 2 13 14
M  V30 14 1 14 15
M  V30 15 2 15 16
M  V30 16 1 16 17
M  V30 17 2 17 18
M  V30 18 1 18 19
M  V30 19 2 19 20
M  V30 20 1 20 21
M  V30 21 1 11 2
M  V30 22 1 18 13
M  V30 23 1 9 4
M  V30 24 1 19 6
M  V30 25 1 1 22
M  V30 26 1 1 23
M  V30 27 1 1 24
M  V30 28 1 3 25
M  V30 29 1 10 26
M  V30 30 1 12 27
M  V30 31 1 12 28
M  V30 32 1 12 29
M  V30 33 1 14 30
M  V30 34 1 15 31
M  V30 35 1 16 32
M  V30 36 1 17 33
M  V30 37 1 21 34
M  V30 END BOND
M  V30 END CTAB
M  END
>  <Dataset>  (849) 
ChEMBL_Kinases

>  <Ligand_Instance>  (849) 
nan

>  <PDB_ID>  (849) 
nan

>  <Standardized_SMILES>  (849) 
Cc1cc2nc3c(nc2cc1C)-c1ccccc1/C3=N/O

>  <Name>  (849) 
nan

>  <Pocket>  (849) 
nan

>  <ATP_Site>  (849) 
nan

>  <Peripheral>  (849) 
nan

>  <Num_H_Atoms_ProtBoundConf>  (849) 
nan

>  <Num_Resolved_Atoms>  (849) 
nan

>  <Num_Not_Resolved_Atoms>  (849) 
nan

$$$$
CHEMBL4449930
     RDKit          3D

  0  0  0  0  0  0  0  0  0  0999 V3000
M  V30 BEGIN CTAB
M  V30 COUNTS 60 63 0 0 0
M  V30 BEGIN ATOM
M  V30 1 C 0.758945 -5.691073 2.887082 0
M  V30 2 N 1.056135 -4.291205 3.120662 0
M  V30 3 N 1.621355 -3.705422 4.170958 0
M  V30 4 C 1.699415 -2.368456 3.947284 0
M  V30 5 C 1.145519 -2.165418 2.689403 0
M  V30 6 N 1.137574 -0.784447 2.272713 0
M  V30 7 C -0.053458 -0.105837 2.640040 0
M  V30 8 O -0.892835 -0.837902 3.265982 0
M  V30 9 C -0.379010 1.291227 2.372959 0
M  V30 10 N 0.406779 2.132453 1.749089 0
M  V30 11 C 0.217372 3.236760 1.506786 0
M  V30 12 C 0.806474 4.453377 0.863221 0
M  V30 13 C 2.048910 4.248084 0.348353 0
M  V30 14 F 2.680547 3.036878 0.422439 0
M  V30 15 C 2.777693 5.250563 -0.294065 0
M  V30 16 C 2.085767 6.466557 -0.341089 0
M  V30 17 C 0.831926 6.717450 0.165155 0
M  V30 18 C 0.197248 5.659641 0.780467 0
M  V30 19 F -1.022914 5.801545 1.303326 0
M  V30 20 S -1.511100 3.461446 2.255709 0
M  V30 21 C -1.610057 1.801188 2.801337 0
M  V30 22 N -2.685600 1.218090 3.484994 0
M  V30 23 C 0.745117 -3.387975 2.182687 0
M  V30 24 N 0.145606 -3.399513 0.902161 0
M  V30 25 C -1.282385 -3.187449 0.945764 0
M  V30 26 C -2.035282 -4.245992 0.176512 0
M  V30 27 C -1.528362 -4.406215 -1.226622 0
M  V30 28 C -1.039958 -3.100847 -1.834449 0 CFG=2
M  V30 29 N -1.162324 -3.112259 -3.273924 0
M  V30 30 C -0.701961 -1.910779 -3.915482 0
M  V30 31 C -1.556813 -0.704108 -3.647541 0
M  V30 32 F -2.853490 -0.922298 -4.088495 0
M  V30 33 F -1.529834 -0.276671 -2.344335 0
M  V30 34 F -1.068323 0.359127 -4.402696 0
M  V30 35 C 0.390002 -2.816604 -1.481438 0
M  V30 36 C 0.906683 -3.607286 -0.309184 0
M  V30 37 H 1.400039 -6.297904 3.582145 0
M  V30 38 H 1.022333 -6.003012 1.860726 0
M  V30 39 H -0.288642 -5.951634 3.176580 0
M  V30 40 H 2.156872 -1.870578 4.790078 0
M  V30 41 H 1.853447 -0.201005 1.752772 0
M  V30 42 H 3.755596 5.099103 -0.702328 0
M  V30 43 H 2.625250 7.281154 -0.838388 0
M  V30 44 H 0.378355 7.690683 0.080770 0
M  V30 45 H -2.289492 0.756517 4.344183 0
M  V30 46 H -3.638326 1.322446 3.070522 0
M  V30 47 H -1.498776 -2.156742 0.583314 0
M  V30 48 H -1.686749 -3.212653 1.978266 0
M  V30 49 H -3.113329 -3.993077 0.235794 0
M  V30 50 H -1.883018 -5.204369 0.722074 0
M  V30 51 H -0.829352 -5.241473 -1.342134 0
M  V30 52 H -2.438270 -4.682882 -1.838107 0
M  V30 53 H -1.750904 -2.333644 -1.448939 0
M  V30 54 H -0.703639 -3.937610 -3.718100 0
M  V30 55 H 0.362923 -1.673001 -3.618346 0
M  V30 56 H -0.737183 -2.095528 -5.014999 0
M  V30 57 H 0.510301 -1.728617 -1.352356 0
M  V30 58 H 1.048132 -3.097036 -2.343249 0
M  V30 59 H 1.974235 -3.266952 -0.177131 0
M  V30 60 H 0.981511 -4.653779 -0.614043 0
M  V30 END ATOM
M  V30 BEGIN BOND
M  V30 1 1 1 2
M  V30 2 1 2 3
M  V30 3 2 3 4
M  V30 4 1 4 5
M  V30 5 1 5 6
M  V30 6 1 6 7
M  V30 7 2 7 8
M  V30 8 1 7 9
M  V30 9 1 9 10
M  V30 10 2 10 11
M  V30 11 1 11 12
M  V30 12 2 12 13
M  V30 13 1 13 14
M  V30 14 1 13 15
M  V30 15 2 15 16
M  V30 16 1 16 17
M  V30 17 2 17 18
M  V30 18 1 18 19
M  V30 19 1 11 20
M  V30 20 1 20 21
M  V30 21 1 21 22
M  V30 22 2 5 23
M  V30 23 1 23 24
M  V30 24 1 24 25
M  V30 25 1 25 26
M  V30 26 1 26 27
M  V30 27 1 27 28
M  V30 28 1 28 29
M  V30 29 1 29 30
M  V30 30 1 30 31
M  V30 31 1 31 32
M  V30 32 1 31 33
M  V30 33 1 31 34
M  V30 34 1 28 35
M  V30 35 1 35 36
M  V30 36 1 23 2
M  V30 37 1 36 24
M  V30 38 2 21 9
M  V30 39 1 18 12
M  V30 40 1 1 37
M  V30 41 1 1 38
M  V30 42 1 1 39
M  V30 43 1 4 40
M  V30 44 1 6 41
M  V30 45 1 15 42
M  V30 46 1 16 43
M  V30 47 1 17 44
M  V30 48 1 22 45
M  V30 49 1 22 46
M  V30 50 1 25 47
M  V30 51 1 25 48
M  V30 52 1 26 49
M  V30 53 1 26 50
M  V30 54 1 27 51
M  V30 55 1 27 52
M  V30 56 1 28 53 CFG=1
M  V30 57 1 29 54
M  V30 58 1 30 55
M  V30 59 1 30 56
M  V30 60 1 35 57
M  V30 61 1 35 58
M  V30 62 1 36 59
M  V30 63 1 36 60
M  V30 END BOND
M  V30 END CTAB
M  END
>  <Dataset>  (850) 
ChEMBL_Kinases

>  <Ligand_Instance>  (850) 
nan

>  <PDB_ID>  (850) 
nan

>  <Standardized_SMILES>  (850) 
Cn1ncc(NC(=O)c2nc(-c3c(F)cccc3F)sc2N)c1N1CCC[C@H](NCC(F)(F)F)CC1

>  <Name>  (850) 
nan

>  <Pocket>  (850) 
nan

>  <ATP_Site>  (850) 
nan

>  <Peripheral>  (850) 
nan

>  <Num_H_Atoms_ProtBoundConf>  (850) 
nan

>  <Num_Resolved_Atoms>  (850) 
nan

>  <Num_Not_Resolved_Atoms>  (850) 
nan

$$$$
CHEMBL195641
     RDKit          3D

  0  0  0  0  0  0  0  0  0  0999 V3000
M  V30 BEGIN CTAB
M  V30 COUNTS 46 49 0 0 0
M  V30 BEGIN ATOM
M  V30 1 N -0.342544 -4.774806 5.932807 0
M  V30 2 C -0.539864 -4.368709 4.844828 0
M  V30 3 N -0.794304 -3.863580 3.542670 0
M  V30 4 C -0.062009 -2.649148 3.269021 0
M  V30 5 C 1.302255 -2.842265 3.252966 0
M  V30 6 C 2.197055 -1.813966 3.002148 0
M  V30 7 C 1.641898 -0.575649 2.765141 0
M  V30 8 N 2.359197 0.628661 2.537276 0
M  V30 9 C 1.926958 1.711047 1.727544 0
M  V30 10 N 2.164931 3.002355 1.873154 0
M  V30 11 C 1.693677 3.855601 0.937247 0
M  V30 12 C 0.974252 3.400213 -0.160123 0
M  V30 13 C 0.442360 4.333398 -1.192699 0
M  V30 14 F -0.938885 4.261847 -1.277804 0
M  V30 15 F 1.072234 4.121161 -2.394683 0
M  V30 16 F 0.742121 5.627889 -0.783083 0
M  V30 17 C 0.730178 2.040606 -0.306883 0
M  V30 18 N 0.011539 1.488693 -1.430733 0
M  V30 19 C -0.130442 0.075353 -1.545419 0
M  V30 20 C 0.876729 -0.563377 -2.284357 0
M  V30 21 C 0.933094 -1.919508 -2.511477 0
M  V30 22 C -0.081503 -2.686441 -1.965849 0
M  V30 23 N -0.328419 -4.015852 -1.989712 0
M  V30 24 C -1.461687 -4.252927 -1.290912 0
M  V30 25 N -1.911280 -3.071169 -0.838240 0
M  V30 26 C -1.094445 -2.090953 -1.230089 0
M  V30 27 C -1.105352 -0.727306 -1.031002 0
M  V30 28 N 1.229562 1.280230 0.661966 0
M  V30 29 C 0.257056 -0.358969 2.775637 0
M  V30 30 C -0.603588 -1.406870 3.031217 0
M  V30 31 N -2.016956 -1.298219 3.078139 0
M  V30 32 C -2.622539 -0.050346 2.897096 0
M  V30 33 N -3.113913 0.988393 2.745143 0
M  V30 34 H -1.463353 -4.440583 2.995761 0
M  V30 35 H 1.786933 -3.805010 3.432530 0
M  V30 36 H 3.270466 -1.889795 2.974918 0
M  V30 37 H 3.282841 0.669930 3.032478 0
M  V30 38 H 1.894611 4.915105 1.066215 0
M  V30 39 H -0.394257 2.117607 -2.152289 0
M  V30 40 H 1.698499 -0.019354 -2.739915 0
M  V30 41 H 1.720226 -2.387487 -3.084711 0
M  V30 42 H 0.267571 -4.738786 -2.472524 0
M  V30 43 H -1.853645 -5.245339 -1.172945 0
M  V30 44 H -1.861865 -0.207012 -0.470373 0
M  V30 45 H -0.225270 0.587180 2.597129 0
M  V30 46 H -2.641828 -2.088315 3.240693 0
M  V30 END ATOM
M  V30 BEGIN BOND
M  V30 1 3 1 2
M  V30 2 1 2 3
M  V30 3 1 3 4
M  V30 4 2 4 5
M  V30 5 1 5 6
M  V30 6 2 6 7
M  V30 7 1 7 8
M  V30 8 1 8 9
M  V30 9 2 9 10
M  V30 10 1 10 11
M  V30 11 2 11 12
M  V30 12 1 12 13
M  V30 13 1 13 14
M  V30 14 1 13 15
M  V30 15 1 13 16
M  V30 16 1 12 17
M  V30 17 1 17 18
M  V30 18 1 18 19
M  V30 19 2 19 20
M  V30 20 1 20 21
M  V30 21 2 21 22
M  V30 22 1 22 23
M  V30 23 1 23 24
M  V30 24 2 24 25
M  V30 25 1 25 26
M  V30 26 2 26 27
M  V30 27 2 17 28
M  V30 28 1 7 29
M  V30 29 2 29 30
M  V30 30 1 30 31
M  V30 31 1 31 32
M  V30 32 3 32 33
M  V30 33 1 30 4
M  V30 34 1 28 9
M  V30 35 1 27 19
M  V30 36 1 26 22
M  V30 37 1 3 34
M  V30 38 1 5 35
M  V30 39 1 6 36
M  V30 40 1 8 37
M  V30 41 1 11 38
M  V30 42 1 18 39
M  V30 43 1 20 40
M  V30 44 1 21 41
M  V30 45 1 23 42
M  V30 46 1 24 43
M  V30 47 1 27 44
M  V30 48 1 29 45
M  V30 49 1 31 46
M  V30 END BOND
M  V30 END CTAB
M  END
>  <Dataset>  (851) 
ChEMBL_Kinases

>  <Ligand_Instance>  (851) 
nan

>  <PDB_ID>  (851) 
nan

>  <Standardized_SMILES>  (851) 
N#CNc1ccc(Nc2ncc(C(F)(F)F)c(Nc3ccc4[nH]cnc4c3)n2)cc1NC#N

>  <Name>  (851) 
nan

>  <Pocket>  (851) 
nan

>  <ATP_Site>  (851) 
nan

>  <Peripheral>  (851) 
nan

>  <Num_H_Atoms_ProtBoundConf>  (851) 
nan

>  <Num_Resolved_Atoms>  (851) 
nan

>  <Num_Not_Resolved_Atoms>  (851) 
nan

$$$$
CHEMBL4450322
     RDKit          3D

  0  0  0  0  0  0  0  0  0  0999 V3000
M  V30 BEGIN CTAB
M  V30 COUNTS 71 74 0 0 0
M  V30 BEGIN ATOM
M  V30 1 C 9.965267 -2.129589 -3.364398 0
M  V30 2 C 9.204203 -1.034138 -3.336461 0
M  V30 3 C 8.092770 -0.969994 -2.398114 0
M  V30 4 O 7.835717 -1.914477 -1.623998 0
M  V30 5 N 7.243840 0.160325 -2.307292 0
M  V30 6 C 6.130917 0.428929 -1.480119 0
M  V30 7 C 5.475092 1.627072 -1.587378 0
M  V30 8 C 4.391822 1.967307 -0.817827 0
M  V30 9 C 3.898903 1.092866 0.126754 0
M  V30 10 C 2.752618 1.389721 0.986762 0
M  V30 11 O 2.330333 0.545746 1.849571 0
M  V30 12 N 2.002186 2.575315 0.982669 0
M  V30 13 C 0.967947 2.500362 1.957781 0
M  V30 14 N 1.147998 2.902546 3.233017 0
M  V30 15 N 0.021808 2.712265 3.892713 0
M  V30 16 C -0.922982 2.192802 3.109175 0
M  V30 17 C -0.332266 2.052231 1.870170 0
M  V30 18 C -1.328678 1.483222 0.960982 0
M  V30 19 N -2.308315 0.870693 1.872387 0
M  V30 20 C -3.181077 -0.277265 1.871894 0
M  V30 21 O -3.983680 -0.682611 2.760747 0
M  V30 22 N -3.179108 -1.114731 0.722374 0
M  V30 23 C -3.963273 -2.316911 0.490273 0 CFG=2
M  V30 24 C -3.007861 -3.465716 0.347881 0
M  V30 25 N -3.681857 -4.729130 0.111721 0
M  V30 26 C -2.625089 -5.724500 -0.020607 0
M  V30 27 C -4.427036 -5.120131 1.320208 0
M  V30 28 C -4.853895 -2.165962 -0.687219 0
M  V30 29 C -6.179117 -2.554436 -0.699256 0
M  V30 30 C -7.002067 -2.409716 -1.798192 0
M  V30 31 C -6.488717 -1.849996 -2.950829 0
M  V30 32 C -5.162071 -1.449442 -2.971546 0
M  V30 33 C -4.372425 -1.608387 -1.860488 0
M  V30 34 C -2.329936 1.716617 3.044604 0
M  V30 35 C -3.252887 2.901855 2.869390 0
M  V30 36 C -2.622902 0.972587 4.318705 0
M  V30 37 C 4.520407 -0.130479 0.278342 0
M  V30 38 C 5.603672 -0.400635 -0.531504 0
M  V30 39 H 9.345271 -2.540547 -2.581632 0
M  V30 40 H 10.782827 -2.151239 -4.067959 0
M  V30 41 H 9.398898 -0.195682 -3.997538 0
M  V30 42 H 7.517697 0.923223 -2.994438 0
M  V30 43 H 5.803132 2.371294 -2.310284 0
M  V30 44 H 3.911038 2.925813 -0.943163 0
M  V30 45 H 2.290705 3.330132 0.290080 0
M  V30 46 H 1.943776 3.304584 3.759281 0
M  V30 47 H -0.868317 0.702111 0.320319 0
M  V30 48 H -1.901506 2.225124 0.368963 0
M  V30 49 H -2.589455 -0.957797 -0.124588 0
M  V30 50 H -4.566947 -2.491542 1.403813 0
M  V30 51 H -2.194543 -3.280696 -0.366453 0
M  V30 52 H -2.497718 -3.566839 1.350826 0
M  V30 53 H -1.665566 -5.258163 -0.317146 0
M  V30 54 H -2.935215 -6.342038 -0.912328 0
M  V30 55 H -2.477324 -6.313448 0.891995 0
M  V30 56 H -3.671029 -5.098521 2.148744 0
M  V30 57 H -5.224168 -4.414696 1.556127 0
M  V30 58 H -4.761988 -6.160540 1.261497 0
M  V30 59 H -6.605898 -2.997958 0.197101 0
M  V30 60 H -8.030663 -2.728933 -1.758506 0
M  V30 61 H -7.171765 -1.756670 -3.786581 0
M  V30 62 H -4.870084 -1.029240 -3.915825 0
M  V30 63 H -3.374682 -1.270032 -1.980439 0
M  V30 64 H -4.206111 2.576132 2.395218 0
M  V30 65 H -3.515790 3.264765 3.884485 0
M  V30 66 H -2.770543 3.744825 2.335733 0
M  V30 67 H -2.084378 1.370622 5.203023 0
M  V30 68 H -2.240895 -0.084192 4.217392 0
M  V30 69 H -3.704409 0.925321 4.551477 0
M  V30 70 H 4.152030 -0.829771 1.011157 0
M  V30 71 H 6.040635 -1.369047 -0.363644 0
M  V30 END ATOM
M  V30 BEGIN BOND
M  V30 1 2 1 2
M  V30 2 1 2 3
M  V30 3 2 3 4
M  V30 4 1 3 5
M  V30 5 1 5 6
M  V30 6 2 6 7
M  V30 7 1 7 8
M  V30 8 2 8 9
M  V30 9 1 9 10
M  V30 10 2 10 11
M  V30 11 1 10 12
M  V30 12 1 12 13
M  V30 13 1 13 14
M  V30 14 1 14 15
M  V30 15 2 15 16
M  V30 16 1 16 17
M  V30 17 1 17 18
M  V30 18 1 18 19
M  V30 19 1 19 20
M  V30 20 2 20 21
M  V30 21 1 20 22
M  V30 22 1 22 23
M  V30 23 1 23 24
M  V30 24 1 24 25
M  V30 25 1 25 26
M  V30 26 1 25 27
M  V30 27 1 23 28
M  V30 28 2 28 29
M  V30 29 1 29 30
M  V30 30 2 30 31
M  V30 31 1 31 32
M  V30 32 2 32 33
M  V30 33 1 19 34
M  V30 34 1 34 35
M  V30 35 1 34 36
M  V30 36 1 9 37
M  V30 37 2 37 38
M  V30 38 1 38 6
M  V30 39 2 17 13
M  V30 40 1 33 28
M  V30 41 1 34 16
M  V30 42 1 1 39
M  V30 43 1 1 40
M  V30 44 1 2 41
M  V30 45 1 5 42
M  V30 46 1 7 43
M  V30 47 1 8 44
M  V30 48 1 12 45
M  V30 49 1 14 46
M  V30 50 1 18 47
M  V30 51 1 18 48
M  V30 52 1 22 49
M  V30 53 1 23 50 CFG=1
M  V30 54 1 24 51
M  V30 55 1 24 52
M  V30 56 1 26 53
M  V30 57 1 26 54
M  V30 58 1 26 55
M  V30 59 1 27 56
M  V30 60 1 27 57
M  V30 61 1 27 58
M  V30 62 1 29 59
M  V30 63 1 30 60
M  V30 64 1 31 61
M  V30 65 1 32 62
M  V30 66 1 33 63
M  V30 67 1 35 64
M  V30 68 1 35 65
M  V30 69 1 35 66
M  V30 70 1 36 67
M  V30 71 1 36 68
M  V30 72 1 36 69
M  V30 73 1 37 70
M  V30 74 1 38 71
M  V30 END BOND
M  V30 END CTAB
M  END
>  <Dataset>  (852) 
ChEMBL_Kinases

>  <Ligand_Instance>  (852) 
nan

>  <PDB_ID>  (852) 
nan

>  <Standardized_SMILES>  (852) 
C=CC(=O)Nc1ccc(C(=O)Nc2[nH]nc3c2CN(C(=O)N[C@H](CN(C)C)c2ccccc2)C3(C)C)cc1

>  <Name>  (852) 
nan

>  <Pocket>  (852) 
nan

>  <ATP_Site>  (852) 
nan

>  <Peripheral>  (852) 
nan

>  <Num_H_Atoms_ProtBoundConf>  (852) 
nan

>  <Num_Resolved_Atoms>  (852) 
nan

>  <Num_Not_Resolved_Atoms>  (852) 
nan

$$$$
CHEMBL4449123
     RDKit          3D

  0  0  0  0  0  0  0  0  0  0999 V3000
M  V30 BEGIN CTAB
M  V30 COUNTS 77 80 0 0 0
M  V30 BEGIN ATOM
M  V30 1 C 7.142022 -2.698259 2.130647 0
M  V30 2 C 5.713941 -3.152523 2.024159 0
M  V30 3 C 4.902848 -2.674181 0.918992 0 CFG=2
M  V30 4 C 5.460119 -3.033203 -0.450077 0
M  V30 5 O 6.652282 -3.297597 -0.774384 0
M  V30 6 N 4.539719 -3.094262 -1.575264 0
M  V30 7 C 4.656866 -4.000068 -2.734837 0
M  V30 8 C 3.458192 -2.134862 -1.449458 0
M  V30 9 C 2.499939 -2.109860 -2.437862 0
M  V30 10 N 1.498549 -1.236898 -2.301169 0
M  V30 11 C 1.401227 -0.405551 -1.254065 0
M  V30 12 N 0.449651 0.571674 -0.808000 0
M  V30 13 C -0.972624 0.425311 -0.783096 0
M  V30 14 C -1.405933 -0.794214 -1.317272 0
M  V30 15 C -2.759842 -1.031596 -1.305076 0
M  V30 16 C -3.677102 -0.172417 -0.816917 0
M  V30 17 C -5.074216 -0.531553 -0.850517 0
M  V30 18 O -5.405298 -1.540757 -1.513618 0
M  V30 19 N -6.067260 0.228590 -0.152847 0
M  V30 20 C -7.504123 -0.102037 -0.151679 0
M  V30 21 C -7.626548 -1.488422 0.428694 0
M  V30 22 N -8.996874 -1.969773 0.505244 0
M  V30 23 C -8.930005 -3.335672 1.022623 0
M  V30 24 C -9.707280 -1.171611 1.477982 0
M  V30 25 C -3.197413 1.012501 -0.305683 0
M  V30 26 C -1.873345 1.384529 -0.252218 0
M  V30 27 O -1.236600 2.470831 0.196669 0
M  V30 28 C -1.705303 3.618796 0.788864 0
M  V30 29 C -2.409277 3.470771 2.097808 0
M  V30 30 O -1.572730 2.888261 3.070706 0
M  V30 31 N 2.354899 -0.475424 -0.334452 0
M  V30 32 C 3.426201 -1.291220 -0.320562 0
M  V30 33 N 4.455008 -1.341021 0.736200 0
M  V30 34 C 4.744406 -0.077210 1.308641 0
M  V30 35 C 4.144526 1.145534 0.635821 0
M  V30 36 C 4.902738 1.281653 -0.663555 0
M  V30 37 C 6.307946 0.790979 -0.283739 0
M  V30 38 C 6.130573 0.479021 1.189323 0
M  V30 39 H 7.847226 -3.480738 2.505217 0
M  V30 40 H 7.513632 -2.195404 1.232633 0
M  V30 41 H 7.145827 -1.936627 2.957921 0
M  V30 42 H 5.163291 -3.131127 2.999202 0
M  V30 43 H 5.871425 -4.287588 1.946271 0
M  V30 44 H 4.019633 -3.420262 0.956341 0
M  V30 45 H 5.360159 -4.805031 -2.486888 0
M  V30 46 H 4.955706 -3.487891 -3.651425 0
M  V30 47 H 3.647725 -4.443252 -2.906378 0
M  V30 48 H 2.523490 -2.738105 -3.281330 0
M  V30 49 H 0.772602 1.515134 -0.461366 0
M  V30 50 H -0.756364 -1.538870 -1.725904 0
M  V30 51 H -3.085917 -1.994526 -1.723582 0
M  V30 52 H -5.737941 1.076380 0.395314 0
M  V30 53 H -8.023319 0.641616 0.469833 0
M  V30 54 H -7.837853 -0.090967 -1.201457 0
M  V30 55 H -7.242285 -1.516800 1.486929 0
M  V30 56 H -7.074086 -2.254103 -0.141503 0
M  V30 57 H -9.538282 -4.040172 0.409944 0
M  V30 58 H -7.881858 -3.732159 0.984383 0
M  V30 59 H -9.251114 -3.420366 2.071166 0
M  V30 60 H -10.584197 -1.746159 1.877057 0
M  V30 61 H -9.043279 -1.029647 2.352379 0
M  V30 62 H -10.053654 -0.207168 1.053876 0
M  V30 63 H -3.862848 1.753973 0.095462 0
M  V30 64 H -0.815994 4.305402 0.919552 0
M  V30 65 H -2.374343 4.222127 0.105563 0
M  V30 66 H -2.692258 4.467854 2.531993 0
M  V30 67 H -3.334123 2.886190 2.087500 0
M  V30 68 H -0.657097 2.719124 2.720094 0
M  V30 69 H 4.371596 -0.054972 2.360449 0
M  V30 70 H 3.104230 1.307699 0.641507 0
M  V30 71 H 4.553494 2.025755 1.256922 0
M  V30 72 H 5.024794 2.351706 -0.958113 0
M  V30 73 H 4.507036 0.740724 -1.513584 0
M  V30 74 H 7.077168 1.545887 -0.403434 0
M  V30 75 H 6.521045 -0.095213 -0.907238 0
M  V30 76 H 6.950884 0.050308 1.690808 0
M  V30 77 H 6.057708 1.516018 1.663531 0
M  V30 END ATOM
M  V30 BEGIN BOND
M  V30 1 1 1 2
M  V30 2 1 2 3
M  V30 3 1 3 4
M  V30 4 2 4 5
M  V30 5 1 4 6
M  V30 6 1 6 7
M  V30 7 1 6 8
M  V30 8 2 8 9
M  V30 9 1 9 10
M  V30 10 2 10 11
M  V30 11 1 11 12
M  V30 12 1 12 13
M  V30 13 2 13 14
M  V30 14 1 14 15
M  V30 15 2 15 16
M  V30 16 1 16 17
M  V30 17 2 17 18
M  V30 18 1 17 19
M  V30 19 1 19 20
M  V30 20 1 20 21
M  V30 21 1 21 22
M  V30 22 1 22 23
M  V30 23 1 22 24
M  V30 24 1 16 25
M  V30 25 2 25 26
M  V30 26 1 26 27
M  V30 27 1 27 28
M  V30 28 1 28 29
M  V30 29 1 29 30
M  V30 30 1 11 31
M  V30 31 2 31 32
M  V30 32 1 32 33
M  V30 33 1 33 34
M  V30 34 1 34 35
M  V30 35 1 35 36
M  V30 36 1 36 37
M  V30 37 1 37 38
M  V30 38 1 33 3
M  V30 39 1 38 34
M  V30 40 1 32 8
M  V30 41 1 26 13
M  V30 42 1 1 39
M  V30 43 1 1 40
M  V30 44 1 1 41
M  V30 45 1 2 42
M  V30 46 1 2 43
M  V30 47 1 3 44 CFG=1
M  V30 48 1 7 45
M  V30 49 1 7 46
M  V30 50 1 7 47
M  V30 51 1 9 48
M  V30 52 1 12 49
M  V30 53 1 14 50
M  V30 54 1 15 51
M  V30 55 1 19 52
M  V30 56 1 20 53
M  V30 57 1 20 54
M  V30 58 1 21 55
M  V30 59 1 21 56
M  V30 60 1 23 57
M  V30 61 1 23 58
M  V30 62 1 23 59
M  V30 63 1 24 60
M  V30 64 1 24 61
M  V30 65 1 24 62
M  V30 66 1 25 63
M  V30 67 1 28 64
M  V30 68 1 28 65
M  V30 69 1 29 66
M  V30 70 1 29 67
M  V30 71 1 30 68
M  V30 72 1 34 69
M  V30 73 1 35 70
M  V30 74 1 35 71
M  V30 75 1 36 72
M  V30 76 1 36 73
M  V30 77 1 37 74
M  V30 78 1 37 75
M  V30 79 1 38 76
M  V30 80 1 38 77
M  V30 END BOND
M  V30 END CTAB
M  END
>  <Dataset>  (853) 
ChEMBL_Kinases

>  <Ligand_Instance>  (853) 
nan

>  <PDB_ID>  (853) 
nan

>  <Standardized_SMILES>  (853) 
CC[C@@H]1C(=O)N(C)c2cnc(Nc3ccc(C(=O)NCCN(C)C)cc3OCCO)nc2N1C1CCCC1

>  <Name>  (853) 
nan

>  <Pocket>  (853) 
nan

>  <ATP_Site>  (853) 
nan

>  <Peripheral>  (853) 
nan

>  <Num_H_Atoms_ProtBoundConf>  (853) 
nan

>  <Num_Resolved_Atoms>  (853) 
nan

>  <Num_Not_Resolved_Atoms>  (853) 
nan

$$$$
CHEMBL4746411
     RDKit          3D

  0  0  0  0  0  0  0  0  0  0999 V3000
M  V30 BEGIN CTAB
M  V30 COUNTS 47 52 0 0 0
M  V30 BEGIN ATOM
M  V30 1 C -3.050425 -6.905524 1.399978 0
M  V30 2 N -1.649132 -6.567698 1.185636 0
M  V30 3 C -1.308579 -5.323413 0.742408 0
M  V30 4 C 0.056787 -5.316862 0.642886 0
M  V30 5 C 0.963960 -4.246574 0.217901 0
M  V30 6 C 2.150719 -4.556684 -0.415823 0
M  V30 7 C 3.031228 -3.580343 -0.830440 0
M  V30 8 C 2.682914 -2.269216 -0.588240 0
M  V30 9 N 3.278767 -1.093025 -0.845063 0
M  V30 10 N 2.540884 -0.093878 -0.414042 0
M  V30 11 C 1.398344 -0.525660 0.162326 0
M  V30 12 C 0.367318 0.310972 0.737877 0
M  V30 13 C 0.480423 1.697610 0.742845 0
M  V30 14 C -0.606674 2.292071 1.336890 0
M  V30 15 C -1.003683 3.584742 1.600533 0
M  V30 16 C -0.143354 4.694925 1.217795 0
M  V30 17 C 1.208819 4.769432 1.478836 0
M  V30 18 C 2.024776 5.807521 1.118215 0
M  V30 19 C 1.454861 6.869965 0.437763 0
M  V30 20 N 0.133579 6.849448 0.155646 0
M  V30 21 C -0.630205 5.809875 0.528475 0
M  V30 22 C -2.209377 3.858674 2.237680 0
M  V30 23 N -2.968452 2.819472 2.585015 0
M  V30 24 C -2.622895 1.521153 2.348278 0
M  V30 25 C -1.428729 1.255574 1.717240 0
M  V30 26 N -0.803963 0.133991 1.340009 0
M  V30 27 C 1.515699 -1.888875 0.038472 0
M  V30 28 C 0.685150 -2.913545 0.424846 0
M  V30 29 C 0.525674 -6.560903 1.028223 0
M  V30 30 N -0.547726 -7.308187 1.356294 0
M  V30 31 H -3.156770 -7.918731 1.842455 0
M  V30 32 H -3.577056 -6.814307 0.427073 0
M  V30 33 H -3.526302 -6.203590 2.118406 0
M  V30 34 H -1.954897 -4.488793 0.507654 0
M  V30 35 H 2.422521 -5.599331 -0.606283 0
M  V30 36 H 3.979811 -3.781300 -1.335002 0
M  V30 37 H 4.191483 -0.913411 -1.312936 0
M  V30 38 H 1.280550 2.311938 0.350804 0
M  V30 39 H 1.679635 3.965348 2.008105 0
M  V30 40 H 3.083042 5.804594 1.354098 0
M  V30 41 H 2.098496 7.688484 0.153755 0
M  V30 42 H -1.697396 5.828261 0.282701 0
M  V30 43 H -2.548311 4.865779 2.458394 0
M  V30 44 H -3.249990 0.689182 2.636744 0
M  V30 45 H -1.234661 -0.787023 1.522025 0
M  V30 46 H -0.243404 -2.714006 0.918672 0
M  V30 47 H 1.516626 -7.002400 1.106471 0
M  V30 END ATOM
M  V30 BEGIN BOND
M  V30 1 1 1 2
M  V30 2 1 2 3
M  V30 3 2 3 4
M  V30 4 1 4 5
M  V30 5 2 5 6
M  V30 6 1 6 7
M  V30 7 2 7 8
M  V30 8 1 8 9
M  V30 9 1 9 10
M  V30 10 2 10 11
M  V30 11 1 11 12
M  V30 12 2 12 13
M  V30 13 1 13 14
M  V30 14 2 14 15
M  V30 15 1 15 16
M  V30 16 2 16 17
M  V30 17 1 17 18
M  V30 18 2 18 19
M  V30 19 1 19 20
M  V30 20 2 20 21
M  V30 21 1 15 22
M  V30 22 2 22 23
M  V30 23 1 23 24
M  V30 24 2 24 25
M  V30 25 1 25 26
M  V30 26 1 11 27
M  V30 27 2 27 28
M  V30 28 1 4 29
M  V30 29 2 29 30
M  V30 30 1 30 2
M  V30 31 1 28 5
M  V30 32 1 27 8
M  V30 33 1 26 12
M  V30 34 1 25 14
M  V30 35 1 21 16
M  V30 36 1 1 31
M  V30 37 1 1 32
M  V30 38 1 1 33
M  V30 39 1 3 34
M  V30 40 1 6 35
M  V30 41 1 7 36
M  V30 42 1 9 37
M  V30 43 1 13 38
M  V30 44 1 17 39
M  V30 45 1 18 40
M  V30 46 1 19 41
M  V30 47 1 21 42
M  V30 48 1 22 43
M  V30 49 1 24 44
M  V30 50 1 26 45
M  V30 51 1 28 46
M  V30 52 1 29 47
M  V30 END BOND
M  V30 END CTAB
M  END
>  <Dataset>  (854) 
ChEMBL_Kinases

>  <Ligand_Instance>  (854) 
nan

>  <PDB_ID>  (854) 
nan

>  <Standardized_SMILES>  (854) 
Cn1cc(-c2ccc3[nH]nc(-c4cc5c(-c6cccnc6)cncc5[nH]4)c3c2)cn1

>  <Name>  (854) 
nan

>  <Pocket>  (854) 
nan

>  <ATP_Site>  (854) 
nan

>  <Peripheral>  (854) 
nan

>  <Num_H_Atoms_ProtBoundConf>  (854) 
nan

>  <Num_Resolved_Atoms>  (854) 
nan

>  <Num_Not_Resolved_Atoms>  (854) 
nan

$$$$
CHEMBL4454586
     RDKit          3D

  0  0  0  0  0  0  0  0  0  0999 V3000
M  V30 BEGIN CTAB
M  V30 COUNTS 82 87 0 0 0
M  V30 BEGIN ATOM
M  V30 1 C 3.585364 0.028618 5.678796 0
M  V30 2 C 4.686320 -0.555878 4.861451 0
M  V30 3 C 4.304507 -1.457102 3.747563 0 CFG=2
M  V30 4 C 5.607816 -1.916228 3.122367 0
M  V30 5 O 6.791868 -1.527833 3.427722 0
M  V30 6 N 5.440663 -2.887966 2.084808 0
M  V30 7 C 6.498132 -3.865207 1.822913 0
M  V30 8 C 4.215568 -2.829052 1.354408 0
M  V30 9 C 4.122786 -3.792251 0.361566 0
M  V30 10 N 2.994011 -3.780379 -0.369087 0
M  V30 11 C 2.020652 -2.858154 -0.116840 0
M  V30 12 N 0.883074 -2.865166 -0.945811 0
M  V30 13 C -0.449973 -2.402682 -0.816737 0
M  V30 14 C -0.745345 -2.112603 0.517139 0
M  V30 15 C -2.007682 -1.696639 0.897303 0
M  V30 16 C -2.999755 -1.562195 -0.039938 0
M  V30 17 C -4.397264 -1.157965 0.130739 0
M  V30 18 O -5.048466 -2.157949 0.571331 0
M  V30 19 N -4.898943 0.132684 -0.156056 0
M  V30 20 C -6.282947 0.532366 -0.001327 0
M  V30 21 C -6.469673 1.428627 1.209149 0
M  V30 22 C -6.072629 2.783017 0.667360 0
M  V30 23 C -6.372111 2.775123 -0.817918 0
M  V30 24 C -6.782657 1.337573 -1.151673 0
M  V30 25 C -2.666652 -1.860978 -1.353734 0
M  V30 26 C -1.438488 -2.276665 -1.802618 0
M  V30 27 O -0.900520 -2.609074 -2.977265 0
M  V30 28 C -1.452930 -2.636419 -4.229347 0
M  V30 29 C -1.918660 -1.315882 -4.688784 0
M  V30 30 C -3.134864 -0.677056 -4.744309 0
M  V30 31 C -3.301413 0.606001 -5.203559 0
M  V30 32 C -2.228623 1.366811 -5.654574 0
M  V30 33 C -0.982581 0.766426 -5.618258 0
M  V30 34 C -0.851507 -0.528586 -5.149926 0
M  V30 35 N 2.197959 -1.971305 0.857649 0
M  V30 36 C 3.249882 -1.857417 1.658265 0
M  V30 37 N 3.470158 -0.899284 2.702012 0
M  V30 38 C 2.921414 0.386017 2.522029 0
M  V30 39 C 4.009787 1.425204 2.242445 0
M  V30 40 C 3.815131 1.850422 0.798363 0
M  V30 41 C 2.564776 1.166729 0.287562 0
M  V30 42 C 1.861324 0.640131 1.530723 0
M  V30 43 H 3.521438 1.141554 5.557983 0
M  V30 44 H 3.778303 -0.092346 6.791488 0
M  V30 45 H 2.607033 -0.441034 5.532451 0
M  V30 46 H 5.461783 0.219124 4.578651 0
M  V30 47 H 5.286853 -1.194015 5.598605 0
M  V30 48 H 3.765973 -2.341621 4.169687 0
M  V30 49 H 6.114828 -4.838452 2.171181 0
M  V30 50 H 6.721898 -3.850811 0.745339 0
M  V30 51 H 7.373895 -3.577996 2.446239 0
M  V30 52 H 4.890009 -4.521407 0.164101 0
M  V30 53 H 1.004877 -3.309831 -1.899856 0
M  V30 54 H -0.097691 -2.164715 1.378722 0
M  V30 55 H -2.327337 -1.452538 1.899947 0
M  V30 56 H -4.219419 0.845953 -0.505311 0
M  V30 57 H -6.904985 -0.348157 0.162779 0
M  V30 58 H -7.528992 1.427120 1.530718 0
M  V30 59 H -5.845867 1.092752 2.061088 0
M  V30 60 H -6.756079 3.518375 1.152716 0
M  V30 61 H -5.021558 2.985119 0.899486 0
M  V30 62 H -7.218760 3.418915 -1.090060 0
M  V30 63 H -5.441750 3.075819 -1.324726 0
M  V30 64 H -6.255426 1.061482 -2.110909 0
M  V30 65 H -7.848265 1.226416 -1.337852 0
M  V30 66 H -3.377488 -1.792848 -2.148320 0
M  V30 67 H -2.368303 -3.305385 -4.228107 0
M  V30 68 H -0.734607 -3.025946 -4.995582 0
M  V30 69 H -3.923220 -1.330553 -4.386182 0
M  V30 70 H -4.329637 0.908930 -5.161853 0
M  V30 71 H -2.535570 2.333322 -5.972934 0
M  V30 72 H -0.190456 1.382262 -5.973043 0
M  V30 73 H 0.201056 -0.846241 -5.190309 0
M  V30 74 H 2.501270 0.716321 3.518969 0
M  V30 75 H 3.904158 2.333716 2.862935 0
M  V30 76 H 5.024575 1.023476 2.415306 0
M  V30 77 H 3.758679 2.956526 0.683093 0
M  V30 78 H 4.722296 1.548205 0.238876 0
M  V30 79 H 1.962420 1.923431 -0.257806 0
M  V30 80 H 2.840458 0.408399 -0.435133 0
M  V30 81 H 1.094774 -0.098775 1.356322 0
M  V30 82 H 1.244944 1.558462 1.859119 0
M  V30 END ATOM
M  V30 BEGIN BOND
M  V30 1 1 1 2
M  V30 2 1 2 3
M  V30 3 1 3 4
M  V30 4 2 4 5
M  V30 5 1 4 6
M  V30 6 1 6 7
M  V30 7 1 6 8
M  V30 8 2 8 9
M  V30 9 1 9 10
M  V30 10 2 10 11
M  V30 11 1 11 12
M  V30 12 1 12 13
M  V30 13 2 13 14
M  V30 14 1 14 15
M  V30 15 2 15 16
M  V30 16 1 16 17
M  V30 17 2 17 18
M  V30 18 1 17 19
M  V30 19 1 19 20
M  V30 20 1 20 21
M  V30 21 1 21 22
M  V30 22 1 22 23
M  V30 23 1 23 24
M  V30 24 1 16 25
M  V30 25 2 25 26
M  V30 26 1 26 27
M  V30 27 1 27 28
M  V30 28 1 28 29
M  V30 29 2 29 30
M  V30 30 1 30 31
M  V30 31 2 31 32
M  V30 32 1 32 33
M  V30 33 2 33 34
M  V30 34 1 11 35
M  V30 35 2 35 36
M  V30 36 1 36 37
M  V30 37 1 37 38
M  V30 38 1 38 39
M  V30 39 1 39 40
M  V30 40 1 40 41
M  V30 41 1 41 42
M  V30 42 1 37 3
M  V30 43 1 42 38
M  V30 44 1 36 8
M  V30 45 1 26 13
M  V30 46 1 34 29
M  V30 47 1 24 20
M  V30 48 1 1 43
M  V30 49 1 1 44
M  V30 50 1 1 45
M  V30 51 1 2 46
M  V30 52 1 2 47
M  V30 53 1 3 48 CFG=1
M  V30 54 1 7 49
M  V30 55 1 7 50
M  V30 56 1 7 51
M  V30 57 1 9 52
M  V30 58 1 12 53
M  V30 59 1 14 54
M  V30 60 1 15 55
M  V30 61 1 19 56
M  V30 62 1 20 57
M  V30 63 1 21 58
M  V30 64 1 21 59
M  V30 65 1 22 60
M  V30 66 1 22 61
M  V30 67 1 23 62
M  V30 68 1 23 63
M  V30 69 1 24 64
M  V30 70 1 24 65
M  V30 71 1 25 66
M  V30 72 1 28 67
M  V30 73 1 28 68
M  V30 74 1 30 69
M  V30 75 1 31 70
M  V30 76 1 32 71
M  V30 77 1 33 72
M  V30 78 1 34 73
M  V30 79 1 38 74
M  V30 80 1 39 75
M  V30 81 1 39 76
M  V30 82 1 40 77
M  V30 83 1 40 78
M  V30 84 1 41 79
M  V30 85 1 41 80
M  V30 86 1 42 81
M  V30 87 1 42 82
M  V30 END BOND
M  V30 END CTAB
M  END
>  <Dataset>  (855) 
ChEMBL_Kinases

>  <Ligand_Instance>  (855) 
nan

>  <PDB_ID>  (855) 
nan

>  <Standardized_SMILES>  (855) 
CC[C@@H]1C(=O)N(C)c2cnc(Nc3ccc(C(=O)NC4CCCC4)cc3OCc3ccccc3)nc2N1C1CCCC1

>  <Name>  (855) 
nan

>  <Pocket>  (855) 
nan

>  <ATP_Site>  (855) 
nan

>  <Peripheral>  (855) 
nan

>  <Num_H_Atoms_ProtBoundConf>  (855) 
nan

>  <Num_Resolved_Atoms>  (855) 
nan

>  <Num_Not_Resolved_Atoms>  (855) 
nan

$$$$
CHEMBL198687
     RDKit          3D

  0  0  0  0  0  0  0  0  0  0999 V3000
M  V30 BEGIN CTAB
M  V30 COUNTS 63 67 0 0 0
M  V30 BEGIN ATOM
M  V30 1 O 1.749424 3.157249 1.195841 0
M  V30 2 C 1.304453 2.518077 2.210024 0
M  V30 3 N 2.078615 2.749902 3.369345 0
M  V30 4 C 3.232483 3.612149 3.398695 0
M  V30 5 C 4.322237 3.202580 2.432626 0
M  V30 6 C 4.828658 1.814083 2.667674 0
M  V30 7 N 5.865952 1.416100 1.772221 0
M  V30 8 C 5.416172 1.249317 0.408993 0
M  V30 9 C 4.623355 -0.012481 0.218130 0
M  V30 10 O 5.514173 -1.077992 0.333307 0
M  V30 11 C 6.658820 -0.781210 1.033797 0
M  V30 12 C 6.398295 0.147003 2.221658 0
M  V30 13 C 0.133125 1.653184 2.158203 0
M  V30 14 C -0.364446 1.202249 3.359495 0
M  V30 15 C -1.467698 0.378898 3.334550 0
M  V30 16 C -2.006507 0.055985 2.122791 0
M  V30 17 C -1.601056 0.437776 0.884210 0
M  V30 18 C -2.013972 0.137218 -0.469442 0
M  V30 19 N -1.632082 0.757270 -1.644689 0
M  V30 20 N -2.215788 0.127179 -2.612495 0
M  V30 21 C -2.987873 -0.898555 -2.224739 0
M  V30 22 C -3.712181 -1.746290 -3.042468 0
M  V30 23 C -4.405809 -2.741340 -2.328337 0
M  V30 24 N -5.164700 -3.660424 -3.107558 0
M  V30 25 C -6.009382 -4.725303 -2.616477 0
M  V30 26 C -5.577364 -5.968042 -3.021229 0
M  V30 27 C -6.287292 -7.114603 -2.632451 0
M  V30 28 C -7.387816 -6.854397 -1.853748 0
M  V30 29 C -7.863001 -5.644494 -1.422569 0
M  V30 30 C -7.142940 -4.505138 -1.818376 0
M  V30 31 Cl -7.576680 -2.880678 -1.390528 0
M  V30 32 C -4.336656 -2.818607 -0.955054 0
M  V30 33 C -3.567725 -1.895131 -0.264360 0
M  V30 34 C -2.851921 -0.883623 -0.861894 0
M  V30 35 C -0.479349 1.269908 1.005756 0
M  V30 36 H 1.808348 2.275723 4.258273 0
M  V30 37 H 2.932754 4.681644 3.231322 0
M  V30 38 H 3.691065 3.606783 4.412160 0
M  V30 39 H 5.189669 3.894844 2.663229 0
M  V30 40 H 4.050593 3.429794 1.406843 0
M  V30 41 H 5.180637 1.680837 3.706905 0
M  V30 42 H 3.987829 1.083833 2.535056 0
M  V30 43 H 6.311794 1.225363 -0.240175 0
M  V30 44 H 4.768659 2.076216 0.066268 0
M  V30 45 H 4.200722 0.020539 -0.822510 0
M  V30 46 H 3.767679 -0.109871 0.883228 0
M  V30 47 H 7.472202 -0.372228 0.380324 0
M  V30 48 H 7.030718 -1.729452 1.469796 0
M  V30 49 H 5.667570 -0.366948 2.875580 0
M  V30 50 H 7.379690 0.265244 2.736061 0
M  V30 51 H 0.006233 1.413298 4.350768 0
M  V30 52 H -1.927458 -0.024963 4.222491 0
M  V30 53 H -2.882617 -0.555895 2.122447 0
M  V30 54 H -0.983319 1.536156 -1.523464 0
M  V30 55 H -3.718063 -1.625333 -4.114373 0
M  V30 56 H -5.178564 -3.635516 -4.149044 0
M  V30 57 H -4.715678 -6.151189 -3.621765 0
M  V30 58 H -6.050403 -8.128031 -2.884419 0
M  V30 59 H -7.999928 -7.684523 -1.506750 0
M  V30 60 H -8.738172 -5.506863 -0.808905 0
M  V30 61 H -4.867263 -3.590390 -0.412875 0
M  V30 62 H -3.549803 -2.029662 0.786017 0
M  V30 63 H 0.036116 1.710201 0.136901 0
M  V30 END ATOM
M  V30 BEGIN BOND
M  V30 1 2 1 2
M  V30 2 1 2 3
M  V30 3 1 3 4
M  V30 4 1 4 5
M  V30 5 1 5 6
M  V30 6 1 6 7
M  V30 7 1 7 8
M  V30 8 1 8 9
M  V30 9 1 9 10
M  V30 10 1 10 11
M  V30 11 1 11 12
M  V30 12 1 2 13
M  V30 13 2 13 14
M  V30 14 1 14 15
M  V30 15 2 15 16
M  V30 16 1 16 17
M  V30 17 1 17 18
M  V30 18 1 18 19
M  V30 19 1 19 20
M  V30 20 2 20 21
M  V30 21 1 21 22
M  V30 22 2 22 23
M  V30 23 1 23 24
M  V30 24 1 24 25
M  V30 25 2 25 26
M  V30 26 1 26 27
M  V30 27 2 27 28
M  V30 28 1 28 29
M  V30 29 2 29 30
M  V30 30 1 30 31
M  V30 31 1 23 32
M  V30 32 2 32 33
M  V30 33 1 33 34
M  V30 34 2 17 35
M  V30 35 1 12 7
M  V30 36 1 35 13
M  V30 37 2 34 18
M  V30 38 1 34 21
M  V30 39 1 30 25
M  V30 40 1 3 36
M  V30 41 1 4 37
M  V30 42 1 4 38
M  V30 43 1 5 39
M  V30 44 1 5 40
M  V30 45 1 6 41
M  V30 46 1 6 42
M  V30 47 1 8 43
M  V30 48 1 8 44
M  V30 49 1 9 45
M  V30 50 1 9 46
M  V30 51 1 11 47
M  V30 52 1 11 48
M  V30 53 1 12 49
M  V30 54 1 12 50
M  V30 55 1 14 51
M  V30 56 1 15 52
M  V30 57 1 16 53
M  V30 58 1 19 54
M  V30 59 1 22 55
M  V30 60 1 24 56
M  V30 61 1 26 57
M  V30 62 1 27 58
M  V30 63 1 28 59
M  V30 64 1 29 60
M  V30 65 1 32 61
M  V30 66 1 33 62
M  V30 67 1 35 63
M  V30 END BOND
M  V30 END CTAB
M  END
>  <Dataset>  (856) 
ChEMBL_Kinases

>  <Ligand_Instance>  (856) 
nan

>  <PDB_ID>  (856) 
nan

>  <Standardized_SMILES>  (856) 
O=C(NCCCN1CCOCC1)c1cccc(-c2[nH]nc3cc(Nc4ccccc4Cl)ccc23)c1

>  <Name>  (856) 
nan

>  <Pocket>  (856) 
nan

>  <ATP_Site>  (856) 
nan

>  <Peripheral>  (856) 
nan

>  <Num_H_Atoms_ProtBoundConf>  (856) 
nan

>  <Num_Resolved_Atoms>  (856) 
nan

>  <Num_Not_Resolved_Atoms>  (856) 
nan

$$$$
CHEMBL4746269
     RDKit          3D

  0  0  0  0  0  0  0  0  0  0999 V3000
M  V30 BEGIN CTAB
M  V30 COUNTS 56 62 0 0 0
M  V30 BEGIN ATOM
M  V30 1 O 4.282345 -3.077722 0.561693 0
M  V30 2 C 4.205802 -3.347555 1.802891 0
M  V30 3 N 4.613471 -2.301801 2.676619 0
M  V30 4 C 5.003006 -1.213246 1.812069 0
M  V30 5 C 6.261312 -0.991797 1.308783 0
M  V30 6 N 6.408435 0.086712 0.517180 0
M  V30 7 C 5.389136 0.915286 0.223189 0
M  V30 8 C 4.112778 0.716932 0.715414 0
M  V30 9 C 2.990545 1.624155 0.394629 0
M  V30 10 C 3.239061 2.970641 0.182638 0
M  V30 11 N 2.182436 3.764240 -0.108117 0
M  V30 12 C 0.930889 3.284381 -0.192729 0
M  V30 13 N -0.273746 3.818169 -0.455997 0
M  V30 14 N -1.216528 2.902947 -0.418225 0
M  V30 15 C -0.706653 1.675448 -0.123686 0
M  V30 16 C -1.471785 0.453316 -0.004482 0
M  V30 17 N -2.804979 0.445004 -0.184230 0
M  V30 18 C -3.320539 -0.773018 -0.031075 0
M  V30 19 C -4.613714 -1.264449 -0.117096 0
M  V30 20 C -5.719900 -0.367318 -0.431070 0
M  V30 21 C -5.846665 0.865793 0.186138 0
M  V30 22 C -6.923846 1.656799 -0.167689 0
M  V30 23 C -7.886873 1.284373 -1.107847 0
M  V30 24 C -7.744137 0.039935 -1.719571 0
M  V30 25 F -8.647012 -0.389316 -2.647508 0
M  V30 26 C -6.656189 -0.766171 -1.366450 0
M  V30 27 C -4.753468 -2.617465 0.111505 0
M  V30 28 N -3.734432 -3.445254 0.401643 0
M  V30 29 C -2.457868 -2.977161 0.489663 0
M  V30 30 C -2.284558 -1.629127 0.266546 0
M  V30 31 N -1.211735 -0.825444 0.265090 0
M  V30 32 C 0.632005 1.956134 0.009038 0
M  V30 33 C 1.709568 1.153387 0.304280 0
M  V30 34 C 3.920704 -0.387133 1.537275 0
M  V30 35 C 3.699451 -4.721151 2.148871 0
M  V30 36 C 2.613352 -5.253302 1.196350 0
M  V30 37 C 3.996077 -5.792568 1.136580 0
M  V30 38 H 4.531342 -2.574867 3.701578 0
M  V30 39 H 7.011976 -1.698557 1.592803 0
M  V30 40 H 5.592866 1.756682 -0.418984 0
M  V30 41 H 4.236286 3.377242 0.245677 0
M  V30 42 H -0.488046 4.818643 -0.668574 0
M  V30 43 H -5.138276 1.205184 0.915619 0
M  V30 44 H -7.046211 2.623568 0.298819 0
M  V30 45 H -8.717837 1.925827 -1.362751 0
M  V30 46 H -6.537839 -1.739963 -1.840060 0
M  V30 47 H -5.785727 -2.978507 0.037178 0
M  V30 48 H -1.601167 -3.580627 0.716738 0
M  V30 49 H -0.267033 -1.200121 0.462196 0
M  V30 50 H 1.572520 0.106698 0.476856 0
M  V30 51 H 2.919570 -0.507952 1.898913 0
M  V30 52 H 3.605187 -5.025813 3.192228 0
M  V30 53 H 1.793231 -5.859582 1.616094 0
M  V30 54 H 2.305763 -4.567695 0.372233 0
M  V30 55 H 4.102708 -6.852750 1.429952 0
M  V30 56 H 4.618449 -5.505930 0.284018 0
M  V30 END ATOM
M  V30 BEGIN BOND
M  V30 1 2 1 2
M  V30 2 1 2 3
M  V30 3 1 3 4
M  V30 4 2 4 5
M  V30 5 1 5 6
M  V30 6 2 6 7
M  V30 7 1 7 8
M  V30 8 1 8 9
M  V30 9 2 9 10
M  V30 10 1 10 11
M  V30 11 2 11 12
M  V30 12 1 12 13
M  V30 13 1 13 14
M  V30 14 2 14 15
M  V30 15 1 15 16
M  V30 16 2 16 17
M  V30 17 1 17 18
M  V30 18 2 18 19
M  V30 19 1 19 20
M  V30 20 2 20 21
M  V30 21 1 21 22
M  V30 22 2 22 23
M  V30 23 1 23 24
M  V30 24 1 24 25
M  V30 25 2 24 26
M  V30 26 1 19 27
M  V30 27 2 27 28
M  V30 28 1 28 29
M  V30 29 2 29 30
M  V30 30 1 30 31
M  V30 31 1 15 32
M  V30 32 2 32 33
M  V30 33 2 8 34
M  V30 34 1 2 35
M  V30 35 1 35 36
M  V30 36 1 36 37
M  V30 37 1 34 4
M  V30 38 1 37 35
M  V30 39 1 33 9
M  V30 40 1 32 12
M  V30 41 1 31 16
M  V30 42 1 30 18
M  V30 43 1 26 20
M  V30 44 1 3 38
M  V30 45 1 5 39
M  V30 46 1 7 40
M  V30 47 1 10 41
M  V30 48 1 13 42
M  V30 49 1 21 43
M  V30 50 1 22 44
M  V30 51 1 23 45
M  V30 52 1 26 46
M  V30 53 1 27 47
M  V30 54 1 29 48
M  V30 55 1 31 49
M  V30 56 1 33 50
M  V30 57 1 34 51
M  V30 58 1 35 52
M  V30 59 1 36 53
M  V30 60 1 36 54
M  V30 61 1 37 55
M  V30 62 1 37 56
M  V30 END BOND
M  V30 END CTAB
M  END
>  <Dataset>  (857) 
ChEMBL_Kinases

>  <Ligand_Instance>  (857) 
nan

>  <PDB_ID>  (857) 
nan

>  <Standardized_SMILES>  (857) 
O=C(Nc1cncc(-c2cnc3[nH]nc(-c4nc5c(-c6cccc(F)c6)cncc5[nH]4)c3c2)c1)C1CC1

>  <Name>  (857) 
nan

>  <Pocket>  (857) 
nan

>  <ATP_Site>  (857) 
nan

>  <Peripheral>  (857) 
nan

>  <Num_H_Atoms_ProtBoundConf>  (857) 
nan

>  <Num_Resolved_Atoms>  (857) 
nan

>  <Num_Not_Resolved_Atoms>  (857) 
nan

$$$$
CHEMBL198821
     RDKit          3D

  0  0  0  0  0  0  0  0  0  0999 V3000
M  V30 BEGIN CTAB
M  V30 COUNTS 55 58 0 0 0
M  V30 BEGIN ATOM
M  V30 1 C -1.148793 -4.121769 5.927849 0
M  V30 2 N 0.003752 -3.259141 6.087729 0
M  V30 3 C 0.844919 -3.805018 7.105485 0
M  V30 4 C -0.448231 -1.927395 6.338619 0
M  V30 5 C 0.650673 -0.923984 6.554616 0
M  V30 6 N 1.518473 -0.852243 5.396472 0
M  V30 7 C 1.045003 -0.490663 4.113270 0
M  V30 8 O -0.173163 -0.223190 3.968910 0
M  V30 9 C 1.976037 -0.435244 2.986652 0
M  V30 10 C 3.318547 -0.684580 3.118902 0
M  V30 11 C 4.118632 -0.609494 2.003316 0
M  V30 12 C 3.563352 -0.287246 0.780371 0
M  V30 13 C 2.201250 -0.025004 0.592359 0
M  V30 14 C 1.817961 0.318082 -0.751131 0
M  V30 15 N 2.738312 0.556849 -1.721276 0
M  V30 16 N 2.166020 0.833395 -2.863164 0
M  V30 17 C 0.829268 0.802806 -2.756964 0
M  V30 18 C -0.248792 0.992878 -3.592571 0
M  V30 19 C -1.549204 0.874681 -3.177912 0
M  V30 20 N -2.620173 1.055809 -4.080888 0
M  V30 21 C -2.839881 0.709028 -5.433207 0
M  V30 22 C -1.954511 -0.006497 -6.203149 0
M  V30 23 C -2.204919 -0.305240 -7.546281 0
M  V30 24 C -3.403443 0.181734 -7.999141 0
M  V30 25 C -4.352390 0.902354 -7.314168 0
M  V30 26 C -4.017809 1.152790 -5.985949 0
M  V30 27 Cl -5.211261 2.073517 -5.069641 0
M  V30 28 C -1.693001 0.548720 -1.846772 0
M  V30 29 C -0.639542 0.352038 -0.981884 0
M  V30 30 C 0.646620 0.480676 -1.439916 0
M  V30 31 C 1.484505 -0.120752 1.745035 0
M  V30 32 H -1.783194 -3.684280 5.132022 0
M  V30 33 H -0.810575 -5.145597 5.595783 0
M  V30 34 H -1.773065 -4.194979 6.848940 0
M  V30 35 H 0.209117 -4.062631 7.989358 0
M  V30 36 H 1.240207 -4.777332 6.729243 0
M  V30 37 H 1.653308 -3.141938 7.451038 0
M  V30 38 H -1.049251 -1.984633 7.297336 0
M  V30 39 H -1.166171 -1.597240 5.567693 0
M  V30 40 H 0.183865 0.095399 6.681614 0
M  V30 41 H 1.197174 -1.085152 7.499473 0
M  V30 42 H 2.511340 -1.090392 5.604003 0
M  V30 43 H 3.765252 -0.937282 4.067169 0
M  V30 44 H 5.167617 -0.810647 2.138123 0
M  V30 45 H 4.333227 -0.269188 -0.006253 0
M  V30 46 H 3.775905 0.572407 -1.772544 0
M  V30 47 H 0.069489 1.255843 -4.585957 0
M  V30 48 H -3.365482 1.569992 -3.545279 0
M  V30 49 H -1.030262 -0.378315 -5.794524 0
M  V30 50 H -1.551524 -0.859980 -8.197803 0
M  V30 51 H -3.646083 -0.026716 -9.053978 0
M  V30 52 H -5.270122 1.245534 -7.753300 0
M  V30 53 H -2.712984 0.439422 -1.459170 0
M  V30 54 H -0.874298 0.092284 0.023299 0
M  V30 55 H 0.453380 0.076584 1.695391 0
M  V30 END ATOM
M  V30 BEGIN BOND
M  V30 1 1 1 2
M  V30 2 1 2 3
M  V30 3 1 2 4
M  V30 4 1 4 5
M  V30 5 1 5 6
M  V30 6 1 6 7
M  V30 7 2 7 8
M  V30 8 1 7 9
M  V30 9 2 9 10
M  V30 10 1 10 11
M  V30 11 2 11 12
M  V30 12 1 12 13
M  V30 13 1 13 14
M  V30 14 1 14 15
M  V30 15 1 15 16
M  V30 16 2 16 17
M  V30 17 1 17 18
M  V30 18 2 18 19
M  V30 19 1 19 20
M  V30 20 1 20 21
M  V30 21 2 21 22
M  V30 22 1 22 23
M  V30 23 2 23 24
M  V30 24 1 24 25
M  V30 25 2 25 26
M  V30 26 1 26 27
M  V30 27 1 19 28
M  V30 28 2 28 29
M  V30 29 1 29 30
M  V30 30 2 13 31
M  V30 31 1 31 9
M  V30 32 2 30 14
M  V30 33 1 30 17
M  V30 34 1 26 21
M  V30 35 1 1 32
M  V30 36 1 1 33
M  V30 37 1 1 34
M  V30 38 1 3 35
M  V30 39 1 3 36
M  V30 40 1 3 37
M  V30 41 1 4 38
M  V30 42 1 4 39
M  V30 43 1 5 40
M  V30 44 1 5 41
M  V30 45 1 6 42
M  V30 46 1 10 43
M  V30 47 1 11 44
M  V30 48 1 12 45
M  V30 49 1 15 46
M  V30 50 1 18 47
M  V30 51 1 20 48
M  V30 52 1 22 49
M  V30 53 1 23 50
M  V30 54 1 24 51
M  V30 55 1 25 52
M  V30 56 1 28 53
M  V30 57 1 29 54
M  V30 58 1 31 55
M  V30 END BOND
M  V30 END CTAB
M  END
>  <Dataset>  (858) 
ChEMBL_Kinases

>  <Ligand_Instance>  (858) 
nan

>  <PDB_ID>  (858) 
nan

>  <Standardized_SMILES>  (858) 
CN(C)CCNC(=O)c1cccc(-c2[nH]nc3cc(Nc4ccccc4Cl)ccc23)c1

>  <Name>  (858) 
nan

>  <Pocket>  (858) 
nan

>  <ATP_Site>  (858) 
nan

>  <Peripheral>  (858) 
nan

>  <Num_H_Atoms_ProtBoundConf>  (858) 
nan

>  <Num_Resolved_Atoms>  (858) 
nan

>  <Num_Not_Resolved_Atoms>  (858) 
nan

$$$$
CHEMBL4746176
     RDKit          3D

  0  0  0  0  0  0  0  0  0  0999 V3000
M  V30 BEGIN CTAB
M  V30 COUNTS 36 39 0 0 0
M  V30 BEGIN ATOM
M  V30 1 O -0.257181 0.418881 3.403293 0
M  V30 2 C -0.351513 0.051104 2.178863 0
M  V30 3 N 0.575956 0.839223 1.488718 0
M  V30 4 C 1.352789 1.788500 2.210165 0
M  V30 5 C 2.557729 1.316246 2.698184 0
M  V30 6 C 3.307607 2.262038 3.404180 0
M  V30 7 N 2.971780 3.562922 3.647457 0
M  V30 8 N 1.788721 3.936091 3.138936 0
M  V30 9 C 0.994467 3.099958 2.444945 0
M  V30 10 C -1.304291 -0.984901 1.868388 0
M  V30 11 N -2.021586 -1.481668 2.894800 0
M  V30 12 N -2.850070 -2.426903 2.425943 0
M  V30 13 C -2.726359 -2.599230 1.100448 0
M  V30 14 C -3.307840 -3.402743 0.148520 0
M  V30 15 C -2.875634 -3.259023 -1.161800 0
M  V30 16 C -1.903436 -2.343727 -1.474977 0
M  V30 17 C -1.449437 -2.198133 -2.872722 0
M  V30 18 C -2.343833 -2.419838 -3.914550 0
M  V30 19 C -1.908202 -2.280808 -5.232675 0
M  V30 20 C -0.580252 -1.922302 -5.409655 0
M  V30 21 N 0.260044 -1.714801 -4.385219 0
M  V30 22 C -0.134351 -1.842245 -3.098008 0
M  V30 23 C -1.322436 -1.539491 -0.518037 0
M  V30 24 C -1.753275 -1.685064 0.777957 0
M  V30 25 H 0.586450 0.623802 0.471712 0
M  V30 26 H 2.986490 0.327953 2.605659 0
M  V30 27 H 4.281007 2.013189 3.841648 0
M  V30 28 H 0.037609 3.432586 2.043933 0
M  V30 29 H -3.500715 -2.944460 3.057439 0
M  V30 30 H -4.071466 -4.100511 0.489053 0
M  V30 31 H -3.345756 -3.903972 -1.910873 0
M  V30 32 H -3.372874 -2.698447 -3.734340 0
M  V30 33 H -2.521108 -2.430333 -6.089185 0
M  V30 34 H -0.108362 -1.779323 -6.391990 0
M  V30 35 H 0.541151 -1.675042 -2.282168 0
M  V30 36 H -0.563218 -0.830787 -0.788392 0
M  V30 END ATOM
M  V30 BEGIN BOND
M  V30 1 2 1 2
M  V30 2 1 2 3
M  V30 3 1 3 4
M  V30 4 2 4 5
M  V30 5 1 5 6
M  V30 6 2 6 7
M  V30 7 1 7 8
M  V30 8 2 8 9
M  V30 9 1 2 10
M  V30 10 2 10 11
M  V30 11 1 11 12
M  V30 12 1 12 13
M  V30 13 2 13 14
M  V30 14 1 14 15
M  V30 15 2 15 16
M  V30 16 1 16 17
M  V30 17 2 17 18
M  V30 18 1 18 19
M  V30 19 2 19 20
M  V30 20 1 20 21
M  V30 21 2 21 22
M  V30 22 1 16 23
M  V30 23 2 23 24
M  V30 24 1 9 4
M  V30 25 1 24 10
M  V30 26 1 24 13
M  V30 27 1 22 17
M  V30 28 1 3 25
M  V30 29 1 5 26
M  V30 30 1 6 27
M  V30 31 1 9 28
M  V30 32 1 12 29
M  V30 33 1 14 30
M  V30 34 1 15 31
M  V30 35 1 18 32
M  V30 36 1 19 33
M  V30 37 1 20 34
M  V30 38 1 22 35
M  V30 39 1 23 36
M  V30 END BOND
M  V30 END CTAB
M  END
>  <Dataset>  (859) 
ChEMBL_Kinases

>  <Ligand_Instance>  (859) 
nan

>  <PDB_ID>  (859) 
nan

>  <Standardized_SMILES>  (859) 
O=C(Nc1ccnnc1)c1n[nH]c2ccc(-c3cccnc3)cc12

>  <Name>  (859) 
nan

>  <Pocket>  (859) 
nan

>  <ATP_Site>  (859) 
nan

>  <Peripheral>  (859) 
nan

>  <Num_H_Atoms_ProtBoundConf>  (859) 
nan

>  <Num_Resolved_Atoms>  (859) 
nan

>  <Num_Not_Resolved_Atoms>  (859) 
nan

$$$$
CHEMBL4746032
     RDKit          3D

  0  0  0  0  0  0  0  0  0  0999 V3000
M  V30 BEGIN CTAB
M  V30 COUNTS 55 59 0 0 0
M  V30 BEGIN ATOM
M  V30 1 C 5.076062 0.353774 3.256391 0
M  V30 2 C 5.825321 1.272711 2.338493 0
M  V30 3 C 6.888627 1.978069 3.147701 0
M  V30 4 C 6.419405 0.459252 1.213939 0
M  V30 5 C 4.895141 2.328215 1.763505 0
M  V30 6 C 3.791616 1.688721 0.989099 0
M  V30 7 O 3.755109 0.448272 0.901005 0
M  V30 8 N 2.792930 2.478118 0.358304 0
M  V30 9 C 1.857586 1.603171 -0.315422 0
M  V30 10 C 2.002619 1.191883 -1.624887 0
M  V30 11 N 1.063242 0.374873 -2.135371 0
M  V30 12 C 0.003530 -0.048232 -1.423265 0
M  V30 13 C -0.185492 0.334701 -0.112065 0
M  V30 14 C -1.303427 -0.076744 0.734331 0
M  V30 15 C -2.316120 -0.910677 0.316204 0
M  V30 16 C -3.367616 -1.297965 1.114428 0
M  V30 17 C -4.442673 -2.112868 0.852757 0
M  V30 18 C -4.862544 -2.848940 -0.322297 0
M  V30 19 C -4.399443 -3.037001 -1.594796 0
M  V30 20 C -5.212849 -3.866157 -2.335854 0
M  V30 21 C -5.127764 -4.317132 -3.637976 0
M  V30 22 N -6.112359 -5.141169 -4.073480 0
M  V30 23 C -7.133848 -5.511662 -3.282481 0
M  V30 24 C -7.194637 -5.046824 -1.986317 0
M  V30 25 C -6.229808 -4.202985 -1.466359 0
M  V30 26 N -5.986876 -3.591127 -0.310108 0
M  V30 27 N -5.104428 -2.098447 2.020034 0
M  V30 28 N -4.499734 -1.348440 2.917923 0
M  V30 29 C -3.401252 -0.820715 2.400428 0
M  V30 30 C -2.399294 0.008637 2.825066 0
M  V30 31 N -1.383766 0.369987 2.021619 0
M  V30 32 C 0.766896 1.165559 0.411946 0
M  V30 33 H 5.770599 0.037807 4.078504 0
M  V30 34 H 4.824194 -0.562231 2.716905 0
M  V30 35 H 4.166254 0.824909 3.691877 0
M  V30 36 H 7.807062 2.165972 2.561977 0
M  V30 37 H 7.117349 1.371656 4.061990 0
M  V30 38 H 6.513709 2.956812 3.510041 0
M  V30 39 H 5.933796 -0.537268 1.180150 0
M  V30 40 H 6.187053 0.931353 0.216125 0
M  V30 41 H 7.512542 0.309943 1.338079 0
M  V30 42 H 5.496145 2.962393 1.065647 0
M  V30 43 H 4.464473 2.894802 2.601443 0
M  V30 44 H 2.838374 3.536213 0.443103 0
M  V30 45 H 2.873780 1.555564 -2.169509 0
M  V30 46 H -0.714998 -0.695857 -1.872848 0
M  V30 47 H -2.249041 -1.253719 -0.681232 0
M  V30 48 H -3.509179 -2.598434 -1.987005 0
M  V30 49 H -4.295821 -4.006856 -4.260415 0
M  V30 50 H -7.927475 -6.172259 -3.624509 0
M  V30 51 H -8.004691 -5.335081 -1.344632 0
M  V30 52 H -6.686374 -3.758390 0.453350 0
M  V30 53 H -4.864071 -1.214107 3.886245 0
M  V30 54 H -2.441792 0.375567 3.842520 0
M  V30 55 H 0.659040 1.491418 1.436945 0
M  V30 END ATOM
M  V30 BEGIN BOND
M  V30 1 1 1 2
M  V30 2 1 2 3
M  V30 3 1 2 4
M  V30 4 1 2 5
M  V30 5 1 5 6
M  V30 6 2 6 7
M  V30 7 1 6 8
M  V30 8 1 8 9
M  V30 9 2 9 10
M  V30 10 1 10 11
M  V30 11 2 11 12
M  V30 12 1 12 13
M  V30 13 1 13 14
M  V30 14 2 14 15
M  V30 15 1 15 16
M  V30 16 1 16 17
M  V30 17 1 17 18
M  V30 18 2 18 19
M  V30 19 1 19 20
M  V30 20 2 20 21
M  V30 21 1 21 22
M  V30 22 2 22 23
M  V30 23 1 23 24
M  V30 24 2 24 25
M  V30 25 1 25 26
M  V30 26 2 17 27
M  V30 27 1 27 28
M  V30 28 1 28 29
M  V30 29 1 29 30
M  V30 30 2 30 31
M  V30 31 2 13 32
M  V30 32 1 32 9
M  V30 33 1 31 14
M  V30 34 2 29 16
M  V30 35 1 26 18
M  V30 36 1 25 20
M  V30 37 1 1 33
M  V30 38 1 1 34
M  V30 39 1 1 35
M  V30 40 1 3 36
M  V30 41 1 3 37
M  V30 42 1 3 38
M  V30 43 1 4 39
M  V30 44 1 4 40
M  V30 45 1 4 41
M  V30 46 1 5 42
M  V30 47 1 5 43
M  V30 48 1 8 44
M  V30 49 1 10 45
M  V30 50 1 12 46
M  V30 51 1 15 47
M  V30 52 1 19 48
M  V30 53 1 21 49
M  V30 54 1 23 50
M  V30 55 1 24 51
M  V30 56 1 26 52
M  V30 57 1 28 53
M  V30 58 1 30 54
M  V30 59 1 32 55
M  V30 END BOND
M  V30 END CTAB
M  END
>  <Dataset>  (860) 
ChEMBL_Kinases

>  <Ligand_Instance>  (860) 
nan

>  <PDB_ID>  (860) 
nan

>  <Standardized_SMILES>  (860) 
CC(C)(C)CC(=O)Nc1cncc(-c2cc3c(-c4cc5cnccc5[nH]4)n[nH]c3cn2)c1

>  <Name>  (860) 
nan

>  <Pocket>  (860) 
nan

>  <ATP_Site>  (860) 
nan

>  <Peripheral>  (860) 
nan

>  <Num_H_Atoms_ProtBoundConf>  (860) 
nan

>  <Num_Resolved_Atoms>  (860) 
nan

>  <Num_Not_Resolved_Atoms>  (860) 
nan

$$$$
CHEMBL1990583
     RDKit          3D

  0  0  0  0  0  0  0  0  0  0999 V3000
M  V30 BEGIN CTAB
M  V30 COUNTS 46 49 0 0 0
M  V30 BEGIN ATOM
M  V30 1 N 2.086422 -0.413133 -0.912177 0
M  V30 2 C 3.410068 -0.140694 -1.296662 0
M  V30 3 N 4.148998 -1.130904 -1.865049 0
M  V30 4 C 5.418663 -0.932282 -2.247258 0
M  V30 5 N 5.906570 0.291210 -2.036166 0
M  V30 6 N 5.196696 1.259098 -1.485110 0
M  V30 7 C 5.636786 2.499592 -1.252213 0
M  V30 8 C 4.606492 3.231906 -0.665315 0
M  V30 9 C 3.526038 2.393846 -0.549765 0
M  V30 10 C 2.122127 2.289343 -0.110104 0
M  V30 11 O 1.217710 2.765281 -0.800884 0
M  V30 12 N 1.792314 1.616977 1.132430 0
M  V30 13 C 0.502057 1.387370 1.678356 0
M  V30 14 C 0.465995 0.857549 2.950748 0
M  V30 15 C -0.735825 0.514451 3.515546 0
M  V30 16 C -1.850510 0.733296 2.737685 0
M  V30 17 N -3.182303 0.330727 3.118736 0
M  V30 18 C -3.258111 -1.025598 2.582086 0
M  V30 19 O -2.117869 -1.279307 2.015298 0
M  V30 20 N -4.199143 -2.106603 2.511662 0
M  V30 21 C -3.656733 -3.271720 1.808689 0
M  V30 22 C -3.003532 -4.130257 2.651934 0
M  V30 23 C -2.395505 -5.240526 2.030449 0
M  V30 24 C -2.538422 -5.316529 0.657118 0
M  V30 25 C -3.200176 -4.440467 -0.167743 0
M  V30 26 F -3.301321 -4.568903 -1.491552 0
M  V30 27 C -3.814640 -3.326507 0.441873 0
M  V30 28 C -1.851387 1.270150 1.450107 0
M  V30 29 C -0.600971 1.603274 0.922401 0
M  V30 30 C 3.909996 1.136305 -1.073941 0
M  V30 31 H 1.115934 -0.007673 -1.035635 0
M  V30 32 H 1.313596 -0.911668 -0.461278 0
M  V30 33 H 5.882565 -1.803007 -2.681518 0
M  V30 34 H 6.539793 3.041053 -1.400935 0
M  V30 35 H 4.364777 4.212498 -0.279322 0
M  V30 36 H 2.675397 1.287501 1.629035 0
M  V30 37 H 1.341289 0.686042 3.564717 0
M  V30 38 H -0.860476 0.097734 4.498783 0
M  V30 39 H -4.101116 0.506612 3.569481 0
M  V30 40 H -5.050244 -1.700670 3.017098 0
M  V30 41 H -2.919305 -4.022788 3.720932 0
M  V30 42 H -1.851614 -5.978584 2.571017 0
M  V30 43 H -2.046115 -6.191163 0.186437 0
M  V30 44 H -4.360117 -2.561479 -0.060017 0
M  V30 45 H -2.741934 1.435243 0.863598 0
M  V30 46 H -0.654618 2.006936 -0.065668 0
M  V30 END ATOM
M  V30 BEGIN BOND
M  V30 1 1 1 2
M  V30 2 2 2 3
M  V30 3 1 3 4
M  V30 4 2 4 5
M  V30 5 1 5 6
M  V30 6 1 6 7
M  V30 7 2 7 8
M  V30 8 1 8 9
M  V30 9 1 9 10
M  V30 10 2 10 11
M  V30 11 1 10 12
M  V30 12 1 12 13
M  V30 13 2 13 14
M  V30 14 1 14 15
M  V30 15 2 15 16
M  V30 16 1 16 17
M  V30 17 1 17 18
M  V30 18 2 18 19
M  V30 19 1 18 20
M  V30 20 1 20 21
M  V30 21 2 21 22
M  V30 22 1 22 23
M  V30 23 2 23 24
M  V30 24 1 24 25
M  V30 25 1 25 26
M  V30 26 2 25 27
M  V30 27 1 16 28
M  V30 28 2 28 29
M  V30 29 2 9 30
M  V30 30 1 30 2
M  V30 31 1 30 6
M  V30 32 1 29 13
M  V30 33 1 27 21
M  V30 34 1 1 31
M  V30 35 1 1 32
M  V30 36 1 4 33
M  V30 37 1 7 34
M  V30 38 1 8 35
M  V30 39 1 12 36
M  V30 40 1 14 37
M  V30 41 1 15 38
M  V30 42 1 17 39
M  V30 43 1 20 40
M  V30 44 1 22 41
M  V30 45 1 23 42
M  V30 46 1 24 43
M  V30 47 1 27 44
M  V30 48 1 28 45
M  V30 49 1 29 46
M  V30 END BOND
M  V30 END CTAB
M  END
>  <Dataset>  (861) 
ChEMBL_Kinases

>  <Ligand_Instance>  (861) 
nan

>  <PDB_ID>  (861) 
nan

>  <Standardized_SMILES>  (861) 
Nc1ncnn2ccc(C(=O)Nc3ccc(NC(=O)Nc4cccc(F)c4)cc3)c12

>  <Name>  (861) 
nan

>  <Pocket>  (861) 
nan

>  <ATP_Site>  (861) 
nan

>  <Peripheral>  (861) 
nan

>  <Num_H_Atoms_ProtBoundConf>  (861) 
nan

>  <Num_Resolved_Atoms>  (861) 
nan

>  <Num_Not_Resolved_Atoms>  (861) 
nan

$$$$
CHEMBL199136
     RDKit          3D

  0  0  0  0  0  0  0  0  0  0999 V3000
M  V30 BEGIN CTAB
M  V30 COUNTS 41 44 0 0 0
M  V30 BEGIN ATOM
M  V30 1 N 3.306836 -7.601375 -0.076052 0
M  V30 2 C 2.677262 -6.481500 -0.644291 0
M  V30 3 O 2.365168 -6.654741 -1.868997 0
M  V30 4 C 2.453840 -5.299437 0.171408 0
M  V30 5 C 2.855293 -5.265327 1.485862 0
M  V30 6 C 2.624734 -4.131244 2.215702 0
M  V30 7 C 2.002091 -3.081847 1.595308 0
M  V30 8 C 1.565471 -3.009248 0.308264 0
M  V30 9 C 0.890763 -1.971299 -0.421531 0
M  V30 10 N 0.594786 -2.058806 -1.735371 0
M  V30 11 N -0.027641 -0.989212 -2.161358 0
M  V30 12 C -0.198940 -0.100881 -1.169797 0
M  V30 13 C -0.783751 1.141723 -1.108062 0
M  V30 14 C -0.774626 1.768535 0.119644 0
M  V30 15 N -1.373448 3.054679 0.202403 0
M  V30 16 C -1.624904 3.968592 1.260748 0
M  V30 17 C -1.119419 5.258898 1.342208 0
M  V30 18 C -1.443224 6.051059 2.425077 0
M  V30 19 C -2.250985 5.602284 3.426097 0
M  V30 20 C -2.748736 4.327154 3.342597 0
M  V30 21 C -2.452812 3.492107 2.274993 0
M  V30 22 Cl -3.193360 1.913767 2.363631 0
M  V30 23 C -0.205711 1.174427 1.227565 0
M  V30 24 C 0.361138 -0.071348 1.088742 0
M  V30 25 C 0.382222 -0.741385 -0.103093 0
M  V30 26 C 1.837446 -4.190706 -0.352385 0
M  V30 27 H 3.483680 -8.455228 0.493659 0
M  V30 28 H 3.653085 -8.447065 0.411280 0
M  V30 29 H 3.336501 -6.118441 1.911644 0
M  V30 30 H 2.930749 -4.089564 3.236681 0
M  V30 31 H 1.868564 -2.234942 2.229207 0
M  V30 32 H 0.759040 -2.793758 -2.465318 0
M  V30 33 H -1.203458 1.543223 -1.996550 0
M  V30 34 H -1.753344 3.552286 -0.618943 0
M  V30 35 H -0.476827 5.564757 0.510233 0
M  V30 36 H -1.023675 7.061605 2.449018 0
M  V30 37 H -2.467636 6.282445 4.255680 0
M  V30 38 H -3.390548 4.035744 4.184068 0
M  V30 39 H -0.220105 1.704721 2.169882 0
M  V30 40 H 0.773346 -0.464999 1.986507 0
M  V30 41 H 1.563972 -4.341702 -1.411280 0
M  V30 END ATOM
M  V30 BEGIN BOND
M  V30 1 1 1 2
M  V30 2 2 2 3
M  V30 3 1 2 4
M  V30 4 2 4 5
M  V30 5 1 5 6
M  V30 6 2 6 7
M  V30 7 1 7 8
M  V30 8 1 8 9
M  V30 9 1 9 10
M  V30 10 1 10 11
M  V30 11 2 11 12
M  V30 12 1 12 13
M  V30 13 2 13 14
M  V30 14 1 14 15
M  V30 15 1 15 16
M  V30 16 2 16 17
M  V30 17 1 17 18
M  V30 18 2 18 19
M  V30 19 1 19 20
M  V30 20 2 20 21
M  V30 21 1 21 22
M  V30 22 1 14 23
M  V30 23 2 23 24
M  V30 24 1 24 25
M  V30 25 2 8 26
M  V30 26 1 26 4
M  V30 27 2 25 9
M  V30 28 1 25 12
M  V30 29 1 21 16
M  V30 30 1 1 27
M  V30 31 1 1 28
M  V30 32 1 5 29
M  V30 33 1 6 30
M  V30 34 1 7 31
M  V30 35 1 10 32
M  V30 36 1 13 33
M  V30 37 1 15 34
M  V30 38 1 17 35
M  V30 39 1 18 36
M  V30 40 1 19 37
M  V30 41 1 20 38
M  V30 42 1 23 39
M  V30 43 1 24 40
M  V30 44 1 26 41
M  V30 END BOND
M  V30 END CTAB
M  END
>  <Dataset>  (862) 
ChEMBL_Kinases

>  <Ligand_Instance>  (862) 
nan

>  <PDB_ID>  (862) 
nan

>  <Standardized_SMILES>  (862) 
NC(=O)c1cccc(-c2[nH]nc3cc(Nc4ccccc4Cl)ccc23)c1

>  <Name>  (862) 
nan

>  <Pocket>  (862) 
nan

>  <ATP_Site>  (862) 
nan

>  <Peripheral>  (862) 
nan

>  <Num_H_Atoms_ProtBoundConf>  (862) 
nan

>  <Num_Resolved_Atoms>  (862) 
nan

>  <Num_Not_Resolved_Atoms>  (862) 
nan

$$$$
CHEMBL4456400
     RDKit          3D

  0  0  0  0  0  0  0  0  0  0999 V3000
M  V30 BEGIN CTAB
M  V30 COUNTS 66 69 0 0 0
M  V30 BEGIN ATOM
M  V30 1 C 1.696765 -1.326324 5.842083 0
M  V30 2 C 3.030851 -1.137715 5.159270 0
M  V30 3 C 2.933137 -1.208582 3.700814 0 CFG=2
M  V30 4 C 4.337717 -1.006541 3.106501 0
M  V30 5 O 5.395991 -0.654393 3.712735 0
M  V30 6 N 4.493920 -1.236692 1.685043 0
M  V30 7 C 5.756380 -1.753192 1.103573 0
M  V30 8 C 3.310777 -0.974838 0.875260 0
M  V30 9 C 3.409134 -1.278888 -0.457892 0
M  V30 10 N 2.280167 -1.137389 -1.176268 0
M  V30 11 C 1.154007 -0.719668 -0.583126 0
M  V30 12 N -0.169835 -0.568112 -0.979436 0
M  V30 13 C -1.510724 -0.408623 -1.380080 0
M  V30 14 C -1.877412 0.868297 -1.698380 0
M  V30 15 C -3.135434 1.090548 -2.213470 0
M  V30 16 F -3.748993 2.229745 -2.575448 0
M  V30 17 C -3.944145 0.011107 -2.375779 0
M  V30 18 C -5.286598 -0.117534 -3.066187 0
M  V30 19 O -6.278613 -0.812869 -2.718607 0
M  V30 20 N -5.160896 0.721818 -4.203806 0
M  V30 21 C -6.222556 0.894391 -5.172289 0
M  V30 22 C -3.677016 -1.279524 -2.080384 0
M  V30 23 C -2.382050 -1.533939 -1.547045 0
M  V30 24 O -1.803309 -2.639772 -1.161323 0
M  V30 25 C -1.983614 -3.977706 -1.076984 0
M  V30 26 C -2.036266 -4.492058 -2.541679 0
M  V30 27 O -0.769791 -4.096294 -3.123289 0
M  V30 28 N 1.145332 -0.435577 0.721348 0
M  V30 29 C 2.223712 -0.537649 1.579960 0
M  V30 30 N 2.046970 -0.287513 2.976939 0
M  V30 31 C 1.086676 0.767889 3.211199 0
M  V30 32 C -0.355868 0.453701 3.050330 0
M  V30 33 C -0.972053 1.862340 2.874995 0
M  V30 34 C 0.077952 2.718860 2.193303 0
M  V30 35 C 1.392776 1.992365 2.331172 0
M  V30 36 H 1.726638 -0.934971 6.881658 0
M  V30 37 H 0.882644 -0.957012 5.232424 0
M  V30 38 H 1.482224 -2.423405 5.949108 0
M  V30 39 H 3.643965 -0.312932 5.582430 0
M  V30 40 H 3.613791 -2.047789 5.481046 0
M  V30 41 H 2.643627 -2.246934 3.396169 0
M  V30 42 H 6.227073 -2.446011 1.865416 0
M  V30 43 H 6.451186 -0.920490 0.885028 0
M  V30 44 H 5.608977 -2.320819 0.179078 0
M  V30 45 H 4.254070 -1.608264 -0.993131 0
M  V30 46 H -0.034238 -1.579309 -1.258843 0
M  V30 47 H -1.306996 1.800160 -1.614076 0
M  V30 48 H -4.313959 1.309502 -4.524336 0
M  V30 49 H -6.258309 1.910116 -5.550350 0
M  V30 50 H -7.253894 0.638770 -4.776453 0
M  V30 51 H -6.068880 0.222120 -6.064291 0
M  V30 52 H -4.185889 -2.223609 -2.106921 0
M  V30 53 H -2.778110 -4.357934 -0.467082 0
M  V30 54 H -0.999708 -4.428792 -0.669763 0
M  V30 55 H -2.851210 -3.918435 -3.021142 0
M  V30 56 H -2.091347 -5.573647 -2.609883 0
M  V30 57 H -0.038357 -4.171564 -2.421477 0
M  V30 58 H 1.193510 1.188573 4.254386 0
M  V30 59 H -0.621342 -0.206579 2.202136 0
M  V30 60 H -0.810175 0.086636 3.972157 0
M  V30 61 H -1.800732 1.744843 2.184698 0
M  V30 62 H -1.239198 2.279535 3.856688 0
M  V30 63 H -0.150002 2.926788 1.151750 0
M  V30 64 H 0.187313 3.668889 2.742074 0
M  V30 65 H 2.200917 2.598095 2.832641 0
M  V30 66 H 1.786105 1.740501 1.353049 0
M  V30 END ATOM
M  V30 BEGIN BOND
M  V30 1 1 1 2
M  V30 2 1 2 3
M  V30 3 1 3 4
M  V30 4 2 4 5
M  V30 5 1 4 6
M  V30 6 1 6 7
M  V30 7 1 6 8
M  V30 8 2 8 9
M  V30 9 1 9 10
M  V30 10 2 10 11
M  V30 11 1 11 12
M  V30 12 1 12 13
M  V30 13 2 13 14
M  V30 14 1 14 15
M  V30 15 1 15 16
M  V30 16 2 15 17
M  V30 17 1 17 18
M  V30 18 2 18 19
M  V30 19 1 18 20
M  V30 20 1 20 21
M  V30 21 1 17 22
M  V30 22 2 22 23
M  V30 23 1 23 24
M  V30 24 1 24 25
M  V30 25 1 25 26
M  V30 26 1 26 27
M  V30 27 1 11 28
M  V30 28 2 28 29
M  V30 29 1 29 30
M  V30 30 1 30 31
M  V30 31 1 31 32
M  V30 32 1 32 33
M  V30 33 1 33 34
M  V30 34 1 34 35
M  V30 35 1 30 3
M  V30 36 1 35 31
M  V30 37 1 29 8
M  V30 38 1 23 13
M  V30 39 1 1 36
M  V30 40 1 1 37
M  V30 41 1 1 38
M  V30 42 1 2 39
M  V30 43 1 2 40
M  V30 44 1 3 41 CFG=1
M  V30 45 1 7 42
M  V30 46 1 7 43
M  V30 47 1 7 44
M  V30 48 1 9 45
M  V30 49 1 12 46
M  V30 50 1 14 47
M  V30 51 1 20 48
M  V30 52 1 21 49
M  V30 53 1 21 50
M  V30 54 1 21 51
M  V30 55 1 22 52
M  V30 56 1 25 53
M  V30 57 1 25 54
M  V30 58 1 26 55
M  V30 59 1 26 56
M  V30 60 1 27 57
M  V30 61 1 31 58
M  V30 62 1 32 59
M  V30 63 1 32 60
M  V30 64 1 33 61
M  V30 65 1 33 62
M  V30 66 1 34 63
M  V30 67 1 34 64
M  V30 68 1 35 65
M  V30 69 1 35 66
M  V30 END BOND
M  V30 END CTAB
M  END
>  <Dataset>  (863) 
ChEMBL_Kinases

>  <Ligand_Instance>  (863) 
nan

>  <PDB_ID>  (863) 
nan

>  <Standardized_SMILES>  (863) 
CC[C@@H]1C(=O)N(C)c2cnc(Nc3cc(F)c(C(=O)NC)cc3OCCO)nc2N1C1CCCC1

>  <Name>  (863) 
nan

>  <Pocket>  (863) 
nan

>  <ATP_Site>  (863) 
nan

>  <Peripheral>  (863) 
nan

>  <Num_H_Atoms_ProtBoundConf>  (863) 
nan

>  <Num_Resolved_Atoms>  (863) 
nan

>  <Num_Not_Resolved_Atoms>  (863) 
nan

$$$$
CHEMBL4456539
     RDKit          3D

  0  0  0  0  0  0  0  0  0  0999 V3000
M  V30 BEGIN CTAB
M  V30 COUNTS 65 68 0 0 0
M  V30 BEGIN ATOM
M  V30 1 C 2.648728 2.667538 3.140482 0
M  V30 2 O 1.453441 1.907907 3.199213 0
M  V30 3 C 1.183814 0.897153 2.292090 0
M  V30 4 C 2.113827 0.634062 1.315042 0
M  V30 5 C 1.906626 -0.358702 0.383407 0
M  V30 6 N 2.899985 -0.587638 -0.607970 0
M  V30 7 C 2.620566 0.219993 -1.745189 0
M  V30 8 O 1.571507 0.930519 -1.590611 0
M  V30 9 C 3.401734 0.275703 -2.974987 0
M  V30 10 C 2.990107 1.084784 -3.925155 0
M  V30 11 C 3.713859 1.214801 -5.214964 0
M  V30 12 N 4.165902 2.562464 -5.429028 0
M  V30 13 C 4.845953 2.701369 -6.698891 0
M  V30 14 C 3.015523 3.439004 -5.425739 0
M  V30 15 C 0.742673 -1.096610 0.439448 0
M  V30 16 C -0.154097 -0.787320 1.441491 0
M  V30 17 C -0.001263 0.192979 2.399717 0
M  V30 18 N -0.950030 0.489619 3.411067 0
M  V30 19 C -2.203501 -0.120029 3.680756 0
M  V30 20 N -2.714895 -1.162130 3.007607 0
M  V30 21 C -3.895293 -1.731804 3.248935 0
M  V30 22 N -4.410105 -2.839759 2.523964 0
M  V30 23 C -3.706656 -3.523002 1.504237 0
M  V30 24 C -4.178431 -3.550867 0.226261 0
M  V30 25 C -3.509845 -4.216003 -0.772453 0
M  V30 26 C -2.322746 -4.891542 -0.530977 0
M  V30 27 C -1.832364 -4.875347 0.746652 0
M  V30 28 C -2.528923 -4.199747 1.720198 0
M  V30 29 C -1.937239 -4.265812 3.039468 0
M  V30 30 N -0.721577 -4.927254 3.339770 0
M  V30 31 O -2.051712 -3.935720 4.237223 0
M  V30 32 C -4.622064 -1.183451 4.276800 0
M  V30 33 C -5.866497 -1.502306 4.804772 0
M  V30 34 C -6.105548 -0.612123 5.836351 0
M  V30 35 N -5.060769 0.229401 5.953551 0
M  V30 36 C -4.161616 -0.113410 5.011826 0
M  V30 37 N -2.959601 0.354004 4.655827 0
M  V30 38 H 3.567819 2.033341 3.136706 0
M  V30 39 H 2.586689 3.316238 2.261862 0
M  V30 40 H 2.742956 3.299656 4.046730 0
M  V30 41 H 3.019695 1.219926 1.284305 0
M  V30 42 H 3.742735 -1.200969 -0.649237 0
M  V30 43 H 4.280935 -0.335593 -3.075555 0
M  V30 44 H 2.121414 1.719325 -3.885797 0
M  V30 45 H 3.039180 0.940263 -6.063983 0
M  V30 46 H 4.572081 0.508836 -5.287775 0
M  V30 47 H 5.839358 3.206497 -6.562720 0
M  V30 48 H 5.029888 1.712768 -7.176526 0
M  V30 49 H 4.270676 3.318169 -7.400604 0
M  V30 50 H 2.739147 3.714899 -4.374558 0
M  V30 51 H 2.150040 2.888135 -5.832975 0
M  V30 52 H 3.161640 4.359638 -6.046911 0
M  V30 53 H 0.563181 -1.879959 -0.283125 0
M  V30 54 H -1.040342 -1.399118 1.429045 0
M  V30 55 H -0.664109 1.290099 4.051479 0
M  V30 56 H -5.348216 -3.196504 2.722109 0
M  V30 57 H -5.094069 -3.054305 -0.052044 0
M  V30 58 H -3.882653 -4.240619 -1.790300 0
M  V30 59 H -1.803376 -5.413576 -1.325822 0
M  V30 60 H -0.899442 -5.409961 0.917672 0
M  V30 61 H 0.268282 -4.610086 3.366087 0
M  V30 62 H -0.569548 -5.942286 3.614532 0
M  V30 63 H -6.556118 -2.280234 4.509522 0
M  V30 64 H -6.955041 -0.514912 6.503946 0
M  V30 65 H -4.943339 1.021804 6.648538 0
M  V30 END ATOM
M  V30 BEGIN BOND
M  V30 1 1 1 2
M  V30 2 1 2 3
M  V30 3 2 3 4
M  V30 4 1 4 5
M  V30 5 1 5 6
M  V30 6 1 6 7
M  V30 7 2 7 8
M  V30 8 1 7 9
M  V30 9 2 9 10
M  V30 10 1 10 11
M  V30 11 1 11 12
M  V30 12 1 12 13
M  V30 13 1 12 14
M  V30 14 2 5 15
M  V30 15 1 15 16
M  V30 16 2 16 17
M  V30 17 1 17 18
M  V30 18 1 18 19
M  V30 19 2 19 20
M  V30 20 1 20 21
M  V30 21 1 21 22
M  V30 22 1 22 23
M  V30 23 2 23 24
M  V30 24 1 24 25
M  V30 25 2 25 26
M  V30 26 1 26 27
M  V30 27 2 27 28
M  V30 28 1 28 29
M  V30 29 1 29 30
M  V30 30 2 29 31
M  V30 31 2 21 32
M  V30 32 1 32 33
M  V30 33 2 33 34
M  V30 34 1 34 35
M  V30 35 1 35 36
M  V30 36 2 36 37
M  V30 37 1 17 3
M  V30 38 1 37 19
M  V30 39 1 28 23
M  V30 40 1 36 32
M  V30 41 1 1 38
M  V30 42 1 1 39
M  V30 43 1 1 40
M  V30 44 1 4 41
M  V30 45 1 6 42
M  V30 46 1 9 43
M  V30 47 1 10 44
M  V30 48 1 11 45
M  V30 49 1 11 46
M  V30 50 1 13 47
M  V30 51 1 13 48
M  V30 52 1 13 49
M  V30 53 1 14 50
M  V30 54 1 14 51
M  V30 55 1 14 52
M  V30 56 1 15 53
M  V30 57 1 16 54
M  V30 58 1 18 55
M  V30 59 1 22 56
M  V30 60 1 24 57
M  V30 61 1 25 58
M  V30 62 1 26 59
M  V30 63 1 27 60
M  V30 64 1 30 61
M  V30 65 1 30 62
M  V30 66 1 33 63
M  V30 67 1 34 64
M  V30 68 1 35 65
M  V30 END BOND
M  V30 END CTAB
M  END
>  <Dataset>  (864) 
ChEMBL_Kinases

>  <Ligand_Instance>  (864) 
nan

>  <PDB_ID>  (864) 
nan

>  <Standardized_SMILES>  (864) 
COc1cc(NC(=O)/C=C/CN(C)C)ccc1Nc1nc(Nc2ccccc2C(N)=O)c2cc[nH]c2n1

>  <Name>  (864) 
nan

>  <Pocket>  (864) 
nan

>  <ATP_Site>  (864) 
nan

>  <Peripheral>  (864) 
nan

>  <Num_H_Atoms_ProtBoundConf>  (864) 
nan

>  <Num_Resolved_Atoms>  (864) 
nan

>  <Num_Not_Resolved_Atoms>  (864) 
nan

$$$$
CHEMBL4745861
     RDKit          3D

  0  0  0  0  0  0  0  0  0  0999 V3000
M  V30 BEGIN CTAB
M  V30 COUNTS 69 75 0 0 0
M  V30 BEGIN ATOM
M  V30 1 C 6.255685 -2.631653 4.608023 0
M  V30 2 N 6.241713 -1.268493 4.114487 0
M  V30 3 C 7.293355 -0.517089 4.785449 0
M  V30 4 C 6.422650 -1.171626 2.686390 0
M  V30 5 C 6.379539 0.280252 2.313102 0
M  V30 6 C 7.480612 1.116235 2.250463 0
M  V30 7 N 7.273737 2.398469 1.902255 0
M  V30 8 C 6.073070 2.910276 1.614689 0
M  V30 9 C 4.966907 2.089615 1.672856 0
M  V30 10 C 3.610055 2.562172 1.378221 0
M  V30 11 C 3.343377 3.876053 1.698208 0
M  V30 12 N 2.105245 4.333625 1.439490 0
M  V30 13 C 1.150281 3.568142 0.894236 0
M  V30 14 N -0.128890 3.755833 0.539481 0
M  V30 15 N -0.635645 2.659774 0.036928 0
M  V30 16 C 0.276607 1.643329 0.017012 0
M  V30 17 C 0.014593 0.305812 -0.482235 0
M  V30 18 N -1.184749 -0.044610 -0.979649 0
M  V30 19 C -1.179744 -1.300832 -1.368396 0
M  V30 20 C -2.159557 -2.121497 -1.942546 0
M  V30 21 C -3.502227 -1.550659 -2.196706 0
M  V30 22 C -3.503488 -0.288338 -2.752484 0
M  V30 23 C -4.760378 0.227773 -2.982783 0
M  V30 24 F -4.863933 1.478710 -3.533319 0
M  V30 25 C -5.951836 -0.406455 -2.706511 0
M  V30 26 C -5.875119 -1.682225 -2.144749 0
M  V30 27 N -7.039545 -2.431614 -1.817564 0
M  V30 28 C -7.143796 -3.772272 -1.269277 0
M  V30 29 C -7.812155 -3.791911 0.093608 0
M  V30 30 O -8.338329 -2.546338 0.389585 0
M  V30 31 C -9.153957 -2.062728 -0.633448 0
M  V30 32 C -8.419980 -2.015798 -1.959749 0
M  V30 33 C -4.672968 -2.254192 -1.889913 0
M  V30 34 C -1.822309 -3.429807 -2.241465 0
M  V30 35 N -0.585174 -3.904631 -1.988038 0
M  V30 36 C 0.385694 -3.146096 -1.436030 0
M  V30 37 C 0.062976 -1.846338 -1.135193 0
M  V30 38 N 0.731154 -0.813708 -0.597807 0
M  V30 39 C 1.384610 2.251002 0.562668 0
M  V30 40 C 2.629928 1.772838 0.817289 0
M  V30 41 C 5.090602 0.746055 2.025156 0
M  V30 42 H 5.253932 -3.130138 4.500984 0
M  V30 43 H 7.049059 -3.258026 4.202987 0
M  V30 44 H 6.426408 -2.564624 5.712105 0
M  V30 45 H 8.267814 -0.825395 4.386657 0
M  V30 46 H 7.310760 -0.747901 5.879491 0
M  V30 47 H 7.091065 0.553611 4.614682 0
M  V30 48 H 5.639268 -1.737608 2.145375 0
M  V30 49 H 7.427438 -1.573680 2.404028 0
M  V30 50 H 8.436231 0.682742 2.485843 0
M  V30 51 H 5.905224 3.939948 1.334910 0
M  V30 52 H 4.039631 4.592857 2.145013 0
M  V30 53 H -0.687858 4.628116 0.628679 0
M  V30 54 H -2.593124 0.243634 -2.984504 0
M  V30 55 H -6.907560 0.053316 -2.911413 0
M  V30 56 H -7.723065 -4.462255 -1.928007 0
M  V30 57 H -6.167467 -4.271408 -1.128196 0
M  V30 58 H -7.088255 -4.033949 0.912901 0
M  V30 59 H -8.613662 -4.555625 0.168679 0
M  V30 60 H -9.513061 -1.070907 -0.296330 0
M  V30 61 H -10.026650 -2.746866 -0.689646 0
M  V30 62 H -8.969371 -2.686512 -2.681315 0
M  V30 63 H -8.545075 -1.004504 -2.358302 0
M  V30 64 H -4.469741 -3.213935 -1.466990 0
M  V30 65 H -2.586444 -4.062227 -2.686823 0
M  V30 66 H 1.388686 -3.488692 -1.217309 0
M  V30 67 H 1.720569 -0.924823 -0.311785 0
M  V30 68 H 2.889886 0.774588 0.592559 0
M  V30 69 H 4.215585 0.107427 2.068319 0
M  V30 END ATOM
M  V30 BEGIN BOND
M  V30 1 1 1 2
M  V30 2 1 2 3
M  V30 3 1 2 4
M  V30 4 1 4 5
M  V30 5 2 5 6
M  V30 6 1 6 7
M  V30 7 2 7 8
M  V30 8 1 8 9
M  V30 9 1 9 10
M  V30 10 2 10 11
M  V30 11 1 11 12
M  V30 12 2 12 13
M  V30 13 1 13 14
M  V30 14 1 14 15
M  V30 15 2 15 16
M  V30 16 1 16 17
M  V30 17 2 17 18
M  V30 18 1 18 19
M  V30 19 2 19 20
M  V30 20 1 20 21
M  V30 21 2 21 22
M  V30 22 1 22 23
M  V30 23 1 23 24
M  V30 24 2 23 25
M  V30 25 1 25 26
M  V30 26 1 26 27
M  V30 27 1 27 28
M  V30 28 1 28 29
M  V30 29 1 29 30
M  V30 30 1 30 31
M  V30 31 1 31 32
M  V30 32 2 26 33
M  V30 33 1 20 34
M  V30 34 2 34 35
M  V30 35 1 35 36
M  V30 36 2 36 37
M  V30 37 1 37 38
M  V30 38 1 16 39
M  V30 39 2 39 40
M  V30 40 2 9 41
M  V30 41 1 41 5
M  V30 42 1 40 10
M  V30 43 1 39 13
M  V30 44 1 38 17
M  V30 45 1 37 19
M  V30 46 1 33 21
M  V30 47 1 32 27
M  V30 48 1 1 42
M  V30 49 1 1 43
M  V30 50 1 1 44
M  V30 51 1 3 45
M  V30 52 1 3 46
M  V30 53 1 3 47
M  V30 54 1 4 48
M  V30 55 1 4 49
M  V30 56 1 6 50
M  V30 57 1 8 51
M  V30 58 1 11 52
M  V30 59 1 14 53
M  V30 60 1 22 54
M  V30 61 1 25 55
M  V30 62 1 28 56
M  V30 63 1 28 57
M  V30 64 1 29 58
M  V30 65 1 29 59
M  V30 66 1 31 60
M  V30 67 1 31 61
M  V30 68 1 32 62
M  V30 69 1 32 63
M  V30 70 1 33 64
M  V30 71 1 34 65
M  V30 72 1 36 66
M  V30 73 1 38 67
M  V30 74 1 40 68
M  V30 75 1 41 69
M  V30 END BOND
M  V30 END CTAB
M  END
>  <Dataset>  (865) 
ChEMBL_Kinases

>  <Ligand_Instance>  (865) 
nan

>  <PDB_ID>  (865) 
nan

>  <Standardized_SMILES>  (865) 
CN(C)Cc1cncc(-c2cnc3[nH]nc(-c4nc5c(-c6cc(F)cc(N7CCOCC7)c6)cncc5[nH]4)c3c2)c1

>  <Name>  (865) 
nan

>  <Pocket>  (865) 
nan

>  <ATP_Site>  (865) 
nan

>  <Peripheral>  (865) 
nan

>  <Num_H_Atoms_ProtBoundConf>  (865) 
nan

>  <Num_Resolved_Atoms>  (865) 
nan

>  <Num_Not_Resolved_Atoms>  (865) 
nan

$$$$
CHEMBL4745735
     RDKit          3D

  0  0  0  0  0  0  0  0  0  0999 V3000
M  V30 BEGIN CTAB
M  V30 COUNTS 50 54 0 0 0
M  V30 BEGIN ATOM
M  V30 1 C 1.519205 -7.955080 -3.597592 0
M  V30 2 N 2.358014 -6.924382 -2.987772 0
M  V30 3 C 2.100526 -5.616901 -2.801843 0
M  V30 4 C 3.171273 -5.003357 -2.184635 0
M  V30 5 C 3.335773 -3.607934 -1.790890 0
M  V30 6 C 4.551242 -2.955814 -1.762635 0
M  V30 7 C 4.684751 -1.634935 -1.386817 0
M  V30 8 C 3.529397 -0.970585 -1.030528 0
M  V30 9 C 3.572758 0.361406 -0.639032 0
M  V30 10 N 2.443539 1.036258 -0.283083 0
M  V30 11 C 1.231915 0.449807 -0.292293 0
M  V30 12 N 0.135393 1.267004 0.101757 0
M  V30 13 C -0.227092 1.304012 1.476445 0
M  V30 14 O 0.491236 0.581155 2.218873 0
M  V30 15 C -1.331761 2.105725 1.988771 0
M  V30 16 C -2.134813 2.907979 1.204692 0
M  V30 17 C -3.164003 3.639800 1.760402 0
M  V30 18 C -3.401248 3.578662 3.098663 0
M  V30 19 C -2.608155 2.780581 3.903010 0
M  V30 20 C -1.582106 2.053201 3.337662 0
M  V30 21 C -2.895952 2.737377 5.362314 0
M  V30 22 N -4.308282 2.638623 5.655976 0
M  V30 23 C -5.165750 3.248120 4.690386 0
M  V30 24 C -4.463457 4.299734 3.851742 0
M  V30 25 C 1.124782 -0.872533 -0.672197 0
M  V30 26 C 2.274934 -1.544618 -1.030092 0
M  V30 27 C 2.223504 -2.873315 -1.419489 0
M  V30 28 C 4.094305 -6.041211 -2.012628 0
M  V30 29 N 3.565817 -7.196355 -2.513099 0
M  V30 30 H 0.628909 -7.491296 -4.093230 0
M  V30 31 H 2.067693 -8.471681 -4.397828 0
M  V30 32 H 1.184000 -8.682009 -2.807468 0
M  V30 33 H 1.171535 -5.113935 -3.099453 0
M  V30 34 H 5.446843 -3.525798 -2.055255 0
M  V30 35 H 5.649638 -1.132148 -1.368759 0
M  V30 36 H 4.512228 0.897100 -0.607826 0
M  V30 37 H -0.392252 1.824766 -0.588095 0
M  V30 38 H -1.942684 2.953670 0.141184 0
M  V30 39 H -3.816466 4.280187 1.182589 0
M  V30 40 H -0.957443 1.421895 3.986604 0
M  V30 41 H -2.506144 3.656729 5.847870 0
M  V30 42 H -2.340635 1.896125 5.837748 0
M  V30 43 H -4.607659 1.643389 5.780878 0
M  V30 44 H -5.549622 2.482006 3.993479 0
M  V30 45 H -6.004019 3.757428 5.221189 0
M  V30 46 H -5.211585 4.685587 3.130245 0
M  V30 47 H -4.041271 5.112397 4.476796 0
M  V30 48 H 0.161005 -1.326886 -0.676063 0
M  V30 49 H 1.244953 -3.344787 -1.426085 0
M  V30 50 H 5.078750 -5.956598 -1.555322 0
M  V30 END ATOM
M  V30 BEGIN BOND
M  V30 1 1 1 2
M  V30 2 1 2 3
M  V30 3 2 3 4
M  V30 4 1 4 5
M  V30 5 2 5 6
M  V30 6 1 6 7
M  V30 7 2 7 8
M  V30 8 1 8 9
M  V30 9 2 9 10
M  V30 10 1 10 11
M  V30 11 1 11 12
M  V30 12 1 12 13
M  V30 13 2 13 14
M  V30 14 1 13 15
M  V30 15 2 15 16
M  V30 16 1 16 17
M  V30 17 2 17 18
M  V30 18 1 18 19
M  V30 19 2 19 20
M  V30 20 1 19 21
M  V30 21 1 21 22
M  V30 22 1 22 23
M  V30 23 1 23 24
M  V30 24 2 11 25
M  V30 25 1 25 26
M  V30 26 2 26 27
M  V30 27 1 4 28
M  V30 28 2 28 29
M  V30 29 1 29 2
M  V30 30 1 27 5
M  V30 31 1 26 8
M  V30 32 1 20 15
M  V30 33 1 24 18
M  V30 34 1 1 30
M  V30 35 1 1 31
M  V30 36 1 1 32
M  V30 37 1 3 33
M  V30 38 1 6 34
M  V30 39 1 7 35
M  V30 40 1 9 36
M  V30 41 1 12 37
M  V30 42 1 16 38
M  V30 43 1 17 39
M  V30 44 1 20 40
M  V30 45 1 21 41
M  V30 46 1 21 42
M  V30 47 1 22 43
M  V30 48 1 23 44
M  V30 49 1 23 45
M  V30 50 1 24 46
M  V30 51 1 24 47
M  V30 52 1 25 48
M  V30 53 1 27 49
M  V30 54 1 28 50
M  V30 END BOND
M  V30 END CTAB
M  END
>  <Dataset>  (866) 
ChEMBL_Kinases

>  <Ligand_Instance>  (866) 
nan

>  <PDB_ID>  (866) 
nan

>  <Standardized_SMILES>  (866) 
Cn1cc(-c2ccc3cnc(NC(=O)c4ccc5c(c4)CNCC5)cc3c2)cn1

>  <Name>  (866) 
nan

>  <Pocket>  (866) 
nan

>  <ATP_Site>  (866) 
nan

>  <Peripheral>  (866) 
nan

>  <Num_H_Atoms_ProtBoundConf>  (866) 
nan

>  <Num_Resolved_Atoms>  (866) 
nan

>  <Num_Not_Resolved_Atoms>  (866) 
nan

$$$$
CHEMBL4745586
     RDKit          3D

  0  0  0  0  0  0  0  0  0  0999 V3000
M  V30 BEGIN CTAB
M  V30 COUNTS 58 63 0 0 0
M  V30 BEGIN ATOM
M  V30 1 C 4.866988 -3.023207 0.486594 0
M  V30 2 C 5.708571 -3.832854 -0.501480 0
M  V30 3 C 4.834720 -4.337193 -1.635236 0
M  V30 4 C 4.215061 -3.193006 -2.360910 0
M  V30 5 O 4.713622 -2.160289 -1.797391 0
M  V30 6 N 3.294102 -3.021392 -3.423093 0
M  V30 7 C 3.201458 -1.586766 -3.543990 0
M  V30 8 C 4.079197 -1.007865 -4.431364 0
M  V30 9 N 3.991136 0.354933 -4.528255 0
M  V30 10 C 3.066474 1.009262 -3.759605 0
M  V30 11 C 2.195493 0.420353 -2.877711 0
M  V30 12 C 1.278609 1.266957 -2.133534 0
M  V30 13 C 0.377583 0.783295 -1.214223 0
M  V30 14 C -0.436400 1.650814 -0.540440 0
M  V30 15 C -1.392877 1.412633 0.415213 0
M  V30 16 C -1.896008 0.220118 1.067554 0
M  V30 17 N -2.835925 0.253834 2.024947 0
M  V30 18 C -3.126072 -0.952521 2.481109 0
M  V30 19 C -4.029765 -1.333656 3.460146 0
M  V30 20 C -4.864479 -0.404480 4.205002 0
M  V30 21 C -4.276073 0.753825 4.663885 0
M  V30 22 C -4.982074 1.687570 5.387121 0
M  V30 23 C -6.313961 1.460849 5.661119 0
M  V30 24 C -6.871602 0.295623 5.188907 0
M  V30 25 F -8.192961 -0.006281 5.418733 0
M  V30 26 C -6.206027 -0.666996 4.462024 0
M  V30 27 N -4.132715 -2.654556 3.743486 0
M  V30 28 C -3.373063 -3.567788 3.086146 0
M  V30 29 C -2.479292 -3.180898 2.116734 0
M  V30 30 C -2.341284 -1.849774 1.796241 0
M  V30 31 N -1.628879 -1.081134 0.965595 0
M  V30 32 N -1.843946 2.667587 0.700886 0
M  V30 33 N -1.220832 3.577691 -0.012418 0
M  V30 34 C -0.325745 2.997244 -0.808985 0
M  V30 35 C 0.571230 3.504034 -1.728237 0
M  V30 36 N 1.337424 2.597168 -2.350555 0
M  V30 37 C 2.264307 -0.948172 -2.761918 0
M  V30 38 H 5.243314 -1.987193 0.452974 0
M  V30 39 H 5.016093 -3.379104 1.524133 0
M  V30 40 H 3.802287 -3.031762 0.170859 0
M  V30 41 H 6.060017 -4.728202 0.052685 0
M  V30 42 H 6.576887 -3.260716 -0.833959 0
M  V30 43 H 4.059977 -4.971124 -1.205629 0
M  V30 44 H 5.460244 -4.890478 -2.344237 0
M  V30 45 H 3.017285 -4.001980 -3.732288 0
M  V30 46 H 4.780555 -1.602022 -5.003070 0
M  V30 47 H 3.091666 2.094207 -3.924079 0
M  V30 48 H 0.325748 -0.268431 -1.036797 0
M  V30 49 H -3.235253 1.042681 4.511168 0
M  V30 50 H -4.600738 2.629912 5.790070 0
M  V30 51 H -7.006263 2.102605 6.222354 0
M  V30 52 H -6.671636 -1.575910 4.102293 0
M  V30 53 H -3.378107 -4.638673 3.235960 0
M  V30 54 H -1.845717 -3.853544 1.556600 0
M  V30 55 H -0.947157 -1.520189 0.324144 0
M  V30 56 H -1.458757 4.587345 0.095906 0
M  V30 57 H 0.628289 4.567759 -1.912665 0
M  V30 58 H 1.599879 -1.457996 -2.081252 0
M  V30 END ATOM
M  V30 BEGIN BOND
M  V30 1 1 1 2
M  V30 2 1 2 3
M  V30 3 1 3 4
M  V30 4 2 4 5
M  V30 5 1 4 6
M  V30 6 1 6 7
M  V30 7 2 7 8
M  V30 8 1 8 9
M  V30 9 2 9 10
M  V30 10 1 10 11
M  V30 11 1 11 12
M  V30 12 2 12 13
M  V30 13 1 13 14
M  V30 14 1 14 15
M  V30 15 1 15 16
M  V30 16 2 16 17
M  V30 17 1 17 18
M  V30 18 2 18 19
M  V30 19 1 19 20
M  V30 20 2 20 21
M  V30 21 1 21 22
M  V30 22 2 22 23
M  V30 23 1 23 24
M  V30 24 1 24 25
M  V30 25 2 24 26
M  V30 26 1 19 27
M  V30 27 2 27 28
M  V30 28 1 28 29
M  V30 29 2 29 30
M  V30 30 1 30 31
M  V30 31 2 15 32
M  V30 32 1 32 33
M  V30 33 1 33 34
M  V30 34 1 34 35
M  V30 35 2 35 36
M  V30 36 2 11 37
M  V30 37 1 37 7
M  V30 38 1 36 12
M  V30 39 2 34 14
M  V30 40 1 31 16
M  V30 41 1 30 18
M  V30 42 1 26 20
M  V30 43 1 1 38
M  V30 44 1 1 39
M  V30 45 1 1 40
M  V30 46 1 2 41
M  V30 47 1 2 42
M  V30 48 1 3 43
M  V30 49 1 3 44
M  V30 50 1 6 45
M  V30 51 1 8 46
M  V30 52 1 10 47
M  V30 53 1 13 48
M  V30 54 1 21 49
M  V30 55 1 22 50
M  V30 56 1 23 51
M  V30 57 1 26 52
M  V30 58 1 28 53
M  V30 59 1 29 54
M  V30 60 1 31 55
M  V30 61 1 33 56
M  V30 62 1 35 57
M  V30 63 1 37 58
M  V30 END BOND
M  V30 END CTAB
M  END
>  <Dataset>  (867) 
ChEMBL_Kinases

>  <Ligand_Instance>  (867) 
nan

>  <PDB_ID>  (867) 
nan

>  <Standardized_SMILES>  (867) 
CCCC(=O)Nc1cncc(-c2cc3c(-c4nc5c(-c6cccc(F)c6)nccc5[nH]4)n[nH]c3cn2)c1

>  <Name>  (867) 
nan

>  <Pocket>  (867) 
nan

>  <ATP_Site>  (867) 
nan

>  <Peripheral>  (867) 
nan

>  <Num_H_Atoms_ProtBoundConf>  (867) 
nan

>  <Num_Resolved_Atoms>  (867) 
nan

>  <Num_Not_Resolved_Atoms>  (867) 
nan

$$$$
CHEMBL4745584
     RDKit          3D

  0  0  0  0  0  0  0  0  0  0999 V3000
M  V30 BEGIN CTAB
M  V30 COUNTS 59 64 0 0 0
M  V30 BEGIN ATOM
M  V30 1 C 5.726186 -1.398627 5.178475 0
M  V30 2 N 5.010550 -0.609038 4.232735 0
M  V30 3 C 4.925613 -1.115408 2.908932 0
M  V30 4 C 5.833894 -0.453059 1.920632 0
M  V30 5 C 5.858528 1.041536 2.008975 0
M  V30 6 N 4.701316 1.617127 1.351716 0
M  V30 7 C 3.721925 1.050138 0.647303 0
M  V30 8 C 2.838434 2.020228 0.221394 0
M  V30 9 C 1.615308 1.917557 -0.571531 0
M  V30 10 O 0.903111 2.915531 -0.883111 0
M  V30 11 N 1.255463 0.612635 -0.985661 0
M  V30 12 C 0.184971 0.079009 -1.741982 0
M  V30 13 C -0.946469 -0.306240 -1.011976 0
M  V30 14 C -2.010746 -0.834084 -1.750934 0
M  V30 15 C -3.132161 -1.217953 -1.042410 0
M  V30 16 C -4.189772 -1.741441 -1.765197 0
M  V30 17 C -5.409165 -2.169530 -1.086904 0
M  V30 18 C -5.860465 -1.539939 0.071804 0
M  V30 19 N -6.998093 -1.965424 0.675102 0
M  V30 20 C -7.724061 -2.984441 0.199508 0
M  V30 21 C -8.896731 -3.530481 0.698182 0
M  V30 22 C -9.198191 -4.560713 -0.198204 0
M  V30 23 N -8.251973 -4.608163 -1.162411 0
M  V30 24 C -7.331540 -3.651594 -0.945828 0
M  V30 25 C -6.174422 -3.220621 -1.561661 0
M  V30 26 C -4.102617 -1.866697 -3.155779 0
M  V30 27 C -2.940022 -1.457911 -3.797021 0
M  V30 28 C -1.872927 -0.935702 -3.119687 0
M  V30 29 C -0.764048 -0.555544 -3.812963 0
M  V30 30 N 0.251395 -0.048850 -3.081301 0
M  V30 31 C 3.336324 3.211574 0.707148 0
M  V30 32 N 4.470462 2.925312 1.389501 0
M  V30 33 C 5.958043 1.530123 3.423033 0
M  V30 34 C 5.086618 0.801075 4.385671 0
M  V30 35 H 6.821038 -1.469734 5.012163 0
M  V30 36 H 5.239959 -2.400600 5.202385 0
M  V30 37 H 5.567168 -0.954077 6.183583 0
M  V30 38 H 3.879773 -1.082295 2.558882 0
M  V30 39 H 5.229315 -2.189738 2.944951 0
M  V30 40 H 5.472190 -0.724730 0.896845 0
M  V30 41 H 6.848474 -0.903558 1.981665 0
M  V30 42 H 6.758829 1.373818 1.447446 0
M  V30 43 H 3.626181 0.004814 0.437925 0
M  V30 44 H 1.805349 -0.225010 -0.755286 0
M  V30 45 H -0.986290 -0.198244 0.061471 0
M  V30 46 H -3.214839 -1.129532 0.017015 0
M  V30 47 H -5.305337 -0.712424 0.490992 0
M  V30 48 H -9.430025 -3.208960 1.581244 0
M  V30 49 H -10.089905 -5.181955 -0.056391 0
M  V30 50 H -8.237366 -5.285013 -1.955843 0
M  V30 51 H -5.862370 -3.730396 -2.448609 0
M  V30 52 H -4.930177 -2.278623 -3.740722 0
M  V30 53 H -2.905752 -1.568680 -4.872180 0
M  V30 54 H -0.684482 -0.647777 -4.893057 0
M  V30 55 H 2.892162 4.205266 0.564462 0
M  V30 56 H 7.032180 1.492530 3.721169 0
M  V30 57 H 5.663828 2.599562 3.436066 0
M  V30 58 H 5.525045 0.985585 5.410508 0
M  V30 59 H 4.079177 1.264448 4.437313 0
M  V30 END ATOM
M  V30 BEGIN BOND
M  V30 1 1 1 2
M  V30 2 1 2 3
M  V30 3 1 3 4
M  V30 4 1 4 5
M  V30 5 1 5 6
M  V30 6 1 6 7
M  V30 7 2 7 8
M  V30 8 1 8 9
M  V30 9 2 9 10
M  V30 10 1 9 11
M  V30 11 1 11 12
M  V30 12 2 12 13
M  V30 13 1 13 14
M  V30 14 2 14 15
M  V30 15 1 15 16
M  V30 16 1 16 17
M  V30 17 2 17 18
M  V30 18 1 18 19
M  V30 19 2 19 20
M  V30 20 1 20 21
M  V30 21 2 21 22
M  V30 22 1 22 23
M  V30 23 1 23 24
M  V30 24 2 24 25
M  V30 25 2 16 26
M  V30 26 1 26 27
M  V30 27 2 27 28
M  V30 28 1 28 29
M  V30 29 2 29 30
M  V30 30 1 8 31
M  V30 31 2 31 32
M  V30 32 1 5 33
M  V30 33 1 33 34
M  V30 34 1 34 2
M  V30 35 1 32 6
M  V30 36 1 30 12
M  V30 37 1 28 14
M  V30 38 1 25 17
M  V30 39 1 24 20
M  V30 40 1 1 35
M  V30 41 1 1 36
M  V30 42 1 1 37
M  V30 43 1 3 38
M  V30 44 1 3 39
M  V30 45 1 4 40
M  V30 46 1 4 41
M  V30 47 1 5 42
M  V30 48 1 7 43
M  V30 49 1 11 44
M  V30 50 1 13 45
M  V30 51 1 15 46
M  V30 52 1 18 47
M  V30 53 1 21 48
M  V30 54 1 22 49
M  V30 55 1 23 50
M  V30 56 1 25 51
M  V30 57 1 26 52
M  V30 58 1 27 53
M  V30 59 1 29 54
M  V30 60 1 31 55
M  V30 61 1 33 56
M  V30 62 1 33 57
M  V30 63 1 34 58
M  V30 64 1 34 59
M  V30 END BOND
M  V30 END CTAB
M  END
>  <Dataset>  (868) 
ChEMBL_Kinases

>  <Ligand_Instance>  (868) 
nan

>  <PDB_ID>  (868) 
nan

>  <Standardized_SMILES>  (868) 
CN1CCC(n2cc(C(=O)Nc3cc4cc(-c5cnc6cc[nH]c6c5)ccc4cn3)cn2)CC1

>  <Name>  (868) 
nan

>  <Pocket>  (868) 
nan

>  <ATP_Site>  (868) 
nan

>  <Peripheral>  (868) 
nan

>  <Num_H_Atoms_ProtBoundConf>  (868) 
nan

>  <Num_Resolved_Atoms>  (868) 
nan

>  <Num_Not_Resolved_Atoms>  (868) 
nan

$$$$
CHEMBL4747740
     RDKit          3D

  0  0  0  0  0  0  0  0  0  0999 V3000
M  V30 BEGIN CTAB
M  V30 COUNTS 62 67 0 0 0
M  V30 BEGIN ATOM
M  V30 1 C 1.368567 -2.108398 3.561189 0
M  V30 2 C 2.121433 -1.348827 2.499766 0
M  V30 3 C 2.337970 0.023774 2.377949 0
M  V30 4 N 3.078279 0.217608 1.246201 0
M  V30 5 C 3.362148 1.610926 1.023852 0
M  V30 6 C 4.649352 2.046232 1.177488 0
M  V30 7 N 4.929741 3.360230 0.975186 0
M  V30 8 C 3.934609 4.225644 0.624049 0
M  V30 9 C 2.647530 3.793714 0.469824 0
M  V30 10 N 1.467821 4.358167 0.143294 0
M  V30 11 C 0.489550 3.438624 0.140359 0
M  V30 12 C -0.893576 3.791320 -0.176595 0
M  V30 13 N -1.318677 5.026036 -0.483815 0
M  V30 14 N -2.623035 5.008746 -0.718540 0
M  V30 15 C -3.092444 3.756477 -0.571433 0
M  V30 16 C -4.333875 3.165998 -0.690326 0
M  V30 17 C -4.448388 1.799492 -0.459863 0
M  V30 18 C -3.331496 1.038731 -0.115170 0
M  V30 19 C -3.674023 -0.352148 0.073948 0
M  V30 20 C -4.895101 -0.736497 0.554949 0
M  V30 21 N -5.221289 -2.050012 0.725445 0
M  V30 22 C -4.313256 -3.015382 0.411088 0
M  V30 23 C -3.050644 -2.703691 -0.083331 0
M  V30 24 N -2.116309 -3.720682 -0.413095 0
M  V30 25 C -1.110842 -4.395127 0.325495 0
M  V30 26 O -1.131625 -3.927197 1.493218 0
M  V30 27 C -0.461785 -5.362163 -0.582329 0
M  V30 28 C 0.626122 -6.134392 0.161855 0
M  V30 29 C 1.645875 -5.114621 0.663210 0
M  V30 30 C 1.272015 -7.154587 -0.730105 0
M  V30 31 C -2.759975 -1.344435 -0.241590 0
M  V30 32 C -2.091863 1.631766 0.003373 0
M  V30 33 C -2.003801 2.975834 -0.227817 0
M  V30 34 N 0.992405 2.235441 0.465214 0
M  V30 35 C 2.323469 2.448606 0.669866 0
M  V30 36 C 3.310157 -0.985611 0.690723 0
M  V30 37 N 2.730508 -1.925372 1.451691 0
M  V30 38 H 1.046833 -3.068196 3.141164 0
M  V30 39 H 2.002598 -2.250951 4.474486 0
M  V30 40 H 0.448698 -1.521008 3.782793 0
M  V30 41 H 1.901976 0.650453 3.162289 0
M  V30 42 H 5.420934 1.336327 1.457275 0
M  V30 43 H 4.136620 5.289455 0.455431 0
M  V30 44 H 1.439224 5.394117 -0.061900 0
M  V30 45 H -3.229389 5.825483 -0.980826 0
M  V30 46 H -5.149101 3.824267 -0.961068 0
M  V30 47 H -5.466996 1.452607 -0.582532 0
M  V30 48 H -5.661418 -0.010875 0.823154 0
M  V30 49 H -4.538759 -4.082735 0.534527 0
M  V30 50 H -2.439522 -3.798800 -1.417348 0
M  V30 51 H -1.225306 -6.054237 -0.984309 0
M  V30 52 H -0.001137 -4.791613 -1.416833 0
M  V30 53 H 0.187737 -6.650343 1.034679 0
M  V30 54 H 2.327066 -5.619158 1.353544 0
M  V30 55 H 1.167074 -4.211403 1.041569 0
M  V30 56 H 2.291049 -4.797123 -0.206964 0
M  V30 57 H 2.367232 -6.963924 -0.719118 0
M  V30 58 H 0.868925 -7.117276 -1.772196 0
M  V30 59 H 1.052838 -8.160210 -0.339159 0
M  V30 60 H -1.775529 -1.118060 -0.626446 0
M  V30 61 H -1.284092 0.967058 0.274466 0
M  V30 62 H 3.895712 -0.920320 -0.218191 0
M  V30 END ATOM
M  V30 BEGIN BOND
M  V30 1 1 1 2
M  V30 2 2 2 3
M  V30 3 1 3 4
M  V30 4 1 4 5
M  V30 5 2 5 6
M  V30 6 1 6 7
M  V30 7 2 7 8
M  V30 8 1 8 9
M  V30 9 1 9 10
M  V30 10 1 10 11
M  V30 11 1 11 12
M  V30 12 2 12 13
M  V30 13 1 13 14
M  V30 14 1 14 15
M  V30 15 2 15 16
M  V30 16 1 16 17
M  V30 17 2 17 18
M  V30 18 1 18 19
M  V30 19 2 19 20
M  V30 20 1 20 21
M  V30 21 2 21 22
M  V30 22 1 22 23
M  V30 23 1 23 24
M  V30 24 1 24 25
M  V30 25 2 25 26
M  V30 26 1 25 27
M  V30 27 1 27 28
M  V30 28 1 28 29
M  V30 29 1 28 30
M  V30 30 2 23 31
M  V30 31 1 18 32
M  V30 32 2 32 33
M  V30 33 2 11 34
M  V30 34 1 34 35
M  V30 35 1 4 36
M  V30 36 2 36 37
M  V30 37 1 37 2
M  V30 38 1 35 5
M  V30 39 2 35 9
M  V30 40 1 33 12
M  V30 41 1 33 15
M  V30 42 1 31 19
M  V30 43 1 1 38
M  V30 44 1 1 39
M  V30 45 1 1 40
M  V30 46 1 3 41
M  V30 47 1 6 42
M  V30 48 1 8 43
M  V30 49 1 10 44
M  V30 50 1 14 45
M  V30 51 1 16 46
M  V30 52 1 17 47
M  V30 53 1 20 48
M  V30 54 1 22 49
M  V30 55 1 24 50
M  V30 56 1 27 51
M  V30 57 1 27 52
M  V30 58 1 28 53
M  V30 59 1 29 54
M  V30 60 1 29 55
M  V30 61 1 29 56
M  V30 62 1 30 57
M  V30 63 1 30 58
M  V30 64 1 30 59
M  V30 65 1 31 60
M  V30 66 1 32 61
M  V30 67 1 36 62
M  V30 END BOND
M  V30 END CTAB
M  END
>  <Dataset>  (869) 
ChEMBL_Kinases

>  <Ligand_Instance>  (869) 
nan

>  <PDB_ID>  (869) 
nan

>  <Standardized_SMILES>  (869) 
Cc1cn(-c2cncc3[nH]c(-c4n[nH]c5ccc(-c6cncc(NC(=O)CC(C)C)c6)cc45)nc23)cn1

>  <Name>  (869) 
nan

>  <Pocket>  (869) 
nan

>  <ATP_Site>  (869) 
nan

>  <Peripheral>  (869) 
nan

>  <Num_H_Atoms_ProtBoundConf>  (869) 
nan

>  <Num_Resolved_Atoms>  (869) 
nan

>  <Num_Not_Resolved_Atoms>  (869) 
nan

$$$$
CHEMBL4745435
     RDKit          3D

  0  0  0  0  0  0  0  0  0  0999 V3000
M  V30 BEGIN CTAB
M  V30 COUNTS 56 61 0 0 0
M  V30 BEGIN ATOM
M  V30 1 C 4.680420 -1.719225 -1.840099 0
M  V30 2 C 4.814248 -1.217170 -0.423154 0
M  V30 3 C 5.105485 -2.410691 0.462769 0
M  V30 4 N 3.584283 -0.571592 -0.061197 0
M  V30 5 C 3.066726 0.573190 -0.692105 0
M  V30 6 C 3.670360 1.235701 -1.727954 0
M  V30 7 N 3.189418 2.332872 -2.348052 0
M  V30 8 C 1.999975 2.874366 -1.949460 0
M  V30 9 C 1.331381 2.262813 -0.910605 0
M  V30 10 C 0.050048 2.790582 -0.430226 0
M  V30 11 C -0.195782 4.147479 -0.485672 0
M  V30 12 N -1.384187 4.594671 -0.034993 0
M  V30 13 C -2.325640 3.774634 0.460113 0
M  V30 14 N -3.560039 3.930703 0.964898 0
M  V30 15 N -4.053394 2.776742 1.309658 0
M  V30 16 C -3.210418 1.760837 1.071837 0
M  V30 17 C -3.478879 0.369508 1.349713 0
M  V30 18 C -2.830932 -0.826137 1.214448 0
M  V30 19 C -3.566232 -1.889329 1.651218 0
M  V30 20 C -3.290256 -3.238342 1.693833 0
M  V30 21 C -2.029999 -3.788765 1.213542 0
M  V30 22 C -1.445714 -4.700648 2.099657 0
M  V30 23 C -0.242415 -5.327416 1.802890 0
M  V30 24 C 0.387462 -5.043418 0.609586 0
M  V30 25 N -0.196968 -4.153942 -0.238463 0
M  V30 26 C -1.361642 -3.544706 0.044243 0
M  V30 27 C -4.244347 -4.110430 2.204045 0
M  V30 28 C -5.416910 -3.525630 2.634059 0
M  V30 29 N -5.665483 -2.187634 2.580818 0
M  V30 30 C -4.747122 -1.328628 2.087533 0
M  V30 31 N -4.652636 -0.002985 1.892119 0
M  V30 32 C -2.127022 2.408763 0.536548 0
M  V30 33 C -0.913887 1.950133 0.076747 0
M  V30 34 C 1.866893 1.132163 -0.301252 0
M  V30 35 H 4.709502 -2.829890 -1.868795 0
M  V30 36 H 3.741649 -1.323597 -2.275504 0
M  V30 37 H 5.558771 -1.289045 -2.407624 0
M  V30 38 H 5.691348 -0.541799 -0.297492 0
M  V30 39 H 4.915939 -2.194581 1.535133 0
M  V30 40 H 4.518134 -3.258733 0.097408 0
M  V30 41 H 6.178842 -2.648932 0.354729 0
M  V30 42 H 3.038132 -0.990110 0.732246 0
M  V30 43 H 4.616286 0.890740 -2.116270 0
M  V30 44 H 1.615695 3.755089 -2.448489 0
M  V30 45 H 0.545419 4.849705 -0.882197 0
M  V30 46 H -4.073827 4.831761 1.076696 0
M  V30 47 H -1.840945 -0.920594 0.807101 0
M  V30 48 H -1.884338 -4.967362 3.047169 0
M  V30 49 H 0.245416 -6.036889 2.454836 0
M  V30 50 H 1.328015 -5.462380 0.257525 0
M  V30 51 H -1.854998 -2.838160 -0.604146 0
M  V30 52 H -4.112794 -5.184463 2.275789 0
M  V30 53 H -6.229681 -4.118810 3.050961 0
M  V30 54 H -5.490723 0.559537 2.182427 0
M  V30 55 H -0.703802 0.912665 0.109721 0
M  V30 56 H 1.304671 0.671511 0.524579 0
M  V30 END ATOM
M  V30 BEGIN BOND
M  V30 1 1 1 2
M  V30 2 1 2 3
M  V30 3 1 2 4
M  V30 4 1 4 5
M  V30 5 2 5 6
M  V30 6 1 6 7
M  V30 7 2 7 8
M  V30 8 1 8 9
M  V30 9 1 9 10
M  V30 10 2 10 11
M  V30 11 1 11 12
M  V30 12 2 12 13
M  V30 13 1 13 14
M  V30 14 1 14 15
M  V30 15 2 15 16
M  V30 16 1 16 17
M  V30 17 2 17 18
M  V30 18 1 18 19
M  V30 19 2 19 20
M  V30 20 1 20 21
M  V30 21 2 21 22
M  V30 22 1 22 23
M  V30 23 2 23 24
M  V30 24 1 24 25
M  V30 25 2 25 26
M  V30 26 1 20 27
M  V30 27 2 27 28
M  V30 28 1 28 29
M  V30 29 2 29 30
M  V30 30 1 30 31
M  V30 31 1 16 32
M  V30 32 2 32 33
M  V30 33 2 9 34
M  V30 34 1 34 5
M  V30 35 1 33 10
M  V30 36 1 32 13
M  V30 37 1 31 17
M  V30 38 1 30 19
M  V30 39 1 26 21
M  V30 40 1 1 35
M  V30 41 1 1 36
M  V30 42 1 1 37
M  V30 43 1 2 38
M  V30 44 1 3 39
M  V30 45 1 3 40
M  V30 46 1 3 41
M  V30 47 1 4 42
M  V30 48 1 6 43
M  V30 49 1 8 44
M  V30 50 1 11 45
M  V30 51 1 14 46
M  V30 52 1 18 47
M  V30 53 1 22 48
M  V30 54 1 23 49
M  V30 55 1 24 50
M  V30 56 1 26 51
M  V30 57 1 27 52
M  V30 58 1 28 53
M  V30 59 1 31 54
M  V30 60 1 33 55
M  V30 61 1 34 56
M  V30 END BOND
M  V30 END CTAB
M  END
>  <Dataset>  (870) 
ChEMBL_Kinases

>  <Ligand_Instance>  (870) 
nan

>  <PDB_ID>  (870) 
nan

>  <Standardized_SMILES>  (870) 
CC(C)Nc1cncc(-c2cnc3[nH]nc(-c4cc5c(-c6cccnc6)ccnc5[nH]4)c3c2)c1

>  <Name>  (870) 
nan

>  <Pocket>  (870) 
nan

>  <ATP_Site>  (870) 
nan

>  <Peripheral>  (870) 
nan

>  <Num_H_Atoms_ProtBoundConf>  (870) 
nan

>  <Num_Resolved_Atoms>  (870) 
nan

>  <Num_Not_Resolved_Atoms>  (870) 
nan

$$$$
CHEMBL4745415
     RDKit          3D

  0  0  0  0  0  0  0  0  0  0999 V3000
M  V30 BEGIN CTAB
M  V30 COUNTS 49 53 0 0 0
M  V30 BEGIN ATOM
M  V30 1 C 5.054410 3.733068 2.599541 0
M  V30 2 C 5.626833 2.349136 2.895998 0
M  V30 3 C 5.542197 2.156192 4.392851 0
M  V30 4 C 4.809933 1.395574 2.145294 0
M  V30 5 O 4.068648 2.311849 1.663224 0
M  V30 6 N 4.755035 0.010607 1.947197 0
M  V30 7 C 3.682547 -0.313075 1.065371 0
M  V30 8 C 3.891029 -0.367705 -0.297099 0
M  V30 9 N 2.819378 -0.681072 -1.047727 0
M  V30 10 C 1.602063 -0.932267 -0.533206 0
M  V30 11 C 1.343738 -0.890568 0.815825 0
M  V30 12 C 0.052439 -1.150768 1.442703 0
M  V30 13 C -1.074171 -1.472132 0.757310 0
M  V30 14 C -2.282533 -1.716788 1.328218 0
M  V30 15 C -3.500064 -2.045890 0.824831 0
M  V30 16 C -3.965643 -2.260583 -0.528460 0
M  V30 17 C -3.416183 -2.225486 -1.782828 0
M  V30 18 C -4.321996 -2.516691 -2.763728 0
M  V30 19 C -4.240004 -2.602168 -4.136301 0
M  V30 20 N -5.308223 -2.913340 -4.871946 0
M  V30 21 C -6.484333 -3.147200 -4.260962 0
M  V30 22 C -6.597010 -3.068716 -2.884112 0
M  V30 23 C -5.507973 -2.748874 -2.100059 0
M  V30 24 N -5.250525 -2.587704 -0.796874 0
M  V30 25 N -4.290218 -2.151680 1.905647 0
M  V30 26 N -3.612852 -1.905430 3.010344 0
M  V30 27 C -2.333641 -1.622148 2.723210 0
M  V30 28 C -1.203095 -1.299114 3.418150 0
M  V30 29 N -0.046293 -1.070150 2.802989 0
M  V30 30 C 2.431248 -0.571652 1.589441 0
M  V30 31 H 5.073830 3.950299 1.506365 0
M  V30 32 H 5.609272 4.519162 3.154538 0
M  V30 33 H 3.985880 3.810490 2.912446 0
M  V30 34 H 6.694128 2.388484 2.600011 0
M  V30 35 H 6.408730 2.568933 4.923528 0
M  V30 36 H 5.412549 1.061116 4.636390 0
M  V30 37 H 4.635106 2.664604 4.788065 0
M  V30 38 H 5.532326 -0.397046 2.514524 0
M  V30 39 H 4.869631 -0.165423 -0.706208 0
M  V30 40 H 0.789638 -1.177340 -1.200278 0
M  V30 41 H -0.983893 -1.530912 -0.291493 0
M  V30 42 H -2.403309 -2.000364 -1.999040 0
M  V30 43 H -3.272844 -2.407369 -4.606195 0
M  V30 44 H -7.328319 -3.396716 -4.890049 0
M  V30 45 H -7.532297 -3.253568 -2.383607 0
M  V30 46 H -6.066165 -2.732434 -0.145214 0
M  V30 47 H -4.029981 -1.932327 3.958892 0
M  V30 48 H -1.348686 -1.253149 4.471968 0
M  V30 49 H 2.302559 -0.519115 2.676116 0
M  V30 END ATOM
M  V30 BEGIN BOND
M  V30 1 1 1 2
M  V30 2 1 2 3
M  V30 3 1 2 4
M  V30 4 2 4 5
M  V30 5 1 4 6
M  V30 6 1 6 7
M  V30 7 2 7 8
M  V30 8 1 8 9
M  V30 9 2 9 10
M  V30 10 1 10 11
M  V30 11 1 11 12
M  V30 12 2 12 13
M  V30 13 1 13 14
M  V30 14 1 14 15
M  V30 15 1 15 16
M  V30 16 2 16 17
M  V30 17 1 17 18
M  V30 18 2 18 19
M  V30 19 1 19 20
M  V30 20 2 20 21
M  V30 21 1 21 22
M  V30 22 2 22 23
M  V30 23 1 23 24
M  V30 24 2 15 25
M  V30 25 1 25 26
M  V30 26 1 26 27
M  V30 27 1 27 28
M  V30 28 2 28 29
M  V30 29 2 11 30
M  V30 30 1 30 7
M  V30 31 1 29 12
M  V30 32 2 27 14
M  V30 33 1 24 16
M  V30 34 1 23 18
M  V30 35 1 1 31
M  V30 36 1 1 32
M  V30 37 1 1 33
M  V30 38 1 2 34
M  V30 39 1 3 35
M  V30 40 1 3 36
M  V30 41 1 3 37
M  V30 42 1 6 38
M  V30 43 1 8 39
M  V30 44 1 10 40
M  V30 45 1 13 41
M  V30 46 1 17 42
M  V30 47 1 19 43
M  V30 48 1 21 44
M  V30 49 1 22 45
M  V30 50 1 24 46
M  V30 51 1 26 47
M  V30 52 1 28 48
M  V30 53 1 30 49
M  V30 END BOND
M  V30 END CTAB
M  END
>  <Dataset>  (871) 
ChEMBL_Kinases

>  <Ligand_Instance>  (871) 
nan

>  <PDB_ID>  (871) 
nan

>  <Standardized_SMILES>  (871) 
CC(C)C(=O)Nc1cncc(-c2cc3c(-c4cc5cnccc5[nH]4)n[nH]c3cn2)c1

>  <Name>  (871) 
nan

>  <Pocket>  (871) 
nan

>  <ATP_Site>  (871) 
nan

>  <Peripheral>  (871) 
nan

>  <Num_H_Atoms_ProtBoundConf>  (871) 
nan

>  <Num_Resolved_Atoms>  (871) 
nan

>  <Num_Not_Resolved_Atoms>  (871) 
nan

$$$$
CHEMBL4745311
     RDKit          3D

  0  0  0  0  0  0  0  0  0  0999 V3000
M  V30 BEGIN CTAB
M  V30 COUNTS 68 73 0 0 0
M  V30 BEGIN ATOM
M  V30 1 C 4.598732 -4.059013 3.554616 0
M  V30 2 N 5.986694 -4.033825 3.980607 0
M  V30 3 C 6.867413 -4.587430 2.970294 0
M  V30 4 C 7.015946 -3.651107 1.791221 0
M  V30 5 N 6.423594 -2.347266 2.142308 0
M  V30 6 C 5.450055 -1.616439 1.376524 0
M  V30 7 C 4.880795 -0.421140 1.775816 0
M  V30 8 C 3.952856 0.163796 0.936119 0
M  V30 9 C 3.579447 -0.412546 -0.289689 0
M  V30 10 N 2.615072 0.403703 -0.915176 0
M  V30 11 C 2.622564 1.483280 -1.815947 0
M  V30 12 O 3.823269 1.740890 -2.082963 0
M  V30 13 C 1.536206 2.228332 -2.384139 0
M  V30 14 N 1.890870 3.390725 -3.004734 0
M  V30 15 N 0.811088 3.970350 -3.490641 0
M  V30 16 C -0.307815 3.268385 -3.244303 0
M  V30 17 C -1.661932 3.347079 -3.493812 0
M  V30 18 C -2.539309 2.357439 -3.063140 0
M  V30 19 C -1.987944 1.285009 -2.369542 0
M  V30 20 C -2.890165 0.228252 -1.929062 0
M  V30 21 C -2.372499 -1.045508 -1.864795 0
M  V30 22 N -3.080167 -2.149343 -1.483764 0
M  V30 23 C -4.396289 -1.980976 -1.141476 0
M  V30 24 C -4.918948 -0.701716 -1.205240 0
M  V30 25 N -6.287849 -0.661509 -0.835029 0
M  V30 26 C -6.707235 -0.495394 0.497165 0
M  V30 27 O -5.668213 -0.395978 1.232955 0
M  V30 28 C -8.064238 -0.439391 1.017213 0
M  V30 29 C -9.268607 -0.496695 0.359645 0
M  V30 30 F -9.179576 -0.611035 -0.971741 0
M  V30 31 C -10.492667 -0.444110 0.972191 0
M  V30 32 C -10.569231 -0.324488 2.351355 0
M  V30 33 C -9.372247 -0.265060 3.030233 0
M  V30 34 C -8.147076 -0.318648 2.410530 0
M  V30 35 F -7.018835 -0.252890 3.192999 0
M  V30 36 C -4.210391 0.413870 -1.588034 0
M  V30 37 C -0.630549 1.177452 -2.101408 0
M  V30 38 C 0.174242 2.182972 -2.551407 0
M  V30 39 C 4.187923 -1.605229 -0.625934 0
M  V30 40 N 5.090062 -2.163779 0.202363 0
M  V30 41 C 6.980011 -1.935941 3.381009 0
M  V30 42 C 6.383107 -2.765965 4.494544 0
M  V30 43 H 4.076713 -3.116004 3.795801 0
M  V30 44 H 4.081738 -4.860740 4.133709 0
M  V30 45 H 4.570591 -4.253522 2.464957 0
M  V30 46 H 6.378030 -5.512322 2.591998 0
M  V30 47 H 7.842606 -4.852223 3.376418 0
M  V30 48 H 8.095806 -3.469018 1.633040 0
M  V30 49 H 6.599076 -4.049098 0.864255 0
M  V30 50 H 5.200485 -0.031400 2.711030 0
M  V30 51 H 3.577782 1.104990 1.368752 0
M  V30 52 H 1.705929 0.055958 -0.555489 0
M  V30 53 H 0.797056 4.884486 -4.018365 0
M  V30 54 H -2.004196 4.207013 -4.033334 0
M  V30 55 H -3.600565 2.418018 -3.258509 0
M  V30 56 H -1.348499 -1.308424 -2.111096 0
M  V30 57 H -4.939198 -2.864103 -0.843390 0
M  V30 58 H -7.030980 -0.758307 -1.574743 0
M  V30 59 H -11.378394 -0.497855 0.362766 0
M  V30 60 H -11.523902 -0.282439 2.854112 0
M  V30 61 H -9.395613 -0.172117 4.112918 0
M  V30 62 H -4.651559 1.395761 -1.625309 0
M  V30 63 H -0.273160 0.325965 -1.569554 0
M  V30 64 H 3.824086 -1.947104 -1.581409 0
M  V30 65 H 8.103938 -2.010146 3.368947 0
M  V30 66 H 6.777138 -0.883968 3.656600 0
M  V30 67 H 7.125026 -2.925744 5.311172 0
M  V30 68 H 5.474679 -2.237636 4.881763 0
M  V30 END ATOM
M  V30 BEGIN BOND
M  V30 1 1 1 2
M  V30 2 1 2 3
M  V30 3 1 3 4
M  V30 4 1 4 5
M  V30 5 1 5 6
M  V30 6 2 6 7
M  V30 7 1 7 8
M  V30 8 2 8 9
M  V30 9 1 9 10
M  V30 10 1 10 11
M  V30 11 2 11 12
M  V30 12 1 11 13
M  V30 13 2 13 14
M  V30 14 1 14 15
M  V30 15 1 15 16
M  V30 16 2 16 17
M  V30 17 1 17 18
M  V30 18 2 18 19
M  V30 19 1 19 20
M  V30 20 2 20 21
M  V30 21 1 21 22
M  V30 22 2 22 23
M  V30 23 1 23 24
M  V30 24 1 24 25
M  V30 25 1 25 26
M  V30 26 2 26 27
M  V30 27 1 26 28
M  V30 28 2 28 29
M  V30 29 1 29 30
M  V30 30 1 29 31
M  V30 31 2 31 32
M  V30 32 1 32 33
M  V30 33 2 33 34
M  V30 34 1 34 35
M  V30 35 2 24 36
M  V30 36 1 19 37
M  V30 37 2 37 38
M  V30 38 1 9 39
M  V30 39 2 39 40
M  V30 40 1 5 41
M  V30 41 1 41 42
M  V30 42 1 42 2
M  V30 43 1 40 6
M  V30 44 1 38 13
M  V30 45 1 38 16
M  V30 46 1 36 20
M  V30 47 1 34 28
M  V30 48 1 1 43
M  V30 49 1 1 44
M  V30 50 1 1 45
M  V30 51 1 3 46
M  V30 52 1 3 47
M  V30 53 1 4 48
M  V30 54 1 4 49
M  V30 55 1 7 50
M  V30 56 1 8 51
M  V30 57 1 10 52
M  V30 58 1 15 53
M  V30 59 1 17 54
M  V30 60 1 18 55
M  V30 61 1 21 56
M  V30 62 1 23 57
M  V30 63 1 25 58
M  V30 64 1 31 59
M  V30 65 1 32 60
M  V30 66 1 33 61
M  V30 67 1 36 62
M  V30 68 1 37 63
M  V30 69 1 39 64
M  V30 70 1 41 65
M  V30 71 1 41 66
M  V30 72 1 42 67
M  V30 73 1 42 68
M  V30 END BOND
M  V30 END CTAB
M  END
>  <Dataset>  (872) 
ChEMBL_Kinases

>  <Ligand_Instance>  (872) 
nan

>  <PDB_ID>  (872) 
nan

>  <Standardized_SMILES>  (872) 
CN1CCN(c2ccc(NC(=O)c3n[nH]c4ccc(-c5cncc(NC(=O)c6c(F)cccc6F)c5)cc34)cn2)CC1

>  <Name>  (872) 
nan

>  <Pocket>  (872) 
nan

>  <ATP_Site>  (872) 
nan

>  <Peripheral>  (872) 
nan

>  <Num_H_Atoms_ProtBoundConf>  (872) 
nan

>  <Num_Resolved_Atoms>  (872) 
nan

>  <Num_Not_Resolved_Atoms>  (872) 
nan

$$$$
CHEMBL4745260
     RDKit          3D

  0  0  0  0  0  0  0  0  0  0999 V3000
M  V30 BEGIN CTAB
M  V30 COUNTS 44 49 0 0 0
M  V30 BEGIN ATOM
M  V30 1 C -4.087282 2.384337 1.284204 0
M  V30 2 C -4.447461 1.063508 1.302318 0
M  V30 3 N -3.563684 0.171631 0.803137 0
M  V30 4 C -2.363591 0.584777 0.304068 0
M  V30 5 C -1.967004 1.906360 0.269587 0
M  V30 6 C -0.679150 2.278846 -0.273052 0
M  V30 7 C -0.386458 3.468735 -0.915372 0
M  V30 8 N 0.845312 3.728930 -1.388067 0
M  V30 9 C 1.888258 2.881266 -1.286663 0
M  V30 10 N 3.183726 2.869297 -1.648640 0
M  V30 11 N 3.724650 1.714985 -1.259756 0
M  V30 12 C 2.786547 0.972450 -0.644745 0
M  V30 13 C 2.975716 -0.356696 -0.072638 0
M  V30 14 N 2.049781 -1.104952 0.539139 0
M  V30 15 C 2.544134 -2.284322 0.953804 0
M  V30 16 C 2.003687 -3.371758 1.616670 0
M  V30 17 C 0.589838 -3.254215 1.958685 0
M  V30 18 C -0.347529 -4.253058 1.772045 0
M  V30 19 C -1.680973 -4.051438 2.129699 0
M  V30 20 C -2.035487 -2.830047 2.673309 0
M  V30 21 N -1.118276 -1.886560 2.843004 0
M  V30 22 C 0.181010 -2.054699 2.505394 0
M  V30 23 C 2.854145 -4.436310 1.877595 0
M  V30 24 N 4.137900 -4.378189 1.489187 0
M  V30 25 C 4.667405 -3.323380 0.844578 0
M  V30 26 C 3.860440 -2.236206 0.560849 0
M  V30 27 N 4.125916 -1.060353 -0.065978 0
M  V30 28 C 1.597854 1.679871 -0.639780 0
M  V30 29 C 0.349924 1.345280 -0.127437 0
M  V30 30 C -2.868615 2.819082 0.779033 0
M  V30 31 H -4.807867 3.087065 1.688369 0
M  V30 32 H -5.384557 0.687561 1.686139 0
M  V30 33 H -1.746042 -0.220921 -0.064842 0
M  V30 34 H -1.219307 4.128764 -0.988665 0
M  V30 35 H 3.543455 3.710621 -2.146529 0
M  V30 36 H 0.050545 -5.158710 1.340442 0
M  V30 37 H -2.333050 -4.886390 1.945920 0
M  V30 38 H -3.081941 -2.735937 2.929712 0
M  V30 39 H 0.850979 -1.217134 2.686320 0
M  V30 40 H 2.386813 -5.261433 2.396868 0
M  V30 41 H 5.714910 -3.340268 0.557464 0
M  V30 42 H 5.036830 -0.739246 -0.473040 0
M  V30 43 H 0.171129 0.415963 0.360280 0
M  V30 44 H -2.604747 3.872075 0.774974 0
M  V30 END ATOM
M  V30 BEGIN BOND
M  V30 1 2 1 2
M  V30 2 1 2 3
M  V30 3 2 3 4
M  V30 4 1 4 5
M  V30 5 1 5 6
M  V30 6 2 6 7
M  V30 7 1 7 8
M  V30 8 2 8 9
M  V30 9 1 9 10
M  V30 10 1 10 11
M  V30 11 2 11 12
M  V30 12 1 12 13
M  V30 13 2 13 14
M  V30 14 1 14 15
M  V30 15 2 15 16
M  V30 16 1 16 17
M  V30 17 2 17 18
M  V30 18 1 18 19
M  V30 19 2 19 20
M  V30 20 1 20 21
M  V30 21 2 21 22
M  V30 22 1 16 23
M  V30 23 2 23 24
M  V30 24 1 24 25
M  V30 25 2 25 26
M  V30 26 1 26 27
M  V30 27 1 12 28
M  V30 28 2 28 29
M  V30 29 2 5 30
M  V30 30 1 30 1
M  V30 31 1 29 6
M  V30 32 1 28 9
M  V30 33 1 27 13
M  V30 34 1 26 15
M  V30 35 1 22 17
M  V30 36 1 1 31
M  V30 37 1 2 32
M  V30 38 1 4 33
M  V30 39 1 7 34
M  V30 40 1 10 35
M  V30 41 1 18 36
M  V30 42 1 19 37
M  V30 43 1 20 38
M  V30 44 1 22 39
M  V30 45 1 23 40
M  V30 46 1 25 41
M  V30 47 1 27 42
M  V30 48 1 29 43
M  V30 49 1 30 44
M  V30 END BOND
M  V30 END CTAB
M  END
>  <Dataset>  (873) 
ChEMBL_Kinases

>  <Ligand_Instance>  (873) 
nan

>  <PDB_ID>  (873) 
nan

>  <Standardized_SMILES>  (873) 
c1cncc(-c2cnc3[nH]nc(-c4nc5c(-c6cccnc6)cncc5[nH]4)c3c2)c1

>  <Name>  (873) 
nan

>  <Pocket>  (873) 
nan

>  <ATP_Site>  (873) 
nan

>  <Peripheral>  (873) 
nan

>  <Num_H_Atoms_ProtBoundConf>  (873) 
nan

>  <Num_Resolved_Atoms>  (873) 
nan

>  <Num_Not_Resolved_Atoms>  (873) 
nan

$$$$
CHEMBL4745228
     RDKit          3D

  0  0  0  0  0  0  0  0  0  0999 V3000
M  V30 BEGIN CTAB
M  V30 COUNTS 57 63 0 0 0
M  V30 BEGIN ATOM
M  V30 1 O 4.520740 -2.957758 -0.320980 0
M  V30 2 C 4.551014 -3.538642 0.810929 0
M  V30 3 N 4.936462 -2.733682 1.914799 0
M  V30 4 C 5.187110 -1.424606 1.356535 0
M  V30 5 C 6.406686 -0.989596 0.880214 0
M  V30 6 N 6.439088 0.266965 0.396494 0
M  V30 7 C 5.356251 1.066218 0.370813 0
M  V30 8 C 4.134766 0.662682 0.835699 0
M  V30 9 C 2.961582 1.530143 0.806950 0
M  V30 10 C 3.255658 2.874002 0.959078 0
M  V30 11 N 2.226305 3.767770 0.945785 0
M  V30 12 C 0.961606 3.340745 0.787852 0
M  V30 13 N -0.235670 3.944143 0.731960 0
M  V30 14 N -1.199203 3.067628 0.560472 0
M  V30 15 C -0.725569 1.817073 0.488657 0
M  V30 16 C -1.504521 0.605162 0.304890 0
M  V30 17 C -2.874337 0.583379 0.178259 0
M  V30 18 C -3.355344 -0.684838 0.017326 0
M  V30 19 C -4.637122 -1.122170 -0.139889 0
M  V30 20 C -5.848868 -0.367390 -0.181463 0
M  V30 21 C -6.182592 0.938759 -0.090533 0
M  V30 22 C -7.406619 1.537408 -0.148481 0
M  V30 23 C -8.495001 0.722602 -0.325943 0
M  V30 24 C -8.275544 -0.620171 -0.430974 0
M  V30 25 C -7.004231 -1.139754 -0.361209 0
M  V30 26 F -7.012599 -2.502956 -0.489430 0
M  V30 27 N -4.709324 -2.453337 -0.269708 0
M  V30 28 C -3.689098 -3.305810 -0.255672 0
M  V30 29 C -2.413617 -2.840147 -0.096340 0
M  V30 30 C -2.243521 -1.484409 0.044548 0
M  V30 31 N -1.180487 -0.690068 0.214661 0
M  V30 32 C 0.618844 2.016336 0.632836 0
M  V30 33 C 1.657117 1.117189 0.646639 0
M  V30 34 C 4.057968 -0.621065 1.341088 0
M  V30 35 C 4.170686 -4.997053 0.798339 0
M  V30 36 C 3.031880 -5.317416 -0.174329 0
M  V30 37 C 4.420145 -5.743411 -0.458017 0
M  V30 38 H 4.943488 -3.268083 2.826632 0
M  V30 39 H 7.224529 -1.682706 0.933175 0
M  V30 40 H 5.465022 2.074448 -0.037782 0
M  V30 41 H 4.248439 3.270599 1.088653 0
M  V30 42 H -0.433700 4.978361 0.809727 0
M  V30 43 H -3.424562 1.489632 0.211955 0
M  V30 44 H -5.374625 1.607204 0.047366 0
M  V30 45 H -7.523636 2.604701 -0.059943 0
M  V30 46 H -9.485884 1.144663 -0.378859 0
M  V30 47 H -9.144356 -1.219808 -0.567864 0
M  V30 48 H -3.927473 -4.351640 -0.374227 0
M  V30 49 H -1.565406 -3.505890 -0.080553 0
M  V30 50 H -0.243559 -1.120969 0.259833 0
M  V30 51 H 1.569719 0.070984 0.541780 0
M  V30 52 H 3.079716 -0.937859 1.710763 0
M  V30 53 H 4.199178 -5.485469 1.780873 0
M  V30 54 H 2.644577 -4.490168 -0.806532 0
M  V30 55 H 2.258725 -6.002784 0.174998 0
M  V30 56 H 4.664841 -6.813909 -0.434318 0
M  V30 57 H 4.986344 -5.198981 -1.236442 0
M  V30 END ATOM
M  V30 BEGIN BOND
M  V30 1 2 1 2
M  V30 2 1 2 3
M  V30 3 1 3 4
M  V30 4 2 4 5
M  V30 5 1 5 6
M  V30 6 2 6 7
M  V30 7 1 7 8
M  V30 8 1 8 9
M  V30 9 2 9 10
M  V30 10 1 10 11
M  V30 11 2 11 12
M  V30 12 1 12 13
M  V30 13 1 13 14
M  V30 14 2 14 15
M  V30 15 1 15 16
M  V30 16 2 16 17
M  V30 17 1 17 18
M  V30 18 2 18 19
M  V30 19 1 19 20
M  V30 20 2 20 21
M  V30 21 1 21 22
M  V30 22 2 22 23
M  V30 23 1 23 24
M  V30 24 2 24 25
M  V30 25 1 25 26
M  V30 26 1 19 27
M  V30 27 2 27 28
M  V30 28 1 28 29
M  V30 29 2 29 30
M  V30 30 1 30 31
M  V30 31 1 15 32
M  V30 32 2 32 33
M  V30 33 2 8 34
M  V30 34 1 2 35
M  V30 35 1 35 36
M  V30 36 1 36 37
M  V30 37 1 34 4
M  V30 38 1 37 35
M  V30 39 1 33 9
M  V30 40 1 32 12
M  V30 41 1 31 16
M  V30 42 1 30 18
M  V30 43 1 25 20
M  V30 44 1 3 38
M  V30 45 1 5 39
M  V30 46 1 7 40
M  V30 47 1 10 41
M  V30 48 1 13 42
M  V30 49 1 17 43
M  V30 50 1 21 44
M  V30 51 1 22 45
M  V30 52 1 23 46
M  V30 53 1 24 47
M  V30 54 1 28 48
M  V30 55 1 29 49
M  V30 56 1 31 50
M  V30 57 1 33 51
M  V30 58 1 34 52
M  V30 59 1 35 53
M  V30 60 1 36 54
M  V30 61 1 36 55
M  V30 62 1 37 56
M  V30 63 1 37 57
M  V30 END BOND
M  V30 END CTAB
M  END
>  <Dataset>  (874) 
ChEMBL_Kinases

>  <Ligand_Instance>  (874) 
nan

>  <PDB_ID>  (874) 
nan

>  <Standardized_SMILES>  (874) 
O=C(Nc1cncc(-c2cnc3[nH]nc(-c4cc5c(-c6ccccc6F)nccc5[nH]4)c3c2)c1)C1CC1

>  <Name>  (874) 
nan

>  <Pocket>  (874) 
nan

>  <ATP_Site>  (874) 
nan

>  <Peripheral>  (874) 
nan

>  <Num_H_Atoms_ProtBoundConf>  (874) 
nan

>  <Num_Resolved_Atoms>  (874) 
nan

>  <Num_Not_Resolved_Atoms>  (874) 
nan

$$$$
CHEMBL4745159
     RDKit          3D

  0  0  0  0  0  0  0  0  0  0999 V3000
M  V30 BEGIN CTAB
M  V30 COUNTS 71 77 0 0 0
M  V30 BEGIN ATOM
M  V30 1 C 2.538145 -1.980964 2.562401 0
M  V30 2 S 3.874833 -1.073306 1.877262 0
M  V30 3 O 4.777770 -2.047744 1.136881 0
M  V30 4 O 4.713860 -0.413293 2.930494 0
M  V30 5 N 3.354142 0.067846 0.662346 0
M  V30 6 C 2.746416 -0.697245 -0.388769 0
M  V30 7 C 2.247532 0.052583 -1.543298 0
M  V30 8 C 3.289378 0.230848 -2.459289 0
M  V30 9 C 3.045736 0.852352 -3.671041 0
M  V30 10 F 4.006707 1.059753 -4.604971 0
M  V30 11 C 1.714921 1.251559 -3.852183 0
M  V30 12 C 0.637913 1.087674 -2.950046 0
M  V30 13 C -0.577477 1.576037 -3.572886 0
M  V30 14 C -0.562425 2.712315 -4.378542 0
M  V30 15 N -1.630444 3.070455 -5.080677 0
M  V30 16 C -2.769247 2.366608 -5.054356 0
M  V30 17 C -2.753970 1.252440 -4.247459 0
M  V30 18 N -3.740625 0.378502 -4.044164 0
M  V30 19 C -3.534747 -0.644870 -3.219340 0
M  V30 20 C -4.101903 -1.930463 -2.881799 0
M  V30 21 N -5.094791 -2.628421 -3.439170 0
M  V30 22 N -5.437770 -3.702219 -2.778766 0
M  V30 23 C -4.653338 -3.767637 -1.696329 0
M  V30 24 C -4.724612 -4.690713 -0.697876 0
M  V30 25 N -3.894088 -4.501094 0.371726 0
M  V30 26 C -3.043081 -3.431136 0.420389 0
M  V30 27 C -2.293874 -3.293812 1.665134 0
M  V30 28 C -2.435206 -4.256772 2.630994 0
M  V30 29 N -1.871971 -4.048185 3.860687 0
M  V30 30 C -1.195047 -2.912162 4.105367 0
M  V30 31 C -1.010980 -1.901987 3.193105 0
M  V30 32 N -0.396606 -0.654733 3.468189 0
M  V30 33 C 0.081679 -0.132850 4.665487 0
M  V30 34 O -0.002340 -0.845588 5.706147 0
M  V30 35 C 0.695360 1.194794 4.903966 0
M  V30 36 C 1.899628 1.566052 4.112790 0
M  V30 37 C 2.670262 1.815351 5.382333 0
M  V30 38 C 1.546397 1.247494 6.178728 0
M  V30 39 C -1.577868 -2.122527 1.955710 0
M  V30 40 C -3.035952 -2.559485 -0.638507 0
M  V30 41 C -3.832036 -2.672130 -1.758026 0
M  V30 42 C -2.200765 -0.359757 -2.852956 0
M  V30 43 C -1.703837 0.773406 -3.460678 0
M  V30 44 C 0.984917 0.469668 -1.789877 0
M  V30 45 H 1.615965 -1.891509 1.984772 0
M  V30 46 H 2.780258 -3.070570 2.619405 0
M  V30 47 H 2.323976 -1.644529 3.618890 0
M  V30 48 H 4.223788 0.484590 0.261596 0
M  V30 49 H 3.412429 -1.561869 -0.701465 0
M  V30 50 H 1.877692 -1.237893 0.093287 0
M  V30 51 H 4.332103 -0.075823 -2.332617 0
M  V30 52 H 1.598380 1.734476 -4.831095 0
M  V30 53 H 0.350205 3.292166 -4.411557 0
M  V30 54 H -3.638272 2.644532 -5.620128 0
M  V30 55 H -4.715056 0.406029 -4.483985 0
M  V30 56 H -6.210445 -4.336028 -3.126842 0
M  V30 57 H -5.394414 -5.538602 -0.724776 0
M  V30 58 H -2.972040 -5.187652 2.483342 0
M  V30 59 H -0.795075 -2.856041 5.099298 0
M  V30 60 H -0.253340 0.019605 2.685943 0
M  V30 61 H -0.047974 2.034390 4.948065 0
M  V30 62 H 2.299255 0.746310 3.516010 0
M  V30 63 H 1.815883 2.530972 3.538787 0
M  V30 64 H 3.621447 1.230025 5.460144 0
M  V30 65 H 2.810376 2.890967 5.642595 0
M  V30 66 H 1.785067 0.189413 6.481260 0
M  V30 67 H 1.112230 1.854495 6.971036 0
M  V30 68 H -1.446579 -1.352559 1.217206 0
M  V30 69 H -2.363653 -1.756622 -0.519222 0
M  V30 70 H -1.427607 -0.789193 -2.240458 0
M  V30 71 H 0.192076 0.354846 -1.089022 0
M  V30 END ATOM
M  V30 BEGIN BOND
M  V30 1 1 1 2
M  V30 2 2 2 3
M  V30 3 2 2 4
M  V30 4 1 2 5
M  V30 5 1 5 6
M  V30 6 1 6 7
M  V30 7 2 7 8
M  V30 8 1 8 9
M  V30 9 1 9 10
M  V30 10 2 9 11
M  V30 11 1 11 12
M  V30 12 1 12 13
M  V30 13 2 13 14
M  V30 14 1 14 15
M  V30 15 2 15 16
M  V30 16 1 16 17
M  V30 17 1 17 18
M  V30 18 1 18 19
M  V30 19 1 19 20
M  V30 20 2 20 21
M  V30 21 1 21 22
M  V30 22 1 22 23
M  V30 23 2 23 24
M  V30 24 1 24 25
M  V30 25 2 25 26
M  V30 26 1 26 27
M  V30 27 2 27 28
M  V30 28 1 28 29
M  V30 29 2 29 30
M  V30 30 1 30 31
M  V30 31 1 31 32
M  V30 32 1 32 33
M  V30 33 2 33 34
M  V30 34 1 33 35
M  V30 35 1 35 36
M  V30 36 1 36 37
M  V30 37 1 37 38
M  V30 38 2 31 39
M  V30 39 1 26 40
M  V30 40 2 40 41
M  V30 41 2 19 42
M  V30 42 1 42 43
M  V30 43 2 12 44
M  V30 44 1 44 7
M  V30 45 1 43 13
M  V30 46 2 43 17
M  V30 47 1 41 20
M  V30 48 1 41 23
M  V30 49 1 39 27
M  V30 50 1 38 35
M  V30 51 1 1 45
M  V30 52 1 1 46
M  V30 53 1 1 47
M  V30 54 1 5 48
M  V30 55 1 6 49
M  V30 56 1 6 50
M  V30 57 1 8 51
M  V30 58 1 11 52
M  V30 59 1 14 53
M  V30 60 1 16 54
M  V30 61 1 18 55
M  V30 62 1 22 56
M  V30 63 1 24 57
M  V30 64 1 28 58
M  V30 65 1 30 59
M  V30 66 1 32 60
M  V30 67 1 35 61
M  V30 68 1 36 62
M  V30 69 1 36 63
M  V30 70 1 37 64
M  V30 71 1 37 65
M  V30 72 1 38 66
M  V30 73 1 38 67
M  V30 74 1 39 68
M  V30 75 1 40 69
M  V30 76 1 42 70
M  V30 77 1 44 71
M  V30 END BOND
M  V30 END CTAB
M  END
>  <Dataset>  (875) 
ChEMBL_Kinases

>  <Ligand_Instance>  (875) 
nan

>  <PDB_ID>  (875) 
nan

>  <Standardized_SMILES>  (875) 
CS(=O)(=O)NCc1cc(F)cc(-c2cncc3[nH]c(-c4n[nH]c5cnc(-c6cncc(NC(=O)C7CCC7)c6)cc45)cc23)c1

>  <Name>  (875) 
nan

>  <Pocket>  (875) 
nan

>  <ATP_Site>  (875) 
nan

>  <Peripheral>  (875) 
nan

>  <Num_H_Atoms_ProtBoundConf>  (875) 
nan

>  <Num_Resolved_Atoms>  (875) 
nan

>  <Num_Not_Resolved_Atoms>  (875) 
nan

$$$$
CHEMBL4744992
     RDKit          3D

  0  0  0  0  0  0  0  0  0  0999 V3000
M  V30 BEGIN CTAB
M  V30 COUNTS 53 56 0 0 0
M  V30 BEGIN ATOM
M  V30 1 O -0.774616 -3.815185 -2.471779 0
M  V30 2 C 0.237225 -4.484873 -2.865555 0
M  V30 3 N 1.384532 -3.771073 -3.288818 0
M  V30 4 C 1.233684 -2.339988 -3.209123 0
M  V30 5 C 0.742033 -1.571336 -4.256328 0
M  V30 6 N 0.747669 -0.293748 -3.812758 0
M  V30 7 N 1.201485 -0.230995 -2.587060 0
M  V30 8 C 1.414887 0.833540 -1.663467 0
M  V30 9 C 2.604352 1.587196 -1.844163 0
M  V30 10 S 2.457412 2.847689 -0.429362 0
M  V30 11 C 1.008835 2.277375 0.148200 0
M  V30 12 C 0.183734 2.767821 1.315909 0
M  V30 13 O -0.902796 2.221327 1.626980 0
M  V30 14 N 0.743780 3.879043 2.008957 0
M  V30 15 C 0.073322 4.461833 3.149678 0
M  V30 16 C -0.113549 3.488722 4.279488 0
M  V30 17 C 1.159297 2.931541 4.816666 0
M  V30 18 C 0.726775 1.833191 5.798068 0
M  V30 19 O -0.022804 2.334310 6.838180 0
M  V30 20 C -1.209877 2.888387 6.345431 0
M  V30 21 C -0.891733 4.068833 5.429005 0
M  V30 22 C 0.599032 1.201146 -0.629578 0
M  V30 23 C 1.514180 -1.473041 -2.173704 0
M  V30 24 N 0.081919 -5.905226 -2.829138 0
M  V30 25 C -1.138129 -6.483748 -2.376182 0
M  V30 26 C -2.163643 -6.751081 -3.273471 0
M  V30 27 C -3.350970 -7.317566 -2.812407 0
M  V30 28 C -3.499923 -7.607981 -1.474243 0
M  V30 29 C -2.505409 -7.357381 -0.553575 0
M  V30 30 C -1.346433 -6.799369 -1.033125 0
M  V30 31 Cl -0.013064 -6.439441 0.061503 0
M  V30 32 H 2.171697 -4.408780 -3.596993 0
M  V30 33 H 0.402323 -1.838634 -5.247751 0
M  V30 34 H 3.400412 1.456319 -2.618610 0
M  V30 35 H 1.672172 4.286535 1.680483 0
M  V30 36 H 0.661048 5.338279 3.481975 0
M  V30 37 H -0.920270 4.816392 2.806300 0
M  V30 38 H -0.724413 2.646970 3.897248 0
M  V30 39 H 1.743104 2.454188 4.028581 0
M  V30 40 H 1.755834 3.693592 5.383249 0
M  V30 41 H 1.563170 1.224801 6.140322 0
M  V30 42 H 0.068735 1.167432 5.176067 0
M  V30 43 H -1.918811 3.127805 7.138427 0
M  V30 44 H -1.650154 2.101987 5.671680 0
M  V30 45 H -1.861835 4.512048 5.123999 0
M  V30 46 H -0.289855 4.767542 6.043343 0
M  V30 47 H -0.316671 0.649908 -0.460679 0
M  V30 48 H 1.912927 -1.867439 -1.247553 0
M  V30 49 H 0.912647 -6.459883 -3.152517 0
M  V30 50 H -2.030376 -6.517661 -4.316543 0
M  V30 51 H -4.162447 -7.533869 -3.494595 0
M  V30 52 H -4.425237 -8.050405 -1.109395 0
M  V30 53 H -2.559139 -7.561029 0.506336 0
M  V30 END ATOM
M  V30 BEGIN BOND
M  V30 1 2 1 2
M  V30 2 1 2 3
M  V30 3 1 3 4
M  V30 4 1 4 5
M  V30 5 2 5 6
M  V30 6 1 6 7
M  V30 7 1 7 8
M  V30 8 2 8 9
M  V30 9 1 9 10
M  V30 10 1 10 11
M  V30 11 1 11 12
M  V30 12 2 12 13
M  V30 13 1 12 14
M  V30 14 1 14 15
M  V30 15 1 15 16
M  V30 16 1 16 17
M  V30 17 1 17 18
M  V30 18 1 18 19
M  V30 19 1 19 20
M  V30 20 1 20 21
M  V30 21 2 11 22
M  V30 22 1 7 23
M  V30 23 1 2 24
M  V30 24 1 24 25
M  V30 25 2 25 26
M  V30 26 1 26 27
M  V30 27 2 27 28
M  V30 28 1 28 29
M  V30 29 2 29 30
M  V30 30 1 30 31
M  V30 31 2 23 4
M  V30 32 1 30 25
M  V30 33 1 22 8
M  V30 34 1 21 16
M  V30 35 1 3 32
M  V30 36 1 5 33
M  V30 37 1 9 34
M  V30 38 1 14 35
M  V30 39 1 15 36
M  V30 40 1 15 37
M  V30 41 1 16 38
M  V30 42 1 17 39
M  V30 43 1 17 40
M  V30 44 1 18 41
M  V30 45 1 18 42
M  V30 46 1 20 43
M  V30 47 1 20 44
M  V30 48 1 21 45
M  V30 49 1 21 46
M  V30 50 1 22 47
M  V30 51 1 23 48
M  V30 52 1 24 49
M  V30 53 1 26 50
M  V30 54 1 27 51
M  V30 55 1 28 52
M  V30 56 1 29 53
M  V30 END BOND
M  V30 END CTAB
M  END
>  <Dataset>  (876) 
ChEMBL_Kinases

>  <Ligand_Instance>  (876) 
nan

>  <PDB_ID>  (876) 
nan

>  <Standardized_SMILES>  (876) 
O=C(Nc1cnn(-c2csc(C(=O)NCC3CCOCC3)c2)c1)Nc1ccccc1Cl

>  <Name>  (876) 
nan

>  <Pocket>  (876) 
nan

>  <ATP_Site>  (876) 
nan

>  <Peripheral>  (876) 
nan

>  <Num_H_Atoms_ProtBoundConf>  (876) 
nan

>  <Num_Resolved_Atoms>  (876) 
nan

>  <Num_Not_Resolved_Atoms>  (876) 
nan

$$$$
CHEMBL4744948
     RDKit          3D

  0  0  0  0  0  0  0  0  0  0999 V3000
M  V30 BEGIN CTAB
M  V30 COUNTS 56 61 0 0 0
M  V30 BEGIN ATOM
M  V30 1 C 0.815723 -2.284072 3.331112 0
M  V30 2 N 1.145250 -3.320520 2.387188 0
M  V30 3 C 2.447722 -3.828399 2.455720 0
M  V30 4 C 3.302823 -3.666736 1.225089 0
M  V30 5 N 2.681819 -2.552426 0.486831 0
M  V30 6 C 3.358266 -1.344499 0.372387 0
M  V30 7 C 4.734774 -1.328985 0.439943 0
M  V30 8 C 5.445668 -0.157743 0.288072 0
M  V30 9 N 4.827107 1.017483 0.068045 0
M  V30 10 C 3.485986 1.085750 -0.010340 0
M  V30 11 N 2.571629 2.050692 -0.201202 0
M  V30 12 C 1.304361 1.593762 -0.183617 0
M  V30 13 C 0.198378 2.499835 -0.373651 0
M  V30 14 N 0.318562 3.821588 -0.576049 0
M  V30 15 N -0.848482 4.398884 -0.718545 0
M  V30 16 C -1.843955 3.499937 -0.621538 0
M  V30 17 C -3.219257 3.568979 -0.694175 0
M  V30 18 C -3.960572 2.407492 -0.545299 0
M  V30 19 C -3.316804 1.227842 -0.331537 0
M  V30 20 C -4.089123 -0.012532 -0.172559 0
M  V30 21 C -5.346876 -0.023400 0.399246 0
M  V30 22 N -6.019449 -1.177649 0.525879 0
M  V30 23 C -5.523020 -2.365219 0.114466 0
M  V30 24 C -4.256267 -2.401061 -0.468715 0
M  V30 25 N -3.719624 -3.637125 -0.906416 0
M  V30 26 C -3.548519 -1.219482 -0.607221 0
M  V30 27 C -1.943023 1.198884 -0.265326 0
M  V30 28 C -1.159583 2.319776 -0.405739 0
M  V30 29 C 1.481966 0.257465 0.033930 0
M  V30 30 C 2.807849 -0.102360 0.145952 0
M  V30 31 C 1.387493 -2.993776 -0.038343 0
M  V30 32 C 0.495554 -3.202482 1.128844 0
M  V30 33 H 0.167528 -1.491614 2.911238 0
M  V30 34 H 1.774307 -1.808639 3.648181 0
M  V30 35 H 0.305841 -2.652791 4.247884 0
M  V30 36 H 2.538460 -4.884421 2.846364 0
M  V30 37 H 2.990513 -3.229209 3.247488 0
M  V30 38 H 3.196909 -4.623599 0.633426 0
M  V30 39 H 4.350964 -3.561839 1.423635 0
M  V30 40 H 5.422610 -2.143002 0.600038 0
M  V30 41 H 6.518317 -0.030749 0.322375 0
M  V30 42 H 2.954308 3.022645 -0.337557 0
M  V30 43 H -0.952095 5.430441 -0.885311 0
M  V30 44 H -3.665503 4.545417 -0.867529 0
M  V30 45 H -5.049642 2.465327 -0.602858 0
M  V30 46 H -5.800876 0.902234 0.749973 0
M  V30 47 H -6.048161 -3.315566 0.206450 0
M  V30 48 H -3.860179 -4.161231 -1.800716 0
M  V30 49 H -3.055580 -4.208983 -0.308196 0
M  V30 50 H -2.585930 -1.261565 -1.052688 0
M  V30 51 H -1.481274 0.253952 -0.096619 0
M  V30 52 H 0.650543 -0.415599 0.115823 0
M  V30 53 H 1.587591 -4.031591 -0.460685 0
M  V30 54 H 1.017775 -2.440883 -0.887152 0
M  V30 55 H -0.138557 -4.128135 1.005887 0
M  V30 56 H -0.230744 -2.366367 1.180963 0
M  V30 END ATOM
M  V30 BEGIN BOND
M  V30 1 1 1 2
M  V30 2 1 2 3
M  V30 3 1 3 4
M  V30 4 1 4 5
M  V30 5 1 5 6
M  V30 6 2 6 7
M  V30 7 1 7 8
M  V30 8 2 8 9
M  V30 9 1 9 10
M  V30 10 1 10 11
M  V30 11 1 11 12
M  V30 12 1 12 13
M  V30 13 2 13 14
M  V30 14 1 14 15
M  V30 15 1 15 16
M  V30 16 2 16 17
M  V30 17 1 17 18
M  V30 18 2 18 19
M  V30 19 1 19 20
M  V30 20 2 20 21
M  V30 21 1 21 22
M  V30 22 2 22 23
M  V30 23 1 23 24
M  V30 24 1 24 25
M  V30 25 2 24 26
M  V30 26 1 19 27
M  V30 27 2 27 28
M  V30 28 2 12 29
M  V30 29 1 29 30
M  V30 30 1 5 31
M  V30 31 1 31 32
M  V30 32 1 32 2
M  V30 33 1 30 6
M  V30 34 2 30 10
M  V30 35 1 28 13
M  V30 36 1 28 16
M  V30 37 1 26 20
M  V30 38 1 1 33
M  V30 39 1 1 34
M  V30 40 1 1 35
M  V30 41 1 3 36
M  V30 42 1 3 37
M  V30 43 1 4 38
M  V30 44 1 4 39
M  V30 45 1 7 40
M  V30 46 1 8 41
M  V30 47 1 11 42
M  V30 48 1 15 43
M  V30 49 1 17 44
M  V30 50 1 18 45
M  V30 51 1 21 46
M  V30 52 1 23 47
M  V30 53 1 25 48
M  V30 54 1 25 49
M  V30 55 1 26 50
M  V30 56 1 27 51
M  V30 57 1 29 52
M  V30 58 1 31 53
M  V30 59 1 31 54
M  V30 60 1 32 55
M  V30 61 1 32 56
M  V30 END BOND
M  V30 END CTAB
M  END
>  <Dataset>  (877) 
ChEMBL_Kinases

>  <Ligand_Instance>  (877) 
nan

>  <PDB_ID>  (877) 
nan

>  <Standardized_SMILES>  (877) 
CN1CCN(c2ccnc3[nH]c(-c4n[nH]c5ccc(-c6cncc(N)c6)cc45)cc23)CC1

>  <Name>  (877) 
nan

>  <Pocket>  (877) 
nan

>  <ATP_Site>  (877) 
nan

>  <Peripheral>  (877) 
nan

>  <Num_H_Atoms_ProtBoundConf>  (877) 
nan

>  <Num_Resolved_Atoms>  (877) 
nan

>  <Num_Not_Resolved_Atoms>  (877) 
nan

$$$$
CHEMBL4744850
     RDKit          3D

  0  0  0  0  0  0  0  0  0  0999 V3000
M  V30 BEGIN CTAB
M  V30 COUNTS 79 82 0 0 0
M  V30 BEGIN ATOM
M  V30 1 C 7.786989 -4.181205 4.199090 0
M  V30 2 N 7.935863 -4.811412 2.880476 0
M  V30 3 C 8.739116 -5.994145 3.058549 0
M  V30 4 C 8.561313 -3.895337 1.947735 0
M  V30 5 C 7.670880 -2.754890 1.615014 0
M  V30 6 C 6.465343 -2.447983 1.991467 0
M  V30 7 C 5.794189 -1.239511 1.508355 0
M  V30 8 O 6.473951 -0.530283 0.717977 0
M  V30 9 N 4.482870 -1.016754 1.978743 0
M  V30 10 C 3.580220 0.041059 1.705903 0
M  V30 11 C 2.754348 -0.333156 0.634700 0
M  V30 12 C 1.764854 0.541077 0.156954 0
M  V30 13 C 1.615647 1.793590 0.767180 0
M  V30 14 S 0.352373 2.814519 0.123606 0
M  V30 15 O 0.128617 2.493829 -1.311769 0
M  V30 16 O 0.801704 4.268236 0.162742 0
M  V30 17 N -1.119968 2.691966 1.061291 0
M  V30 18 C -1.552632 1.316383 0.989823 0
M  V30 19 C -2.916330 1.058257 1.554175 0
M  V30 20 C -3.835570 2.249137 1.304824 0
M  V30 21 C -3.297415 2.903623 0.061830 0
M  V30 22 N -4.230659 3.689126 -0.673539 0
M  V30 23 C -5.403577 3.098981 -1.248477 0
M  V30 24 N -6.331295 3.425975 -1.888315 0
M  V30 25 C -7.324980 2.676471 -2.313652 0
M  V30 26 C -7.326186 1.315993 -1.992728 0
M  V30 27 S -8.388406 -0.089596 -2.302509 0
M  V30 28 C -7.723610 -1.575871 -1.476852 0
M  V30 29 C -6.444879 -1.984106 -2.101049 0
M  V30 30 N -6.509325 -2.852969 -3.135858 0
M  V30 31 C -5.248874 -3.083006 -3.542304 0
M  V30 32 C -4.418270 -2.330491 -2.727006 0
M  V30 33 C -2.923512 -2.205679 -2.731820 0
M  V30 34 C -2.446989 -1.097487 -3.638991 0
M  V30 35 C -2.258979 -3.505354 -3.147508 0
M  V30 36 C -2.413613 -1.922351 -1.325744 0
M  V30 37 O -5.195552 -1.692449 -1.882055 0
M  V30 38 S -5.711231 1.242929 -0.997069 0
M  V30 39 C -2.047018 3.616526 0.432873 0
M  V30 40 C 2.440309 2.134714 1.815930 0
M  V30 41 C 3.409500 1.276669 2.283223 0
M  V30 42 H 7.930493 -3.078345 4.156610 0
M  V30 43 H 8.593323 -4.537623 4.886922 0
M  V30 44 H 6.794356 -4.384603 4.619233 0
M  V30 45 H 9.442083 -5.845404 3.905210 0
M  V30 46 H 9.403115 -6.199090 2.176218 0
M  V30 47 H 8.076108 -6.860979 3.285557 0
M  V30 48 H 8.781743 -4.454910 1.017110 0
M  V30 49 H 9.519899 -3.555313 2.412300 0
M  V30 50 H 8.225329 -2.110258 0.915784 0
M  V30 51 H 6.058727 -3.180348 2.675334 0
M  V30 52 H 4.030469 -1.689447 2.636253 0
M  V30 53 H 2.777692 -1.284748 0.078713 0
M  V30 54 H 1.115802 0.261363 -0.676135 0
M  V30 55 H -0.855133 0.776062 1.707887 0
M  V30 56 H -1.438688 0.946259 -0.025927 0
M  V30 57 H -2.911678 0.774454 2.627021 0
M  V30 58 H -3.373250 0.204418 1.014963 0
M  V30 59 H -3.625393 2.932491 2.182377 0
M  V30 60 H -4.893157 1.967399 1.268828 0
M  V30 61 H -3.005878 2.045203 -0.622604 0
M  V30 62 H -4.165299 4.689232 -0.855952 0
M  V30 63 H -8.188714 3.004894 -2.915239 0
M  V30 64 H -7.505708 -1.286889 -0.402868 0
M  V30 65 H -8.456959 -2.374248 -1.420776 0
M  V30 66 H -4.870325 -3.699463 -4.320159 0
M  V30 67 H -2.050452 -1.495022 -4.614147 0
M  V30 68 H -3.244285 -0.372192 -3.833125 0
M  V30 69 H -1.581995 -0.531014 -3.192039 0
M  V30 70 H -2.409906 -4.241696 -2.305607 0
M  V30 71 H -1.170534 -3.299070 -3.158087 0
M  V30 72 H -2.681350 -3.855506 -4.091113 0
M  V30 73 H -3.197613 -1.414588 -0.739626 0
M  V30 74 H -1.548859 -1.235498 -1.405674 0
M  V30 75 H -2.028508 -2.823625 -0.816090 0
M  V30 76 H -1.606845 4.214692 -0.377641 0
M  V30 77 H -2.315294 4.358699 1.232586 0
M  V30 78 H 2.324036 3.099495 2.283465 0
M  V30 79 H 4.083883 1.453913 3.079025 0
M  V30 END ATOM
M  V30 BEGIN BOND
M  V30 1 1 1 2
M  V30 2 1 2 3
M  V30 3 1 2 4
M  V30 4 1 4 5
M  V30 5 2 5 6
M  V30 6 1 6 7
M  V30 7 2 7 8
M  V30 8 1 7 9
M  V30 9 1 9 10
M  V30 10 2 10 11
M  V30 11 1 11 12
M  V30 12 2 12 13
M  V30 13 1 13 14
M  V30 14 2 14 15
M  V30 15 2 14 16
M  V30 16 1 14 17
M  V30 17 1 17 18
M  V30 18 1 18 19
M  V30 19 1 19 20
M  V30 20 1 20 21
M  V30 21 1 21 22
M  V30 22 1 22 23
M  V30 23 2 23 24
M  V30 24 1 24 25
M  V30 25 2 25 26
M  V30 26 1 26 27
M  V30 27 1 27 28
M  V30 28 1 28 29
M  V30 29 2 29 30
M  V30 30 1 30 31
M  V30 31 2 31 32
M  V30 32 1 32 33
M  V30 33 1 33 34
M  V30 34 1 33 35
M  V30 35 1 33 36
M  V30 36 1 32 37
M  V30 37 1 26 38
M  V30 38 1 21 39
M  V30 39 1 13 40
M  V30 40 2 40 41
M  V30 41 1 41 10
M  V30 42 1 39 17
M  V30 43 1 38 23
M  V30 44 1 37 29
M  V30 45 1 1 42
M  V30 46 1 1 43
M  V30 47 1 1 44
M  V30 48 1 3 45
M  V30 49 1 3 46
M  V30 50 1 3 47
M  V30 51 1 4 48
M  V30 52 1 4 49
M  V30 53 1 5 50
M  V30 54 1 6 51
M  V30 55 1 9 52
M  V30 56 1 11 53
M  V30 57 1 12 54
M  V30 58 1 18 55
M  V30 59 1 18 56
M  V30 60 1 19 57
M  V30 61 1 19 58
M  V30 62 1 20 59
M  V30 63 1 20 60
M  V30 64 1 21 61
M  V30 65 1 22 62
M  V30 66 1 25 63
M  V30 67 1 28 64
M  V30 68 1 28 65
M  V30 69 1 31 66
M  V30 70 1 34 67
M  V30 71 1 34 68
M  V30 72 1 34 69
M  V30 73 1 35 70
M  V30 74 1 35 71
M  V30 75 1 35 72
M  V30 76 1 36 73
M  V30 77 1 36 74
M  V30 78 1 36 75
M  V30 79 1 39 76
M  V30 80 1 39 77
M  V30 81 1 40 78
M  V30 82 1 41 79
M  V30 END BOND
M  V30 END CTAB
M  END
>  <Dataset>  (878) 
ChEMBL_Kinases

>  <Ligand_Instance>  (878) 
nan

>  <PDB_ID>  (878) 
nan

>  <Standardized_SMILES>  (878) 
CN(C)C/C=C/C(=O)Nc1ccc(S(=O)(=O)N2CCCC(Nc3ncc(SCc4ncc(C(C)(C)C)o4)s3)C2)cc1

>  <Name>  (878) 
nan

>  <Pocket>  (878) 
nan

>  <ATP_Site>  (878) 
nan

>  <Peripheral>  (878) 
nan

>  <Num_H_Atoms_ProtBoundConf>  (878) 
nan

>  <Num_Resolved_Atoms>  (878) 
nan

>  <Num_Not_Resolved_Atoms>  (878) 
nan

$$$$
CHEMBL4744838
     RDKit          3D

  0  0  0  0  0  0  0  0  0  0999 V3000
M  V30 BEGIN CTAB
M  V30 COUNTS 45 50 0 0 0
M  V30 BEGIN ATOM
M  V30 1 C 4.185445 -2.814668 4.175861 0
M  V30 2 C 5.269218 -2.599714 5.014510 0
M  V30 3 N 5.665772 -1.330405 5.157976 0
M  V30 4 C 5.082670 -0.295448 4.548862 0
M  V30 5 C 4.018186 -0.417976 3.712896 0
M  V30 6 C 3.344583 0.672471 3.017337 0
M  V30 7 C 3.804328 1.957487 3.195732 0
M  V30 8 C 3.159711 2.991614 2.526520 0
M  V30 9 C 2.098266 2.620437 1.731045 0
M  V30 10 N 1.294765 3.382007 0.973214 0
M  V30 11 N 0.374897 2.675850 0.339860 0
M  V30 12 C 0.532317 1.356564 0.662216 0
M  V30 13 C -0.094693 0.066800 0.346245 0
M  V30 14 N -1.145246 0.074956 -0.492013 0
M  V30 15 C -1.623621 -1.167657 -0.688573 0
M  V30 16 C -2.635741 -1.773174 -1.404370 0
M  V30 17 C -3.497747 -0.924289 -2.213741 0
M  V30 18 C -4.861395 -1.136087 -2.166631 0
M  V30 19 C -5.681877 -0.314911 -2.945660 0
M  V30 20 C -5.151879 0.681972 -3.742215 0
M  V30 21 N -3.814291 0.882218 -3.782186 0
M  V30 22 C -3.050385 0.088759 -3.032452 0
M  V30 23 C -2.766873 -3.135158 -1.306691 0
M  V30 24 C -1.962859 -3.964595 -0.543076 0
M  V30 25 C -0.968279 -3.295305 0.149604 0
M  V30 26 C -0.772500 -1.926621 0.102149 0
M  V30 27 N 0.152125 -1.201705 0.731190 0
M  V30 28 C 1.625291 1.340584 1.541414 0
M  V30 29 N 2.306702 0.379751 2.229161 0
M  V30 30 C 3.591371 -1.735489 3.551942 0
M  V30 31 H 3.858980 -3.829728 4.052247 0
M  V30 32 H 5.816868 -3.359696 5.557252 0
M  V30 33 H 5.489651 0.674243 4.742746 0
M  V30 34 H 4.636343 2.250099 3.818445 0
M  V30 35 H 3.454844 4.006909 2.612974 0
M  V30 36 H 1.257878 4.412301 0.790087 0
M  V30 37 H -5.256044 -1.916019 -1.541149 0
M  V30 38 H -6.754432 -0.442193 -2.941951 0
M  V30 39 H -5.830607 1.295388 -4.329694 0
M  V30 40 H -1.995202 0.274025 -3.086979 0
M  V30 41 H -3.578719 -3.555109 -1.891766 0
M  V30 42 H -2.102146 -5.035701 -0.494769 0
M  V30 43 H -0.307805 -3.908503 0.766798 0
M  V30 44 H 0.920591 -1.410796 1.373980 0
M  V30 45 H 2.740373 -1.966493 2.901796 0
M  V30 END ATOM
M  V30 BEGIN BOND
M  V30 1 2 1 2
M  V30 2 1 2 3
M  V30 3 2 3 4
M  V30 4 1 4 5
M  V30 5 1 5 6
M  V30 6 2 6 7
M  V30 7 1 7 8
M  V30 8 2 8 9
M  V30 9 1 9 10
M  V30 10 1 10 11
M  V30 11 2 11 12
M  V30 12 1 12 13
M  V30 13 2 13 14
M  V30 14 1 14 15
M  V30 15 2 15 16
M  V30 16 1 16 17
M  V30 17 2 17 18
M  V30 18 1 18 19
M  V30 19 2 19 20
M  V30 20 1 20 21
M  V30 21 2 21 22
M  V30 22 1 16 23
M  V30 23 2 23 24
M  V30 24 1 24 25
M  V30 25 2 25 26
M  V30 26 1 26 27
M  V30 27 1 12 28
M  V30 28 2 28 29
M  V30 29 2 5 30
M  V30 30 1 30 1
M  V30 31 1 29 6
M  V30 32 1 28 9
M  V30 33 1 27 13
M  V30 34 1 26 15
M  V30 35 1 22 17
M  V30 36 1 1 31
M  V30 37 1 2 32
M  V30 38 1 4 33
M  V30 39 1 7 34
M  V30 40 1 8 35
M  V30 41 1 10 36
M  V30 42 1 18 37
M  V30 43 1 19 38
M  V30 44 1 20 39
M  V30 45 1 22 40
M  V30 46 1 23 41
M  V30 47 1 24 42
M  V30 48 1 25 43
M  V30 49 1 27 44
M  V30 50 1 30 45
M  V30 END BOND
M  V30 END CTAB
M  END
>  <Dataset>  (879) 
ChEMBL_Kinases

>  <Ligand_Instance>  (879) 
nan

>  <PDB_ID>  (879) 
nan

>  <Standardized_SMILES>  (879) 
c1cncc(-c2ccc3[nH]nc(-c4nc5c(-c6cccnc6)cccc5[nH]4)c3n2)c1

>  <Name>  (879) 
nan

>  <Pocket>  (879) 
nan

>  <ATP_Site>  (879) 
nan

>  <Peripheral>  (879) 
nan

>  <Num_H_Atoms_ProtBoundConf>  (879) 
nan

>  <Num_Resolved_Atoms>  (879) 
nan

>  <Num_Not_Resolved_Atoms>  (879) 
nan

$$$$
CHEMBL4744766
     RDKit          3D

  0  0  0  0  0  0  0  0  0  0999 V3000
M  V30 BEGIN CTAB
M  V30 COUNTS 47 52 0 0 0
M  V30 BEGIN ATOM
M  V30 1 N 5.980026 -0.951215 6.379141 0
M  V30 2 C 4.846054 -1.174460 5.522385 0
M  V30 3 C 4.142848 -2.351182 5.680294 0
M  V30 4 N 3.080273 -2.503920 4.840033 0
M  V30 5 C 2.762262 -1.548726 3.924173 0
M  V30 6 C 3.479429 -0.378574 3.782994 0
M  V30 7 C 3.046162 0.575608 2.765550 0
M  V30 8 C 3.686071 1.774877 2.536502 0
M  V30 9 C 3.232262 2.639734 1.560085 0
M  V30 10 C 2.129780 2.263096 0.832981 0
M  V30 11 N 1.502137 2.917777 -0.157964 0
M  V30 12 N 0.492692 2.160146 -0.549650 0
M  V30 13 C 0.435221 1.027446 0.151429 0
M  V30 14 C -0.513468 -0.075415 0.042818 0
M  V30 15 C -1.563479 -0.088516 -0.879033 0
M  V30 16 C -2.231223 -1.275994 -0.682451 0
M  V30 17 C -3.340612 -1.746525 -1.353239 0
M  V30 18 C -4.057525 -1.089684 -2.424562 0
M  V30 19 C -4.384925 -1.910604 -3.504223 0
M  V30 20 C -5.066056 -1.414700 -4.589475 0
M  V30 21 N -5.426250 -0.130645 -4.625105 0
M  V30 22 C -5.134475 0.698200 -3.611695 0
M  V30 23 C -4.458251 0.239648 -2.516462 0
M  V30 24 C -3.810843 -2.990619 -0.944035 0
M  V30 25 C -3.182651 -3.678902 0.069617 0
M  V30 26 N -2.106476 -3.163183 0.680979 0
M  V30 27 C -1.609640 -1.963744 0.325000 0
M  V30 28 N -0.572649 -1.217815 0.748800 0
M  V30 29 C 1.484178 1.061980 1.058207 0
M  V30 30 N 1.970329 0.245969 2.030866 0
M  V30 31 C 4.562282 -0.187605 4.615848 0
M  V30 32 H 5.700323 -0.878752 7.381831 0
M  V30 33 H 7.029936 -0.840441 6.259299 0
M  V30 34 H 4.447747 -3.059501 6.420667 0
M  V30 35 H 1.883016 -1.792878 3.307041 0
M  V30 36 H 4.541000 2.048891 3.112324 0
M  V30 37 H 3.724163 3.575148 1.375056 0
M  V30 38 H 1.699765 3.849468 -0.601380 0
M  V30 39 H -1.788075 0.690730 -1.595433 0
M  V30 40 H -4.144265 -2.960662 -3.581625 0
M  V30 41 H -5.356346 -1.989763 -5.466230 0
M  V30 42 H -5.432268 1.718834 -3.662772 0
M  V30 43 H -4.183222 0.830671 -1.661490 0
M  V30 44 H -4.679681 -3.482770 -1.387284 0
M  V30 45 H -3.449222 -4.643309 0.473624 0
M  V30 46 H 0.091394 -1.481093 1.512071 0
M  V30 47 H 5.132338 0.708705 4.526088 0
M  V30 END ATOM
M  V30 BEGIN BOND
M  V30 1 1 1 2
M  V30 2 2 2 3
M  V30 3 1 3 4
M  V30 4 2 4 5
M  V30 5 1 5 6
M  V30 6 1 6 7
M  V30 7 2 7 8
M  V30 8 1 8 9
M  V30 9 2 9 10
M  V30 10 1 10 11
M  V30 11 1 11 12
M  V30 12 2 12 13
M  V30 13 1 13 14
M  V30 14 2 14 15
M  V30 15 1 15 16
M  V30 16 2 16 17
M  V30 17 1 17 18
M  V30 18 2 18 19
M  V30 19 1 19 20
M  V30 20 2 20 21
M  V30 21 1 21 22
M  V30 22 2 22 23
M  V30 23 1 17 24
M  V30 24 2 24 25
M  V30 25 1 25 26
M  V30 26 2 26 27
M  V30 27 1 27 28
M  V30 28 1 13 29
M  V30 29 2 29 30
M  V30 30 2 6 31
M  V30 31 1 31 2
M  V30 32 1 30 7
M  V30 33 1 29 10
M  V30 34 1 28 14
M  V30 35 1 27 16
M  V30 36 1 23 18
M  V30 37 1 1 32
M  V30 38 1 1 33
M  V30 39 1 3 34
M  V30 40 1 5 35
M  V30 41 1 8 36
M  V30 42 1 9 37
M  V30 43 1 11 38
M  V30 44 1 15 39
M  V30 45 1 19 40
M  V30 46 1 20 41
M  V30 47 1 22 42
M  V30 48 1 23 43
M  V30 49 1 24 44
M  V30 50 1 25 45
M  V30 51 1 28 46
M  V30 52 1 31 47
M  V30 END BOND
M  V30 END CTAB
M  END
>  <Dataset>  (880) 
ChEMBL_Kinases

>  <Ligand_Instance>  (880) 
nan

>  <PDB_ID>  (880) 
nan

>  <Standardized_SMILES>  (880) 
Nc1cncc(-c2ccc3[nH]nc(-c4cc5c(-c6ccncc6)ccnc5[nH]4)c3n2)c1

>  <Name>  (880) 
nan

>  <Pocket>  (880) 
nan

>  <ATP_Site>  (880) 
nan

>  <Peripheral>  (880) 
nan

>  <Num_H_Atoms_ProtBoundConf>  (880) 
nan

>  <Num_Resolved_Atoms>  (880) 
nan

>  <Num_Not_Resolved_Atoms>  (880) 
nan

$$$$
CHEMBL200027
     RDKit          3D

  0  0  0  0  0  0  0  0  0  0999 V3000
M  V30 BEGIN CTAB
M  V30 COUNTS 64 69 0 0 0
M  V30 BEGIN ATOM
M  V30 1 O 1.367466 -5.515358 1.488423 0
M  V30 2 C 1.092348 -4.293131 1.630752 0
M  V30 3 C 1.831079 -3.163299 2.182169 0
M  V30 4 C 2.149401 -2.258602 1.197402 0
M  V30 5 C 2.832305 -1.059945 1.446797 0
M  V30 6 C 3.192024 -0.803606 2.765537 0
M  V30 7 N 3.845707 0.428861 3.122458 0
M  V30 8 C 3.829941 1.377868 2.061191 0
M  V30 9 N 4.731985 1.956702 1.213537 0
M  V30 10 C 4.288638 2.827578 0.276105 0
M  V30 11 C 2.988094 3.211140 0.071278 0
M  V30 12 C 2.108814 2.606857 0.942001 0
M  V30 13 C 0.639774 2.885265 0.842663 0
M  V30 14 C -0.301903 2.415335 1.661920 0
M  V30 15 C -1.609632 2.759998 1.446673 0
M  V30 16 C -2.727748 2.380355 2.185987 0
M  V30 17 C -3.956316 2.840184 1.805963 0
M  V30 18 C -4.221488 3.664474 0.740033 0
M  V30 19 C -3.134392 4.051385 -0.003712 0
M  V30 20 C -1.858107 3.588701 0.368579 0
M  V30 21 S -0.174863 3.854039 -0.315238 0
M  V30 22 N 2.571826 1.766825 1.841353 0
M  V30 23 C 2.866544 -1.722712 3.731049 0
M  V30 24 C 2.196159 -2.896962 3.483699 0
M  V30 25 N -0.230524 -3.989715 1.133729 0
M  V30 26 C -1.007028 -5.085662 0.555467 0
M  V30 27 C -1.277196 -4.640486 -0.888775 0
M  V30 28 C -2.095512 -3.395823 -0.942344 0
M  V30 29 N -1.422394 -2.347189 -1.636686 0
M  V30 30 C -2.180985 -1.135189 -1.734804 0
M  V30 31 C -1.532089 -0.349644 -2.855630 0
M  V30 32 C -0.445587 -1.264263 -3.397343 0
M  V30 33 C -1.002301 -2.629617 -2.968277 0
M  V30 34 C -2.278489 -2.913834 0.503362 0
M  V30 35 C -0.917739 -2.717591 1.132655 0
M  V30 36 H 1.935326 -2.347241 0.121046 0
M  V30 37 H 3.079144 -0.349740 0.666075 0
M  V30 38 H 4.273354 0.583411 4.057394 0
M  V30 39 H 5.098690 3.219313 -0.328368 0
M  V30 40 H 2.681877 3.904279 -0.684834 0
M  V30 41 H -0.000570 1.757483 2.498221 0
M  V30 42 H -2.690368 1.722418 3.072856 0
M  V30 43 H -4.833993 2.536789 2.393390 0
M  V30 44 H -5.172751 4.046798 0.409847 0
M  V30 45 H -3.151353 4.691548 -0.872056 0
M  V30 46 H 3.159377 -1.496193 4.730204 0
M  V30 47 H 1.914269 -3.652694 4.186114 0
M  V30 48 H -0.381168 -5.985809 0.484311 0
M  V30 49 H -1.925269 -5.309390 1.104008 0
M  V30 50 H -0.293045 -4.594395 -1.363485 0
M  V30 51 H -1.827237 -5.476648 -1.401516 0
M  V30 52 H -3.106540 -3.616131 -1.359595 0
M  V30 53 H -2.169277 -0.489226 -0.849668 0
M  V30 54 H -3.250059 -1.330700 -2.005931 0
M  V30 55 H -1.068453 0.601146 -2.490970 0
M  V30 56 H -2.297053 -0.095194 -3.620254 0
M  V30 57 H 0.487810 -1.088532 -2.853090 0
M  V30 58 H -0.336742 -1.190200 -4.496250 0
M  V30 59 H -0.158508 -3.360365 -2.964990 0
M  V30 60 H -1.781878 -2.902554 -3.686657 0
M  V30 61 H -2.918697 -3.553967 1.100800 0
M  V30 62 H -2.790738 -1.921798 0.456084 0
M  V30 63 H -0.325124 -1.973514 0.573501 0
M  V30 64 H -1.098371 -2.347212 2.169554 0
M  V30 END ATOM
M  V30 BEGIN BOND
M  V30 1 2 1 2
M  V30 2 1 2 3
M  V30 3 2 3 4
M  V30 4 1 4 5
M  V30 5 2 5 6
M  V30 6 1 6 7
M  V30 7 1 7 8
M  V30 8 2 8 9
M  V30 9 1 9 10
M  V30 10 2 10 11
M  V30 11 1 11 12
M  V30 12 1 12 13
M  V30 13 2 13 14
M  V30 14 1 14 15
M  V30 15 2 15 16
M  V30 16 1 16 17
M  V30 17 2 17 18
M  V30 18 1 18 19
M  V30 19 2 19 20
M  V30 20 1 20 21
M  V30 21 2 12 22
M  V30 22 1 6 23
M  V30 23 2 23 24
M  V30 24 1 2 25
M  V30 25 1 25 26
M  V30 26 1 26 27
M  V30 27 1 27 28
M  V30 28 1 28 29
M  V30 29 1 29 30
M  V30 30 1 30 31
M  V30 31 1 31 32
M  V30 32 1 32 33
M  V30 33 1 28 34
M  V30 34 1 34 35
M  V30 35 1 24 3
M  V30 36 1 35 25
M  V30 37 1 22 8
M  V30 38 1 33 29
M  V30 39 1 21 13
M  V30 40 1 20 15
M  V30 41 1 4 36
M  V30 42 1 5 37
M  V30 43 1 7 38
M  V30 44 1 10 39
M  V30 45 1 11 40
M  V30 46 1 14 41
M  V30 47 1 16 42
M  V30 48 1 17 43
M  V30 49 1 18 44
M  V30 50 1 19 45
M  V30 51 1 23 46
M  V30 52 1 24 47
M  V30 53 1 26 48
M  V30 54 1 26 49
M  V30 55 1 27 50
M  V30 56 1 27 51
M  V30 57 1 28 52
M  V30 58 1 30 53
M  V30 59 1 30 54
M  V30 60 1 31 55
M  V30 61 1 31 56
M  V30 62 1 32 57
M  V30 63 1 32 58
M  V30 64 1 33 59
M  V30 65 1 33 60
M  V30 66 1 34 61
M  V30 67 1 34 62
M  V30 68 1 35 63
M  V30 69 1 35 64
M  V30 END BOND
M  V30 END CTAB
M  END
>  <Dataset>  (881) 
ChEMBL_Kinases

>  <Ligand_Instance>  (881) 
nan

>  <PDB_ID>  (881) 
nan

>  <Standardized_SMILES>  (881) 
O=C(c1ccc(Nc2nccc(-c3cc4ccccc4s3)n2)cc1)N1CCC(N2CCCC2)CC1

>  <Name>  (881) 
nan

>  <Pocket>  (881) 
nan

>  <ATP_Site>  (881) 
nan

>  <Peripheral>  (881) 
nan

>  <Num_H_Atoms_ProtBoundConf>  (881) 
nan

>  <Num_Resolved_Atoms>  (881) 
nan

>  <Num_Not_Resolved_Atoms>  (881) 
nan

$$$$
CHEMBL4744627
     RDKit          3D

  0  0  0  0  0  0  0  0  0  0999 V3000
M  V30 BEGIN CTAB
M  V30 COUNTS 72 76 0 0 0
M  V30 BEGIN ATOM
M  V30 1 C 3.226647 -1.024786 5.207402 0
M  V30 2 C 3.179902 -0.588967 3.969755 0
M  V30 3 C 2.485183 0.687716 4.025373 0
M  V30 4 O 2.240132 0.800763 5.240626 0
M  V30 5 N 2.165190 1.575926 2.986253 0
M  V30 6 C 1.454229 2.803889 3.287805 0
M  V30 7 C 1.798783 3.713184 2.116779 0
M  V30 8 C 2.204304 2.768565 1.043687 0
M  V30 9 C 2.390561 2.932311 -0.308486 0
M  V30 10 C 2.782650 1.863384 -1.121517 0
M  V30 11 S 3.006594 2.129920 -2.848508 0
M  V30 12 O 3.572870 3.490618 -3.025461 0
M  V30 13 O 3.988904 1.077873 -3.307536 0
M  V30 14 N 1.504845 1.871198 -3.609858 0
M  V30 15 C 0.473964 2.755084 -3.185328 0
M  V30 16 C -0.813634 2.597901 -3.916680 0
M  V30 17 C -0.989185 1.249527 -4.535844 0
M  V30 18 C -0.299699 0.192000 -3.696520 0
M  V30 19 N -0.792138 0.255600 -2.335732 0
M  V30 20 C -0.495721 -0.615640 -1.237789 0
M  V30 21 N -0.747122 -0.747550 -0.115742 0
M  V30 22 C -0.275831 -1.742081 0.641781 0
M  V30 23 C 0.578838 -2.705373 0.079845 0
M  V30 24 S 1.234445 -4.063997 1.070252 0
M  V30 25 C 0.091403 -5.485412 0.976123 0
M  V30 26 C -1.207610 -5.189460 1.618002 0
M  V30 27 N -1.577979 -5.378526 2.887699 0
M  V30 28 C -2.850816 -4.967738 3.037052 0
M  V30 29 C -3.264270 -4.511956 1.804873 0
M  V30 30 C -4.529144 -3.938506 1.297500 0
M  V30 31 C -5.431069 -5.033893 0.798865 0
M  V30 32 C -5.259298 -3.192119 2.399318 0
M  V30 33 C -4.264535 -2.982481 0.151764 0
M  V30 34 O -2.230843 -4.677543 1.016245 0
M  V30 35 S 0.655950 -2.063527 -1.649573 0
M  V30 36 C 1.193810 0.482661 -3.643189 0
M  V30 37 C 2.972318 0.646933 -0.508029 0
M  V30 38 C 2.808253 0.399487 0.830747 0
M  V30 39 C 2.415880 1.509452 1.586107 0
M  V30 40 H 3.592162 -1.867170 5.783809 0
M  V30 41 H 3.205566 -1.286827 6.276175 0
M  V30 42 H 3.680079 -1.364659 3.421013 0
M  V30 43 H 1.784682 3.251396 4.249191 0
M  V30 44 H 0.350720 2.592888 3.334731 0
M  V30 45 H 2.647568 4.375069 2.371659 0
M  V30 46 H 0.931537 4.331216 1.805288 0
M  V30 47 H 2.229732 3.896534 -0.732024 0
M  V30 48 H 0.293018 2.723831 -2.091374 0
M  V30 49 H 0.853066 3.802473 -3.375489 0
M  V30 50 H -1.653990 2.772760 -3.215138 0
M  V30 51 H -0.866723 3.340573 -4.739496 0
M  V30 52 H -2.060593 0.994549 -4.626359 0
M  V30 53 H -0.537289 1.230010 -5.537681 0
M  V30 54 H -0.434796 -0.793674 -4.140928 0
M  V30 55 H -1.449169 1.012343 -2.066474 0
M  V30 56 H -0.611294 -1.724654 1.693006 0
M  V30 57 H -0.095834 -5.733421 -0.088068 0
M  V30 58 H 0.616371 -6.331893 1.424546 0
M  V30 59 H -3.509397 -4.951390 3.893659 0
M  V30 60 H -4.818465 -5.898588 0.453787 0
M  V30 61 H -6.124498 -5.343860 1.612567 0
M  V30 62 H -5.996173 -4.664486 -0.082308 0
M  V30 63 H -6.361049 -3.263864 2.208951 0
M  V30 64 H -5.019729 -3.689273 3.360644 0
M  V30 65 H -4.947224 -2.133880 2.390095 0
M  V30 66 H -5.074077 -2.221918 0.189329 0
M  V30 67 H -3.246204 -2.537849 0.215936 0
M  V30 68 H -4.383064 -3.546059 -0.796815 0
M  V30 69 H 1.666881 -0.120927 -2.874453 0
M  V30 70 H 1.580121 0.103507 -4.639493 0
M  V30 71 H 3.277873 -0.199740 -1.110555 0
M  V30 72 H 2.965704 -0.565585 1.274837 0
M  V30 END ATOM
M  V30 BEGIN BOND
M  V30 1 2 1 2
M  V30 2 1 2 3
M  V30 3 2 3 4
M  V30 4 1 3 5
M  V30 5 1 5 6
M  V30 6 1 6 7
M  V30 7 1 7 8
M  V30 8 2 8 9
M  V30 9 1 9 10
M  V30 10 1 10 11
M  V30 11 2 11 12
M  V30 12 2 11 13
M  V30 13 1 11 14
M  V30 14 1 14 15
M  V30 15 1 15 16
M  V30 16 1 16 17
M  V30 17 1 17 18
M  V30 18 1 18 19
M  V30 19 1 19 20
M  V30 20 2 20 21
M  V30 21 1 21 22
M  V30 22 2 22 23
M  V30 23 1 23 24
M  V30 24 1 24 25
M  V30 25 1 25 26
M  V30 26 2 26 27
M  V30 27 1 27 28
M  V30 28 2 28 29
M  V30 29 1 29 30
M  V30 30 1 30 31
M  V30 31 1 30 32
M  V30 32 1 30 33
M  V30 33 1 29 34
M  V30 34 1 23 35
M  V30 35 1 18 36
M  V30 36 2 10 37
M  V30 37 1 37 38
M  V30 38 2 38 39
M  V30 39 1 39 5
M  V30 40 1 39 8
M  V30 41 1 36 14
M  V30 42 1 35 20
M  V30 43 1 34 26
M  V30 44 1 1 40
M  V30 45 1 1 41
M  V30 46 1 2 42
M  V30 47 1 6 43
M  V30 48 1 6 44
M  V30 49 1 7 45
M  V30 50 1 7 46
M  V30 51 1 9 47
M  V30 52 1 15 48
M  V30 53 1 15 49
M  V30 54 1 16 50
M  V30 55 1 16 51
M  V30 56 1 17 52
M  V30 57 1 17 53
M  V30 58 1 18 54
M  V30 59 1 19 55
M  V30 60 1 22 56
M  V30 61 1 25 57
M  V30 62 1 25 58
M  V30 63 1 28 59
M  V30 64 1 31 60
M  V30 65 1 31 61
M  V30 66 1 31 62
M  V30 67 1 32 63
M  V30 68 1 32 64
M  V30 69 1 32 65
M  V30 70 1 33 66
M  V30 71 1 33 67
M  V30 72 1 33 68
M  V30 73 1 36 69
M  V30 74 1 36 70
M  V30 75 1 37 71
M  V30 76 1 38 72
M  V30 END BOND
M  V30 END CTAB
M  END
>  <Dataset>  (882) 
ChEMBL_Kinases

>  <Ligand_Instance>  (882) 
nan

>  <PDB_ID>  (882) 
nan

>  <Standardized_SMILES>  (882) 
C=CC(=O)N1CCc2cc(S(=O)(=O)N3CCCC(Nc4ncc(SCc5ncc(C(C)(C)C)o5)s4)C3)ccc21

>  <Name>  (882) 
nan

>  <Pocket>  (882) 
nan

>  <ATP_Site>  (882) 
nan

>  <Peripheral>  (882) 
nan

>  <Num_H_Atoms_ProtBoundConf>  (882) 
nan

>  <Num_Resolved_Atoms>  (882) 
nan

>  <Num_Not_Resolved_Atoms>  (882) 
nan

$$$$
CHEMBL4744601
     RDKit          3D

  0  0  0  0  0  0  0  0  0  0999 V3000
M  V30 BEGIN CTAB
M  V30 COUNTS 56 61 0 0 0
M  V30 BEGIN ATOM
M  V30 1 C 2.806651 -2.811003 2.879027 0
M  V30 2 S 3.078836 -3.076029 1.144667 0
M  V30 3 O 2.368248 -4.314304 0.722269 0
M  V30 4 O 4.556527 -3.230469 0.938687 0
M  V30 5 N 2.477702 -1.758263 0.204466 0
M  V30 6 C 3.132450 -0.524358 0.518406 0
M  V30 7 C 2.655169 0.643727 -0.259901 0
M  V30 8 C 3.266559 0.975777 -1.474345 0
M  V30 9 C 2.858098 2.059031 -2.216879 0
M  V30 10 F 3.418791 2.419633 -3.397607 0
M  V30 11 C 1.823015 2.866108 -1.790980 0
M  V30 12 C 1.198739 2.571117 -0.603865 0
M  V30 13 C 0.108178 3.254290 0.094147 0
M  V30 14 N 0.214905 4.608419 0.229676 0
M  V30 15 C -0.751475 5.308446 0.868484 0
M  V30 16 C -1.843004 4.617628 1.376551 0
M  V30 17 C -1.969162 3.234317 1.247020 0
M  V30 18 N -2.878738 2.314208 1.612988 0
M  V30 19 C -2.490519 1.081474 1.212816 0
M  V30 20 C -3.282514 -0.112139 1.476650 0
M  V30 21 N -4.452257 -0.098217 2.140185 0
M  V30 22 N -4.941147 -1.333392 2.210867 0
M  V30 23 C -4.109413 -2.177790 1.599676 0
M  V30 24 C -4.122947 -3.529308 1.374268 0
M  V30 25 C -3.090916 -4.133021 0.681598 0
M  V30 26 C -2.022422 -3.365587 0.204697 0
M  V30 27 C -0.996422 -4.101848 -0.520690 0
M  V30 28 C -0.653380 -5.403587 -0.250246 0
M  V30 29 N 0.324325 -5.939403 -1.037186 0
M  V30 30 C 0.920986 -5.227998 -2.026911 0
M  V30 31 N 0.573891 -3.937138 -2.287316 0
M  V30 32 C -0.397892 -3.345147 -1.534275 0
M  V30 33 C -2.004569 -2.006342 0.429782 0
M  V30 34 C -3.041843 -1.421860 1.122101 0
M  V30 35 N -1.312872 1.236623 0.584439 0
M  V30 36 C -0.971960 2.558849 0.594347 0
M  V30 37 C 1.609289 1.482316 0.141769 0
M  V30 38 H 1.842662 -3.294325 3.139840 0
M  V30 39 H 3.658095 -3.202481 3.484871 0
M  V30 40 H 2.707969 -1.745334 3.130053 0
M  V30 41 H 2.562343 -2.006205 -0.804866 0
M  V30 42 H 3.171913 -0.317329 1.602789 0
M  V30 43 H 4.215121 -0.669019 0.227462 0
M  V30 44 H 4.082554 0.373501 -1.850240 0
M  V30 45 H 1.397162 3.742202 -2.262986 0
M  V30 46 H -0.686971 6.398738 0.989712 0
M  V30 47 H -2.638066 5.126277 1.892834 0
M  V30 48 H -3.730024 2.623579 2.131190 0
M  V30 49 H -5.827330 -1.646244 2.659811 0
M  V30 50 H -4.960522 -4.138064 1.746821 0
M  V30 51 H -3.134553 -5.218509 0.519311 0
M  V30 52 H -1.150291 -5.926137 0.539860 0
M  V30 53 H 1.698727 -5.673460 -2.643634 0
M  V30 54 H -0.656832 -2.322264 -1.757909 0
M  V30 55 H -1.188526 -1.427998 0.065089 0
M  V30 56 H 1.201165 1.132447 1.103456 0
M  V30 END ATOM
M  V30 BEGIN BOND
M  V30 1 1 1 2
M  V30 2 2 2 3
M  V30 3 2 2 4
M  V30 4 1 2 5
M  V30 5 1 5 6
M  V30 6 1 6 7
M  V30 7 2 7 8
M  V30 8 1 8 9
M  V30 9 1 9 10
M  V30 10 2 9 11
M  V30 11 1 11 12
M  V30 12 1 12 13
M  V30 13 2 13 14
M  V30 14 1 14 15
M  V30 15 2 15 16
M  V30 16 1 16 17
M  V30 17 1 17 18
M  V30 18 1 18 19
M  V30 19 1 19 20
M  V30 20 2 20 21
M  V30 21 1 21 22
M  V30 22 1 22 23
M  V30 23 2 23 24
M  V30 24 1 24 25
M  V30 25 2 25 26
M  V30 26 1 26 27
M  V30 27 2 27 28
M  V30 28 1 28 29
M  V30 29 2 29 30
M  V30 30 1 30 31
M  V30 31 2 31 32
M  V30 32 1 26 33
M  V30 33 2 33 34
M  V30 34 2 19 35
M  V30 35 1 35 36
M  V30 36 2 12 37
M  V30 37 1 37 7
M  V30 38 1 36 13
M  V30 39 2 36 17
M  V30 40 1 34 20
M  V30 41 1 34 23
M  V30 42 1 32 27
M  V30 43 1 1 38
M  V30 44 1 1 39
M  V30 45 1 1 40
M  V30 46 1 5 41
M  V30 47 1 6 42
M  V30 48 1 6 43
M  V30 49 1 8 44
M  V30 50 1 11 45
M  V30 51 1 15 46
M  V30 52 1 16 47
M  V30 53 1 18 48
M  V30 54 1 22 49
M  V30 55 1 24 50
M  V30 56 1 25 51
M  V30 57 1 28 52
M  V30 58 1 30 53
M  V30 59 1 32 54
M  V30 60 1 33 55
M  V30 61 1 37 56
M  V30 END BOND
M  V30 END CTAB
M  END
>  <Dataset>  (883) 
ChEMBL_Kinases

>  <Ligand_Instance>  (883) 
nan

>  <PDB_ID>  (883) 
nan

>  <Standardized_SMILES>  (883) 
CS(=O)(=O)NCc1cc(F)cc(-c2nccc3[nH]c(-c4n[nH]c5ccc(-c6cncnc6)cc45)nc23)c1

>  <Name>  (883) 
nan

>  <Pocket>  (883) 
nan

>  <ATP_Site>  (883) 
nan

>  <Peripheral>  (883) 
nan

>  <Num_H_Atoms_ProtBoundConf>  (883) 
nan

>  <Num_Resolved_Atoms>  (883) 
nan

>  <Num_Not_Resolved_Atoms>  (883) 
nan

$$$$
CHEMBL4744530
     RDKit          3D

  0  0  0  0  0  0  0  0  0  0999 V3000
M  V30 BEGIN CTAB
M  V30 COUNTS 58 62 0 0 0
M  V30 BEGIN ATOM
M  V30 1 O 1.162571 2.583808 1.495815 0
M  V30 2 C 1.572695 2.937719 0.362583 0
M  V30 3 N 2.219841 4.178143 0.167190 0
M  V30 4 C 2.609487 5.305684 0.941871 0
M  V30 5 C 3.870314 5.246018 1.495099 0
M  V30 6 C 4.403771 6.259410 2.275926 0
M  V30 7 N 3.617106 7.347892 2.484189 0
M  V30 8 C 2.383479 7.436182 1.958690 0
M  V30 9 C 1.587807 8.656951 2.232871 0
M  V30 10 F 0.577657 8.736913 1.296618 0
M  V30 11 F 2.356903 9.800728 2.154131 0
M  V30 12 F 0.985382 8.517009 3.478932 0
M  V30 13 C 1.847902 6.430850 1.181087 0
M  V30 14 C 1.440687 2.144412 -0.858407 0
M  V30 15 N 1.809994 2.356054 -2.132251 0
M  V30 16 N 1.471476 1.331700 -2.895288 0
M  V30 17 C 0.867400 0.421337 -2.123820 0
M  V30 18 C 0.344239 -0.819450 -2.505027 0
M  V30 19 C -0.232518 -1.576837 -1.506360 0
M  V30 20 C -0.267778 -1.087066 -0.199534 0
M  V30 21 C -0.905594 -1.990378 0.754443 0
M  V30 22 C -0.420235 -1.934159 2.050740 0
M  V30 23 N -0.997774 -2.770030 2.964063 0
M  V30 24 C -1.990958 -3.600429 2.595694 0
M  V30 25 C -2.509222 -3.694830 1.321027 0
M  V30 26 C -3.587807 -4.595441 0.906700 0
M  V30 27 N -3.169473 -5.882229 0.441378 0
M  V30 28 C -2.441266 -6.678498 1.376152 0
M  V30 29 C -0.963914 -6.603487 0.996866 0
M  V30 30 C -0.756372 -7.431219 -0.249512 0
M  V30 31 C -1.958564 -7.221502 -1.152773 0
M  V30 32 C -2.546774 -5.844737 -0.863106 0
M  V30 33 C -1.924807 -2.845438 0.385786 0
M  V30 34 C 0.255735 0.141340 0.151343 0
M  V30 35 C 0.834166 0.903905 -0.842855 0
M  V30 36 H 2.582329 4.519950 -0.770618 0
M  V30 37 H 4.532187 4.408594 1.360901 0
M  V30 38 H 5.389595 6.228238 2.716575 0
M  V30 39 H 0.871302 6.459138 0.743133 0
M  V30 40 H 1.656917 1.267252 -3.931035 0
M  V30 41 H 0.399475 -1.149581 -3.536116 0
M  V30 42 H -0.634949 -2.531142 -1.798850 0
M  V30 43 H 0.378236 -1.265467 2.342901 0
M  V30 44 H -2.401601 -4.229894 3.358984 0
M  V30 45 H -4.223107 -4.157688 0.104087 0
M  V30 46 H -4.256001 -4.757431 1.789361 0
M  V30 47 H -2.729977 -7.752826 1.187855 0
M  V30 48 H -2.581248 -6.431779 2.426822 0
M  V30 49 H -0.369365 -7.110476 1.793706 0
M  V30 50 H -0.590178 -5.584424 0.889071 0
M  V30 51 H -0.701681 -8.498054 0.019696 0
M  V30 52 H 0.170120 -7.119484 -0.760642 0
M  V30 53 H -2.686951 -8.027099 -0.990329 0
M  V30 54 H -1.576588 -7.276307 -2.196636 0
M  V30 55 H -1.661891 -5.159533 -0.911916 0
M  V30 56 H -3.300176 -5.642329 -1.629689 0
M  V30 57 H -2.270612 -2.857348 -0.626342 0
M  V30 58 H 0.203216 0.469517 1.166087 0
M  V30 END ATOM
M  V30 BEGIN BOND
M  V30 1 2 1 2
M  V30 2 1 2 3
M  V30 3 1 3 4
M  V30 4 2 4 5
M  V30 5 1 5 6
M  V30 6 2 6 7
M  V30 7 1 7 8
M  V30 8 1 8 9
M  V30 9 1 9 10
M  V30 10 1 9 11
M  V30 11 1 9 12
M  V30 12 2 8 13
M  V30 13 1 2 14
M  V30 14 2 14 15
M  V30 15 1 15 16
M  V30 16 1 16 17
M  V30 17 2 17 18
M  V30 18 1 18 19
M  V30 19 2 19 20
M  V30 20 1 20 21
M  V30 21 2 21 22
M  V30 22 1 22 23
M  V30 23 2 23 24
M  V30 24 1 24 25
M  V30 25 1 25 26
M  V30 26 1 26 27
M  V30 27 1 27 28
M  V30 28 1 28 29
M  V30 29 1 29 30
M  V30 30 1 30 31
M  V30 31 1 31 32
M  V30 32 2 25 33
M  V30 33 1 20 34
M  V30 34 2 34 35
M  V30 35 1 13 4
M  V30 36 1 35 14
M  V30 37 1 35 17
M  V30 38 1 33 21
M  V30 39 1 32 27
M  V30 40 1 3 36
M  V30 41 1 5 37
M  V30 42 1 6 38
M  V30 43 1 13 39
M  V30 44 1 16 40
M  V30 45 1 18 41
M  V30 46 1 19 42
M  V30 47 1 22 43
M  V30 48 1 24 44
M  V30 49 1 26 45
M  V30 50 1 26 46
M  V30 51 1 28 47
M  V30 52 1 28 48
M  V30 53 1 29 49
M  V30 54 1 29 50
M  V30 55 1 30 51
M  V30 56 1 30 52
M  V30 57 1 31 53
M  V30 58 1 31 54
M  V30 59 1 32 55
M  V30 60 1 32 56
M  V30 61 1 33 57
M  V30 62 1 34 58
M  V30 END BOND
M  V30 END CTAB
M  END
>  <Dataset>  (884) 
ChEMBL_Kinases

>  <Ligand_Instance>  (884) 
nan

>  <PDB_ID>  (884) 
nan

>  <Standardized_SMILES>  (884) 
O=C(Nc1ccnc(C(F)(F)F)c1)c1n[nH]c2ccc(-c3cncc(CN4CCCCC4)c3)cc12

>  <Name>  (884) 
nan

>  <Pocket>  (884) 
nan

>  <ATP_Site>  (884) 
nan

>  <Peripheral>  (884) 
nan

>  <Num_H_Atoms_ProtBoundConf>  (884) 
nan

>  <Num_Resolved_Atoms>  (884) 
nan

>  <Num_Not_Resolved_Atoms>  (884) 
nan

$$$$
CHEMBL199299
     RDKit          3D

  0  0  0  0  0  0  0  0  0  0999 V3000
M  V30 BEGIN CTAB
M  V30 COUNTS 40 43 0 0 0
M  V30 BEGIN ATOM
M  V30 1 C 3.383865 -5.183683 0.443510 0
M  V30 2 O 4.084985 -4.716415 1.553400 0
M  V30 3 C 3.772573 -3.505588 2.133335 0
M  V30 4 C 2.770525 -2.709786 1.663415 0
M  V30 5 C 2.418275 -1.471665 2.221174 0
M  V30 6 C 1.314597 -0.736527 1.618120 0
M  V30 7 C 0.534101 0.082684 2.405433 0
M  V30 8 C -0.551359 0.812159 1.915641 0
M  V30 9 C -0.859156 0.703389 0.555002 0
M  V30 10 C -0.047487 -0.129911 -0.189565 0
M  V30 11 C 1.030749 -0.862432 0.265145 0
M  V30 12 N -0.563939 -0.083145 -1.537413 0
M  V30 13 C -1.683108 0.773829 -1.611617 0
M  V30 14 O -2.358565 1.033538 -2.634275 0
M  V30 15 C -1.893507 1.292266 -0.280519 0
M  V30 16 C -2.801779 2.155723 0.130147 0
M  V30 17 C -3.822078 2.702248 -0.786726 0
M  V30 18 N -4.565550 1.978314 -1.649499 0
M  V30 19 C -5.392375 2.769796 -2.352095 0
M  V30 20 C -5.151794 4.035792 -1.906413 0
M  V30 21 N -4.189633 3.984988 -0.948250 0
M  V30 22 C 3.144642 -1.066455 3.300685 0
M  V30 23 C 4.184162 -1.827829 3.835908 0
M  V30 24 C 4.478688 -3.034077 3.242358 0
M  V30 25 O 5.517958 -3.838762 3.746168 0
M  V30 26 H 3.672601 -6.259406 0.303869 0
M  V30 27 H 3.748590 -4.656023 -0.470638 0
M  V30 28 H 2.287318 -5.080797 0.568305 0
M  V30 29 H 2.204840 -3.049549 0.805249 0
M  V30 30 H 0.751693 0.186957 3.464855 0
M  V30 31 H -1.126916 1.439145 2.580875 0
M  V30 32 H 1.612096 -1.489304 -0.389817 0
M  V30 33 H -0.194818 -0.592193 -2.370217 0
M  V30 34 H -2.854136 2.511802 1.144514 0
M  V30 35 H -6.107347 2.484160 -3.118249 0
M  V30 36 H -5.587778 4.980545 -2.194291 0
M  V30 37 H -3.773311 4.772722 -0.405752 0
M  V30 38 H 2.852199 -0.107358 3.710224 0
M  V30 39 H 4.721420 -1.455679 4.689233 0
M  V30 40 H 5.242238 -4.691917 4.254595 0
M  V30 END ATOM
M  V30 BEGIN BOND
M  V30 1 1 1 2
M  V30 2 1 2 3
M  V30 3 2 3 4
M  V30 4 1 4 5
M  V30 5 1 5 6
M  V30 6 2 6 7
M  V30 7 1 7 8
M  V30 8 2 8 9
M  V30 9 1 9 10
M  V30 10 2 10 11
M  V30 11 1 10 12
M  V30 12 1 12 13
M  V30 13 2 13 14
M  V30 14 1 13 15
M  V30 15 2 15 16
M  V30 16 1 16 17
M  V30 17 2 17 18
M  V30 18 1 18 19
M  V30 19 2 19 20
M  V30 20 1 20 21
M  V30 21 2 5 22
M  V30 22 1 22 23
M  V30 23 2 23 24
M  V30 24 1 24 25
M  V30 25 1 24 3
M  V30 26 1 11 6
M  V30 27 1 21 17
M  V30 28 1 15 9
M  V30 29 1 1 26
M  V30 30 1 1 27
M  V30 31 1 1 28
M  V30 32 1 4 29
M  V30 33 1 7 30
M  V30 34 1 8 31
M  V30 35 1 11 32
M  V30 36 1 12 33
M  V30 37 1 16 34
M  V30 38 1 19 35
M  V30 39 1 20 36
M  V30 40 1 21 37
M  V30 41 1 22 38
M  V30 42 1 23 39
M  V30 43 1 25 40
M  V30 END BOND
M  V30 END CTAB
M  END
>  <Dataset>  (885) 
ChEMBL_Kinases

>  <Ligand_Instance>  (885) 
nan

>  <PDB_ID>  (885) 
nan

>  <Standardized_SMILES>  (885) 
COc1cc(-c2ccc3c(c2)NC(=O)/C3=C\c2ncc[nH]2)ccc1O

>  <Name>  (885) 
nan

>  <Pocket>  (885) 
nan

>  <ATP_Site>  (885) 
nan

>  <Peripheral>  (885) 
nan

>  <Num_H_Atoms_ProtBoundConf>  (885) 
nan

>  <Num_Resolved_Atoms>  (885) 
nan

>  <Num_Not_Resolved_Atoms>  (885) 
nan

$$$$
CHEMBL4747703
     RDKit          3D

  0  0  0  0  0  0  0  0  0  0999 V3000
M  V30 BEGIN CTAB
M  V30 COUNTS 46 51 0 0 0
M  V30 BEGIN ATOM
M  V30 1 N -0.227129 -2.823405 6.048768 0
M  V30 2 C 0.832609 -2.920007 5.064839 0
M  V30 3 C 0.502216 -2.071589 3.866968 0
M  V30 4 N 1.744683 -1.322317 3.962372 0
M  V30 5 C 2.468264 -0.358068 3.212967 0
M  V30 6 C 3.721845 0.109783 3.576539 0
M  V30 7 N 4.354326 1.036394 2.790756 0
M  V30 8 C 3.732320 1.463527 1.685008 0
M  V30 9 C 2.501130 1.032197 1.292980 0
M  V30 10 C 2.027232 1.574544 0.030528 0
M  V30 11 C 2.678938 2.517628 -0.723695 0
M  V30 12 C 2.170055 2.889097 -1.922014 0
M  V30 13 C 1.017864 2.298643 -2.327795 0
M  V30 14 N 0.411650 2.502374 -3.488124 0
M  V30 15 N -0.577659 1.734092 -3.458687 0
M  V30 16 C -0.905753 0.979600 -2.572749 0
M  V30 17 C -1.577132 -0.105977 -1.742825 0
M  V30 18 N -2.350266 -0.544526 -2.829799 0
M  V30 19 C -3.113686 -1.574467 -2.463364 0
M  V30 20 C -4.066448 -2.391342 -3.069814 0
M  V30 21 C -4.647273 -3.353452 -2.284976 0
M  V30 22 N -4.424278 -3.634115 -0.944266 0
M  V30 23 C -3.446062 -2.771385 -0.411245 0
M  V30 24 C -2.850763 -1.812687 -1.157321 0
M  V30 25 N -1.946010 -0.919313 -0.799850 0
M  V30 26 C 0.205368 1.336529 -1.726990 0
M  V30 27 C 0.870714 1.058031 -0.491776 0
M  V30 28 N 1.920946 0.125953 2.091476 0
M  V30 29 C 1.985533 -1.965627 5.226174 0
M  V30 30 H -0.709793 -1.895456 5.932102 0
M  V30 31 H -0.934373 -3.553682 5.838462 0
M  V30 32 H 1.186217 -3.936298 4.863859 0
M  V30 33 H 0.414452 -2.703086 2.951417 0
M  V30 34 H -0.369379 -1.380005 4.020646 0
M  V30 35 H 4.157249 -0.291495 4.490537 0
M  V30 36 H 4.367357 2.163197 1.192961 0
M  V30 37 H 3.580364 2.969602 -0.374652 0
M  V30 38 H 2.695643 3.639098 -2.509137 0
M  V30 39 H 0.489820 3.058673 -4.354911 0
M  V30 40 H -4.301399 -2.251518 -4.080247 0
M  V30 41 H -5.400760 -4.010529 -2.754289 0
M  V30 42 H -3.135226 -2.860601 0.634812 0
M  V30 43 H -1.445542 -0.663530 0.039065 0
M  V30 44 H 0.426485 0.324430 0.152431 0
M  V30 45 H 3.007536 -2.429158 5.285275 0
M  V30 46 H 1.846410 -1.316225 6.125481 0
M  V30 END ATOM
M  V30 BEGIN BOND
M  V30 1 1 1 2
M  V30 2 1 2 3
M  V30 3 1 3 4
M  V30 4 1 4 5
M  V30 5 2 5 6
M  V30 6 1 6 7
M  V30 7 2 7 8
M  V30 8 1 8 9
M  V30 9 1 9 10
M  V30 10 2 10 11
M  V30 11 1 11 12
M  V30 12 2 12 13
M  V30 13 1 13 14
M  V30 14 1 14 15
M  V30 15 2 15 16
M  V30 16 1 16 17
M  V30 17 2 17 18
M  V30 18 1 18 19
M  V30 19 2 19 20
M  V30 20 1 20 21
M  V30 21 2 21 22
M  V30 22 1 22 23
M  V30 23 2 23 24
M  V30 24 1 24 25
M  V30 25 1 16 26
M  V30 26 2 26 27
M  V30 27 2 9 28
M  V30 28 1 4 29
M  V30 29 1 29 2
M  V30 30 1 28 5
M  V30 31 1 27 10
M  V30 32 1 26 13
M  V30 33 1 25 17
M  V30 34 1 24 19
M  V30 35 1 1 30
M  V30 36 1 1 31
M  V30 37 1 2 32
M  V30 38 1 3 33
M  V30 39 1 3 34
M  V30 40 1 6 35
M  V30 41 1 8 36
M  V30 42 1 11 37
M  V30 43 1 12 38
M  V30 44 1 14 39
M  V30 45 1 20 40
M  V30 46 1 21 41
M  V30 47 1 23 42
M  V30 48 1 25 43
M  V30 49 1 27 44
M  V30 50 1 29 45
M  V30 51 1 29 46
M  V30 END BOND
M  V30 END CTAB
M  END
>  <Dataset>  (886) 
ChEMBL_Kinases

>  <Ligand_Instance>  (886) 
nan

>  <PDB_ID>  (886) 
nan

>  <Standardized_SMILES>  (886) 
NC1CN(c2cncc(-c3ccc4[nH]nc(-c5nc6ccncc6[nH]5)c4c3)n2)C1

>  <Name>  (886) 
nan

>  <Pocket>  (886) 
nan

>  <ATP_Site>  (886) 
nan

>  <Peripheral>  (886) 
nan

>  <Num_H_Atoms_ProtBoundConf>  (886) 
nan

>  <Num_Resolved_Atoms>  (886) 
nan

>  <Num_Not_Resolved_Atoms>  (886) 
nan

$$$$
CHEMBL1967887
     RDKit          3D

  0  0  0  0  0  0  0  0  0  0999 V3000
M  V30 BEGIN CTAB
M  V30 COUNTS 36 38 0 0 0
M  V30 BEGIN ATOM
M  V30 1 C -0.863711 -2.333411 3.931140 0
M  V30 2 C -0.497303 -3.387497 2.934699 0
M  V30 3 N -0.705625 -4.720100 2.974747 0
M  V30 4 N -0.210359 -5.253394 1.870241 0
M  V30 5 C 0.335608 -4.313704 1.069340 0
M  V30 6 C 0.970869 -4.304613 -0.158455 0
M  V30 7 C 1.431183 -3.115784 -0.725865 0
M  V30 8 C 1.258775 -1.895692 -0.059256 0
M  V30 9 C 1.733775 -0.638765 -0.635393 0
M  V30 10 C 2.849323 -0.540250 -1.438320 0
M  V30 11 N 3.192481 0.690394 -1.916136 0
M  V30 12 C 2.421659 1.774412 -1.582943 0
M  V30 13 C 1.277571 1.697009 -0.764253 0
M  V30 14 O 0.827232 2.984262 -0.694336 0
M  V30 15 C -0.300546 3.432212 -0.004890 0
M  V30 16 C -1.615444 2.870253 -0.473903 0
M  V30 17 N -2.732609 3.392237 0.298953 0
M  V30 18 C 0.958021 0.442569 -0.297986 0
M  V30 19 C 0.618194 -1.967626 1.161670 0
M  V30 20 C 0.153854 -3.115572 1.747914 0
M  V30 21 H -0.031136 -1.682129 4.203643 0
M  V30 22 H -1.316112 -2.764688 4.833886 0
M  V30 23 H -1.643050 -1.666641 3.467000 0
M  V30 24 H -0.227092 -6.255713 1.628357 0
M  V30 25 H 1.112163 -5.243774 -0.687007 0
M  V30 26 H 1.932443 -3.101963 -1.692831 0
M  V30 27 H 3.380921 -1.456604 -1.635369 0
M  V30 28 H 2.922406 2.613639 -2.095730 0
M  V30 29 H -0.186515 3.065027 1.063151 0
M  V30 30 H -0.336752 4.553004 0.054135 0
M  V30 31 H -1.790679 3.255695 -1.512715 0
M  V30 32 H -1.702182 1.780072 -0.413465 0
M  V30 33 H -2.975895 4.372430 0.055754 0
M  V30 34 H -2.615698 3.213892 1.321125 0
M  V30 35 H 0.092099 0.509186 0.309785 0
M  V30 36 H 0.495795 -1.015240 1.658295 0
M  V30 END ATOM
M  V30 BEGIN BOND
M  V30 1 1 1 2
M  V30 2 2 2 3
M  V30 3 1 3 4
M  V30 4 1 4 5
M  V30 5 2 5 6
M  V30 6 1 6 7
M  V30 7 2 7 8
M  V30 8 1 8 9
M  V30 9 2 9 10
M  V30 10 1 10 11
M  V30 11 2 11 12
M  V30 12 1 12 13
M  V30 13 1 13 14
M  V30 14 1 14 15
M  V30 15 1 15 16
M  V30 16 1 16 17
M  V30 17 2 13 18
M  V30 18 1 8 19
M  V30 19 2 19 20
M  V30 20 1 20 2
M  V30 21 1 20 5
M  V30 22 1 18 9
M  V30 23 1 1 21
M  V30 24 1 1 22
M  V30 25 1 1 23
M  V30 26 1 4 24
M  V30 27 1 6 25
M  V30 28 1 7 26
M  V30 29 1 10 27
M  V30 30 1 12 28
M  V30 31 1 15 29
M  V30 32 1 15 30
M  V30 33 1 16 31
M  V30 34 1 16 32
M  V30 35 1 17 33
M  V30 36 1 17 34
M  V30 37 1 18 35
M  V30 38 1 19 36
M  V30 END BOND
M  V30 END CTAB
M  END
>  <Dataset>  (887) 
ChEMBL_Kinases

>  <Ligand_Instance>  (887) 
nan

>  <PDB_ID>  (887) 
nan

>  <Standardized_SMILES>  (887) 
Cc1n[nH]c2ccc(-c3cncc(OCCN)c3)cc12

>  <Name>  (887) 
nan

>  <Pocket>  (887) 
nan

>  <ATP_Site>  (887) 
nan

>  <Peripheral>  (887) 
nan

>  <Num_H_Atoms_ProtBoundConf>  (887) 
nan

>  <Num_Resolved_Atoms>  (887) 
nan

>  <Num_Not_Resolved_Atoms>  (887) 
nan

$$$$
CHEMBL4747611
     RDKit          3D

  0  0  0  0  0  0  0  0  0  0999 V3000
M  V30 BEGIN CTAB
M  V30 COUNTS 61 67 0 0 0
M  V30 BEGIN ATOM
M  V30 1 F 5.424722 -1.132647 5.847101 0
M  V30 2 C 4.829180 -0.245019 4.962128 0
M  V30 3 F 3.695478 -0.865644 4.427029 0
M  V30 4 C 5.733406 0.154996 3.852798 0
M  V30 5 C 5.832961 1.682957 3.911810 0
M  V30 6 N 4.783873 2.100292 4.764164 0
M  V30 7 C 3.743694 2.888739 4.220238 0
M  V30 8 C 2.980332 2.272233 3.118400 0
M  V30 9 C 3.328293 2.426946 1.792552 0
M  V30 10 N 2.653750 1.877421 0.747108 0
M  V30 11 C 1.550317 1.113548 0.990334 0
M  V30 12 C 1.137107 0.911193 2.291310 0
M  V30 13 C -0.048326 0.085387 2.488449 0
M  V30 14 C -0.605196 -0.223873 3.708477 0
M  V30 15 C -1.728403 -1.009006 3.857858 0
M  V30 16 C -2.306592 -1.498178 2.718130 0
M  V30 17 N -3.382612 -2.272414 2.551371 0
M  V30 18 N -3.548599 -2.480885 1.252164 0
M  V30 19 C -2.574203 -1.838390 0.565298 0
M  V30 20 C -2.343793 -1.778282 -0.891336 0
M  V30 21 C -3.111653 -2.392592 -1.853872 0
M  V30 22 C -2.605097 -2.120582 -3.098211 0
M  V30 23 C -3.020592 -2.525506 -4.337092 0
M  V30 24 C -4.137395 -3.364297 -4.677085 0
M  V30 25 C -5.284312 -3.696668 -4.024985 0
M  V30 26 C -6.297567 -4.488251 -4.491389 0
M  V30 27 C -6.189943 -5.028204 -5.752054 0
M  V30 28 C -5.040101 -4.705543 -6.431736 0
M  V30 29 N -4.093144 -3.921391 -5.901381 0
M  V30 30 C -2.219429 -2.058304 -5.365368 0
M  V30 31 C -1.116536 -1.264518 -5.170601 0
M  V30 32 C -0.750952 -0.889388 -3.901925 0
M  V30 33 C -1.514181 -1.329401 -2.847199 0
M  V30 34 N -1.359280 -1.124898 -1.530625 0
M  V30 35 C -1.769907 -1.204196 1.483524 0
M  V30 36 N -0.657297 -0.421822 1.401426 0
M  V30 37 C 1.845437 1.483881 3.327007 0
M  V30 38 C 4.437603 1.037892 5.631300 0
M  V30 39 H 6.740180 -0.322667 3.952495 0
M  V30 40 H 5.315618 -0.161137 2.873617 0
M  V30 41 H 6.842368 1.959538 4.321386 0
M  V30 42 H 5.829084 2.032787 2.883440 0
M  V30 43 H 3.047855 3.172643 5.065878 0
M  V30 44 H 4.131009 3.882363 3.873665 0
M  V30 45 H 4.168154 3.005818 1.493729 0
M  V30 46 H 1.046365 0.696422 0.115527 0
M  V30 47 H -0.141211 0.166398 4.591624 0
M  V30 48 H -2.121539 -1.219721 4.827122 0
M  V30 49 H -4.020245 -2.672494 3.289510 0
M  V30 50 H -3.950623 -2.988871 -1.572521 0
M  V30 51 H -5.431821 -3.280001 -3.062634 0
M  V30 52 H -7.167974 -4.690071 -3.888287 0
M  V30 53 H -6.980819 -5.654467 -6.133098 0
M  V30 54 H -4.922685 -5.117921 -7.437551 0
M  V30 55 H -2.421364 -2.297986 -6.413268 0
M  V30 56 H -0.517909 -0.918490 -5.983757 0
M  V30 57 H 0.110222 -0.265186 -3.713595 0
M  V30 58 H -0.606242 -0.558151 -1.084761 0
M  V30 59 H 1.513095 1.318270 4.321125 0
M  V30 60 H 3.334130 0.970806 5.838188 0
M  V30 61 H 4.905493 1.125915 6.642478 0
M  V30 END ATOM
M  V30 BEGIN BOND
M  V30 1 1 1 2
M  V30 2 1 2 3
M  V30 3 1 2 4
M  V30 4 1 4 5
M  V30 5 1 5 6
M  V30 6 1 6 7
M  V30 7 1 7 8
M  V30 8 2 8 9
M  V30 9 1 9 10
M  V30 10 2 10 11
M  V30 11 1 11 12
M  V30 12 1 12 13
M  V30 13 2 13 14
M  V30 14 1 14 15
M  V30 15 2 15 16
M  V30 16 1 16 17
M  V30 17 1 17 18
M  V30 18 2 18 19
M  V30 19 1 19 20
M  V30 20 2 20 21
M  V30 21 1 21 22
M  V30 22 2 22 23
M  V30 23 1 23 24
M  V30 24 2 24 25
M  V30 25 1 25 26
M  V30 26 2 26 27
M  V30 27 1 27 28
M  V30 28 2 28 29
M  V30 29 1 23 30
M  V30 30 2 30 31
M  V30 31 1 31 32
M  V30 32 2 32 33
M  V30 33 1 33 34
M  V30 34 1 19 35
M  V30 35 2 35 36
M  V30 36 2 12 37
M  V30 37 1 6 38
M  V30 38 1 38 2
M  V30 39 1 37 8
M  V30 40 1 36 13
M  V30 41 1 35 16
M  V30 42 1 34 20
M  V30 43 1 33 22
M  V30 44 1 29 24
M  V30 45 1 4 39
M  V30 46 1 4 40
M  V30 47 1 5 41
M  V30 48 1 5 42
M  V30 49 1 7 43
M  V30 50 1 7 44
M  V30 51 1 9 45
M  V30 52 1 11 46
M  V30 53 1 14 47
M  V30 54 1 15 48
M  V30 55 1 17 49
M  V30 56 1 21 50
M  V30 57 1 25 51
M  V30 58 1 26 52
M  V30 59 1 27 53
M  V30 60 1 28 54
M  V30 61 1 30 55
M  V30 62 1 31 56
M  V30 63 1 32 57
M  V30 64 1 34 58
M  V30 65 1 37 59
M  V30 66 1 38 60
M  V30 67 1 38 61
M  V30 END BOND
M  V30 END CTAB
M  END
>  <Dataset>  (888) 
ChEMBL_Kinases

>  <Ligand_Instance>  (888) 
nan

>  <PDB_ID>  (888) 
nan

>  <Standardized_SMILES>  (888) 
FC1(F)CCN(Cc2cncc(-c3ccc4[nH]nc(-c5cc6c(-c7ccccn7)cccc6[nH]5)c4n3)c2)C1

>  <Name>  (888) 
nan

>  <Pocket>  (888) 
nan

>  <ATP_Site>  (888) 
nan

>  <Peripheral>  (888) 
nan

>  <Num_H_Atoms_ProtBoundConf>  (888) 
nan

>  <Num_Resolved_Atoms>  (888) 
nan

>  <Num_Not_Resolved_Atoms>  (888) 
nan

$$$$
CHEMBL4747563
     RDKit          3D

  0  0  0  0  0  0  0  0  0  0999 V3000
M  V30 BEGIN CTAB
M  V30 COUNTS 69 74 0 0 0
M  V30 BEGIN ATOM
M  V30 1 C 7.311058 -3.522330 3.938227 0
M  V30 2 N 6.958398 -2.400076 3.078242 0
M  V30 3 C 8.147043 -1.734451 2.583672 0
M  V30 4 C 7.797558 -0.646884 1.589164 0
M  V30 5 N 6.432196 -0.204780 1.796894 0
M  V30 6 C 5.442837 0.130972 0.842792 0
M  V30 7 C 5.681523 0.365864 -0.491176 0
M  V30 8 C 4.649654 0.691962 -1.385305 0
M  V30 9 C 3.422021 0.742730 -0.779006 0
M  V30 10 C 2.347147 1.103038 -1.676590 0
M  V30 11 O 2.460410 1.538603 -2.896715 0
M  V30 12 N 0.980361 1.166628 -1.720897 0
M  V30 13 C -0.386163 1.275882 -1.886571 0
M  V30 14 C -1.534738 0.982592 -1.213107 0
M  V30 15 C -2.710122 1.319888 -1.800334 0
M  V30 16 C -3.800884 0.974967 -1.028093 0
M  V30 17 C -5.076392 1.271119 -1.522826 0
M  V30 18 C -6.241012 0.893803 -0.723177 0
M  V30 19 C -7.371058 1.508414 -0.229294 0
M  V30 20 N -8.087891 0.624955 0.468359 0
M  V30 21 N -7.491194 -0.537939 0.460914 0
M  V30 22 C -6.342276 -0.427053 -0.263417 0
M  V30 23 C -5.587444 -1.707246 -0.343527 0
M  V30 24 N -5.492892 -2.302869 0.946286 0
M  V30 25 C -4.461558 -3.272967 1.100817 0
M  V30 26 C -4.668581 -4.548392 0.315251 0
M  V30 27 F -5.826317 -5.208500 0.658293 0
M  V30 28 C -6.703878 -2.534641 1.644699 0
M  V30 29 C -7.882644 -1.780905 1.070062 0
M  V30 30 C -5.165460 1.890965 -2.754433 0
M  V30 31 C -4.033745 2.217899 -3.496434 0
M  V30 32 C -2.769165 1.933250 -3.024634 0
M  V30 33 C -1.610857 2.231095 -3.708491 0
M  V30 34 N -0.433979 1.885910 -3.106544 0
M  V30 35 C 3.113852 0.519065 0.543277 0
M  V30 36 N 4.177695 0.215096 1.307563 0
M  V30 37 C 6.179709 -0.122824 3.223661 0
M  V30 38 C 6.098379 -1.495261 3.820806 0
M  V30 39 H 6.579630 -4.351408 3.857586 0
M  V30 40 H 7.335304 -3.207336 5.012240 0
M  V30 41 H 8.305596 -3.870108 3.654644 0
M  V30 42 H 8.729567 -1.337051 3.447909 0
M  V30 43 H 8.751311 -2.503864 2.065507 0
M  V30 44 H 7.930248 -1.076597 0.565545 0
M  V30 45 H 8.483005 0.206680 1.758790 0
M  V30 46 H 6.687713 0.297260 -0.852699 0
M  V30 47 H 4.808217 0.880651 -2.435966 0
M  V30 48 H 0.907721 0.787578 -0.688553 0
M  V30 49 H -1.311713 0.503701 -0.274465 0
M  V30 50 H -3.749182 0.494016 -0.058301 0
M  V30 51 H -7.493420 2.567563 -0.473698 0
M  V30 52 H -6.182781 -2.425211 -0.986997 0
M  V30 53 H -4.588020 -1.616024 -0.780973 0
M  V30 54 H -4.341762 -3.551640 2.170069 0
M  V30 55 H -3.502083 -2.796252 0.767622 0
M  V30 56 H -3.838077 -5.232923 0.641306 0
M  V30 57 H -4.539337 -4.397730 -0.769987 0
M  V30 58 H -6.547374 -2.191288 2.707553 0
M  V30 59 H -7.013759 -3.589187 1.733907 0
M  V30 60 H -8.444409 -2.452800 0.391966 0
M  V30 61 H -8.575961 -1.588210 1.934750 0
M  V30 62 H -6.155498 2.130013 -3.162187 0
M  V30 63 H -4.133941 2.704327 -4.459432 0
M  V30 64 H -1.822462 2.716069 -4.662561 0
M  V30 65 H 2.110478 0.581087 0.938411 0
M  V30 66 H 6.983321 0.437006 3.750537 0
M  V30 67 H 5.192313 0.389831 3.429181 0
M  V30 68 H 5.063089 -1.903448 3.873093 0
M  V30 69 H 6.459512 -1.448065 4.871122 0
M  V30 END ATOM
M  V30 BEGIN BOND
M  V30 1 1 1 2
M  V30 2 1 2 3
M  V30 3 1 3 4
M  V30 4 1 4 5
M  V30 5 1 5 6
M  V30 6 2 6 7
M  V30 7 1 7 8
M  V30 8 2 8 9
M  V30 9 1 9 10
M  V30 10 2 10 11
M  V30 11 1 10 12
M  V30 12 1 12 13
M  V30 13 2 13 14
M  V30 14 1 14 15
M  V30 15 2 15 16
M  V30 16 1 16 17
M  V30 17 1 17 18
M  V30 18 1 18 19
M  V30 19 2 19 20
M  V30 20 1 20 21
M  V30 21 1 21 22
M  V30 22 1 22 23
M  V30 23 1 23 24
M  V30 24 1 24 25
M  V30 25 1 25 26
M  V30 26 1 26 27
M  V30 27 1 24 28
M  V30 28 1 28 29
M  V30 29 2 17 30
M  V30 30 1 30 31
M  V30 31 2 31 32
M  V30 32 1 32 33
M  V30 33 2 33 34
M  V30 34 1 9 35
M  V30 35 2 35 36
M  V30 36 1 5 37
M  V30 37 1 37 38
M  V30 38 1 38 2
M  V30 39 1 36 6
M  V30 40 1 34 13
M  V30 41 1 32 15
M  V30 42 2 22 18
M  V30 43 1 29 21
M  V30 44 1 1 39
M  V30 45 1 1 40
M  V30 46 1 1 41
M  V30 47 1 3 42
M  V30 48 1 3 43
M  V30 49 1 4 44
M  V30 50 1 4 45
M  V30 51 1 7 46
M  V30 52 1 8 47
M  V30 53 1 12 48
M  V30 54 1 14 49
M  V30 55 1 16 50
M  V30 56 1 19 51
M  V30 57 1 23 52
M  V30 58 1 23 53
M  V30 59 1 25 54
M  V30 60 1 25 55
M  V30 61 1 26 56
M  V30 62 1 26 57
M  V30 63 1 28 58
M  V30 64 1 28 59
M  V30 65 1 29 60
M  V30 66 1 29 61
M  V30 67 1 30 62
M  V30 68 1 31 63
M  V30 69 1 33 64
M  V30 70 1 35 65
M  V30 71 1 37 66
M  V30 72 1 37 67
M  V30 73 1 38 68
M  V30 74 1 38 69
M  V30 END BOND
M  V30 END CTAB
M  END
>  <Dataset>  (889) 
ChEMBL_Kinases

>  <Ligand_Instance>  (889) 
nan

>  <PDB_ID>  (889) 
nan

>  <Standardized_SMILES>  (889) 
CN1CCN(c2ccc(C(=O)Nc3cc4cc(-c5cnn6c5CN(CCF)CC6)ccc4cn3)cn2)CC1

>  <Name>  (889) 
nan

>  <Pocket>  (889) 
nan

>  <ATP_Site>  (889) 
nan

>  <Peripheral>  (889) 
nan

>  <Num_H_Atoms_ProtBoundConf>  (889) 
nan

>  <Num_Resolved_Atoms>  (889) 
nan

>  <Num_Not_Resolved_Atoms>  (889) 
nan

$$$$
CHEMBL4747558
     RDKit          3D

  0  0  0  0  0  0  0  0  0  0999 V3000
M  V30 BEGIN CTAB
M  V30 COUNTS 36 40 0 0 0
M  V30 BEGIN ATOM
M  V30 1 C 2.531082 -5.741071 1.993459 0
M  V30 2 C 3.337355 -5.531631 0.894639 0
M  V30 3 N 3.183221 -4.395745 0.170204 0
M  V30 4 C 2.258570 -3.477615 0.509846 0
M  V30 5 C 1.429443 -3.613040 1.576274 0
M  V30 6 C 0.415293 -2.651362 1.984804 0
M  V30 7 C 0.180809 -1.483168 1.327591 0
M  V30 8 C -0.778895 -0.579250 1.719052 0
M  V30 9 C -1.155592 0.621467 1.200449 0
M  V30 10 C -0.707020 1.395648 0.066470 0
M  V30 11 C 0.234062 1.264068 -0.917244 0
M  V30 12 C 0.256294 2.324423 -1.785620 0
M  V30 13 C 1.029039 2.601802 -2.899658 0
M  V30 14 N 0.803527 3.745819 -3.548013 0
M  V30 15 C -0.140265 4.615372 -3.147631 0
M  V30 16 C -0.914468 4.335613 -2.030018 0
M  V30 17 C -0.728220 3.165510 -1.315527 0
M  V30 18 N -1.266758 2.585196 -0.231578 0
M  V30 19 N -2.138548 0.999909 2.036399 0
M  V30 20 N -2.350538 0.116549 2.983557 0
M  V30 21 C -1.516809 -0.910546 2.835663 0
M  V30 22 C -1.309145 -2.078483 3.523684 0
M  V30 23 N -0.354393 -2.900245 3.072662 0
M  V30 24 C 1.593292 -4.771038 2.307050 0
M  V30 25 H 2.649480 -6.644163 2.574213 0
M  V30 26 H 4.109679 -6.235232 0.560661 0
M  V30 27 H 2.192048 -2.603629 -0.107770 0
M  V30 28 H 0.776666 -1.276054 0.473946 0
M  V30 29 H 0.895646 0.425397 -1.015817 0
M  V30 30 H 1.787736 1.883209 -3.205970 0
M  V30 31 H -0.359483 5.554197 -3.640190 0
M  V30 32 H -1.680653 5.015612 -1.684393 0
M  V30 33 H -2.037577 3.115349 0.238496 0
M  V30 34 H -3.082702 0.268481 3.709492 0
M  V30 35 H -1.921581 -2.257195 4.373934 0
M  V30 36 H 0.993072 -5.011025 3.191866 0
M  V30 END ATOM
M  V30 BEGIN BOND
M  V30 1 2 1 2
M  V30 2 1 2 3
M  V30 3 2 3 4
M  V30 4 1 4 5
M  V30 5 1 5 6
M  V30 6 2 6 7
M  V30 7 1 7 8
M  V30 8 1 8 9
M  V30 9 1 9 10
M  V30 10 2 10 11
M  V30 11 1 11 12
M  V30 12 2 12 13
M  V30 13 1 13 14
M  V30 14 2 14 15
M  V30 15 1 15 16
M  V30 16 2 16 17
M  V30 17 1 17 18
M  V30 18 2 9 19
M  V30 19 1 19 20
M  V30 20 1 20 21
M  V30 21 1 21 22
M  V30 22 2 22 23
M  V30 23 2 5 24
M  V30 24 1 24 1
M  V30 25 1 23 6
M  V30 26 2 21 8
M  V30 27 1 18 10
M  V30 28 1 17 12
M  V30 29 1 1 25
M  V30 30 1 2 26
M  V30 31 1 4 27
M  V30 32 1 7 28
M  V30 33 1 11 29
M  V30 34 1 13 30
M  V30 35 1 15 31
M  V30 36 1 16 32
M  V30 37 1 18 33
M  V30 38 1 20 34
M  V30 39 1 22 35
M  V30 40 1 24 36
M  V30 END BOND
M  V30 END CTAB
M  END
>  <Dataset>  (890) 
ChEMBL_Kinases

>  <Ligand_Instance>  (890) 
nan

>  <PDB_ID>  (890) 
nan

>  <Standardized_SMILES>  (890) 
c1cncc(-c2cc3c(-c4cc5cnccc5[nH]4)n[nH]c3cn2)c1

>  <Name>  (890) 
nan

>  <Pocket>  (890) 
nan

>  <ATP_Site>  (890) 
nan

>  <Peripheral>  (890) 
nan

>  <Num_H_Atoms_ProtBoundConf>  (890) 
nan

>  <Num_Resolved_Atoms>  (890) 
nan

>  <Num_Not_Resolved_Atoms>  (890) 
nan

$$$$
CHEMBL4747481
     RDKit          3D

  0  0  0  0  0  0  0  0  0  0999 V3000
M  V30 BEGIN CTAB
M  V30 COUNTS 63 69 0 0 0
M  V30 BEGIN ATOM
M  V30 1 C 2.880672 -2.582464 1.436190 0
M  V30 2 C 3.205863 -3.108148 2.657539 0
M  V30 3 N 3.734558 -2.208723 3.534214 0
M  V30 4 C 3.902663 -0.916944 3.177360 0
M  V30 5 C 3.574410 -0.389486 1.945779 0
M  V30 6 C 3.870296 1.000915 1.799013 0
M  V30 7 C 5.155248 1.405409 2.188586 0
M  V30 8 C 5.495174 2.722469 2.056648 0
M  V30 9 N 4.615556 3.605158 1.565113 0
M  V30 10 C 3.375632 3.264499 1.180064 0
M  V30 11 N 2.294175 3.877244 0.670869 0
M  V30 12 C 1.252884 3.059475 0.453369 0
M  V30 13 C 0.033890 3.609278 -0.088032 0
M  V30 14 N -0.156639 4.894468 -0.403929 0
M  V30 15 N -1.353541 5.144627 -0.865781 0
M  V30 16 C -2.026977 3.996315 -0.875029 0
M  V30 17 N -3.293603 3.739461 -1.258546 0
M  V30 18 C -3.780436 2.462443 -1.174377 0
M  V30 19 C -2.942357 1.448339 -0.688089 0
M  V30 20 C -3.591712 0.159773 -0.648205 0
M  V30 21 C -4.952480 0.128889 -0.390835 0
M  V30 22 N -5.727424 -0.984600 -0.329171 0
M  V30 23 C -5.198833 -2.201839 -0.525271 0
M  V30 24 C -3.824179 -2.251150 -0.791526 0
M  V30 25 C -3.216122 -3.561039 -1.018046 0
M  V30 26 N -2.747457 -4.190768 0.197483 0
M  V30 27 C -1.797790 -3.386910 0.913867 0
M  V30 28 C -0.519624 -3.362339 0.103168 0
M  V30 29 C 0.048282 -4.748186 0.137442 0
M  V30 30 C -0.926890 -5.721501 -0.457364 0
M  V30 31 C -2.337117 -5.545646 -0.003140 0
M  V30 32 C -3.073311 -1.095614 -0.844790 0
M  V30 33 C -1.655516 1.767977 -0.310041 0
M  V30 34 C -1.170173 3.032971 -0.391863 0
M  V30 35 C 1.705060 1.833788 0.853339 0
M  V30 36 C 3.004648 1.943730 1.301332 0
M  V30 37 C 3.035966 -1.275399 1.035227 0
M  V30 38 H 2.459856 -3.262062 0.706172 0
M  V30 39 H 3.046025 -4.152008 2.880531 0
M  V30 40 H 4.339817 -0.394626 4.040858 0
M  V30 41 H 5.927487 0.772502 2.592407 0
M  V30 42 H 6.427581 3.220281 2.300026 0
M  V30 43 H 2.416085 4.911453 0.514026 0
M  V30 44 H -1.616735 6.116634 -1.146048 0
M  V30 45 H -4.805077 2.390559 -1.511834 0
M  V30 46 H -5.550373 1.014212 -0.207518 0
M  V30 47 H -5.755709 -3.117580 -0.490145 0
M  V30 48 H -4.022061 -4.257870 -1.402503 0
M  V30 49 H -2.446172 -3.479951 -1.794648 0
M  V30 50 H -2.199185 -2.383027 1.055350 0
M  V30 51 H -1.579474 -3.912084 1.874603 0
M  V30 52 H -0.662079 -3.096079 -0.954401 0
M  V30 53 H 0.165610 -2.591439 0.512503 0
M  V30 54 H 0.387448 -5.066575 1.128771 0
M  V30 55 H 0.968267 -4.735468 -0.516504 0
M  V30 56 H -0.571780 -6.742226 -0.202370 0
M  V30 57 H -0.849647 -5.635645 -1.567317 0
M  V30 58 H -2.518551 -6.104876 0.937705 0
M  V30 59 H -3.004236 -5.994666 -0.768826 0
M  V30 60 H -1.989552 -1.098983 -1.052967 0
M  V30 61 H -1.031699 1.000345 0.054572 0
M  V30 62 H 1.130566 0.942712 0.817807 0
M  V30 63 H 2.785328 -0.842570 0.077478 0
M  V30 END ATOM
M  V30 BEGIN BOND
M  V30 1 2 1 2
M  V30 2 1 2 3
M  V30 3 2 3 4
M  V30 4 1 4 5
M  V30 5 1 5 6
M  V30 6 2 6 7
M  V30 7 1 7 8
M  V30 8 2 8 9
M  V30 9 1 9 10
M  V30 10 1 10 11
M  V30 11 1 11 12
M  V30 12 1 12 13
M  V30 13 2 13 14
M  V30 14 1 14 15
M  V30 15 1 15 16
M  V30 16 2 16 17
M  V30 17 1 17 18
M  V30 18 2 18 19
M  V30 19 1 19 20
M  V30 20 2 20 21
M  V30 21 1 21 22
M  V30 22 2 22 23
M  V30 23 1 23 24
M  V30 24 1 24 25
M  V30 25 1 25 26
M  V30 26 1 26 27
M  V30 27 1 27 28
M  V30 28 1 28 29
M  V30 29 1 29 30
M  V30 30 1 30 31
M  V30 31 2 24 32
M  V30 32 1 19 33
M  V30 33 2 33 34
M  V30 34 2 12 35
M  V30 35 1 35 36
M  V30 36 2 5 37
M  V30 37 1 37 1
M  V30 38 1 36 6
M  V30 39 2 36 10
M  V30 40 1 34 13
M  V30 41 1 34 16
M  V30 42 1 32 20
M  V30 43 1 31 26
M  V30 44 1 1 38
M  V30 45 1 2 39
M  V30 46 1 4 40
M  V30 47 1 7 41
M  V30 48 1 8 42
M  V30 49 1 11 43
M  V30 50 1 15 44
M  V30 51 1 18 45
M  V30 52 1 21 46
M  V30 53 1 23 47
M  V30 54 1 25 48
M  V30 55 1 25 49
M  V30 56 1 27 50
M  V30 57 1 27 51
M  V30 58 1 28 52
M  V30 59 1 28 53
M  V30 60 1 29 54
M  V30 61 1 29 55
M  V30 62 1 30 56
M  V30 63 1 30 57
M  V30 64 1 31 58
M  V30 65 1 31 59
M  V30 66 1 32 60
M  V30 67 1 33 61
M  V30 68 1 35 62
M  V30 69 1 37 63
M  V30 END BOND
M  V30 END CTAB
M  END
>  <Dataset>  (891) 
ChEMBL_Kinases

>  <Ligand_Instance>  (891) 
nan

>  <PDB_ID>  (891) 
nan

>  <Standardized_SMILES>  (891) 
c1cncc(-c2ccnc3[nH]c(-c4n[nH]c5ncc(-c6cncc(CN7CCCCC7)c6)cc45)cc23)c1

>  <Name>  (891) 
nan

>  <Pocket>  (891) 
nan

>  <ATP_Site>  (891) 
nan

>  <Peripheral>  (891) 
nan

>  <Num_H_Atoms_ProtBoundConf>  (891) 
nan

>  <Num_Resolved_Atoms>  (891) 
nan

>  <Num_Not_Resolved_Atoms>  (891) 
nan

$$$$
CHEMBL4747452
     RDKit          3D

  0  0  0  0  0  0  0  0  0  0999 V3000
M  V30 BEGIN CTAB
M  V30 COUNTS 40 43 0 0 0
M  V30 BEGIN ATOM
M  V30 1 C -0.017119 -3.742464 3.339450 0
M  V30 2 C 0.749258 -4.406546 2.246092 0
M  V30 3 N 1.266565 -5.641016 2.190592 0
M  V30 4 N 1.881639 -5.836462 1.020067 0
M  V30 5 C 1.778215 -4.721418 0.277424 0
M  V30 6 C 2.209712 -4.340699 -0.993280 0
M  V30 7 C 1.946892 -3.076125 -1.518405 0
M  V30 8 C 1.238592 -2.186145 -0.747670 0
M  V30 9 C 0.888691 -0.831883 -1.160732 0
M  V30 10 C 1.237623 -0.298518 -2.383662 0
M  V30 11 N 0.922941 0.940549 -2.773305 0
M  V30 12 C 0.226958 1.746493 -1.956484 0
M  V30 13 C -0.142369 1.253281 -0.723960 0
M  V30 14 N -0.887496 1.937542 0.305710 0
M  V30 15 C -1.431162 1.740709 1.658887 0
M  V30 16 C -1.069732 3.201956 1.892465 0
M  V30 17 C 0.400851 3.418888 2.058187 0
M  V30 18 N -1.944024 3.898096 2.792163 0
M  V30 19 C -1.472233 3.282736 0.415170 0
M  V30 20 N 0.191404 0.006637 -0.369342 0
M  V30 21 C 0.827638 -2.596486 0.503979 0
M  V30 22 C 1.066762 -3.824260 1.048785 0
M  V30 23 H -1.033080 -3.478815 2.985127 0
M  V30 24 H -0.117047 -4.412604 4.216178 0
M  V30 25 H 0.544481 -2.831014 3.647465 0
M  V30 26 H 2.371573 -6.705102 0.706649 0
M  V30 27 H 2.774835 -5.071571 -1.590158 0
M  V30 28 H 2.273670 -2.774421 -2.492348 0
M  V30 29 H 1.793909 -0.886038 -3.085686 0
M  V30 30 H -0.101010 2.763514 -2.124509 0
M  V30 31 H -0.823742 1.023574 2.274121 0
M  V30 32 H -2.505931 1.535847 1.695047 0
M  V30 33 H 0.641064 4.270316 2.704879 0
M  V30 34 H 0.913961 2.517616 2.490259 0
M  V30 35 H 0.924159 3.585184 1.088708 0
M  V30 36 H -2.652192 3.189486 3.147790 0
M  V30 37 H -1.386350 4.153361 3.629429 0
M  V30 38 H -2.568963 3.179077 0.312135 0
M  V30 39 H -0.973883 4.065604 -0.158687 0
M  V30 40 H 0.258419 -1.897323 1.137301 0
M  V30 END ATOM
M  V30 BEGIN BOND
M  V30 1 1 1 2
M  V30 2 2 2 3
M  V30 3 1 3 4
M  V30 4 1 4 5
M  V30 5 2 5 6
M  V30 6 1 6 7
M  V30 7 2 7 8
M  V30 8 1 8 9
M  V30 9 2 9 10
M  V30 10 1 10 11
M  V30 11 2 11 12
M  V30 12 1 12 13
M  V30 13 1 13 14
M  V30 14 1 14 15
M  V30 15 1 15 16
M  V30 16 1 16 17
M  V30 17 1 16 18
M  V30 18 1 16 19
M  V30 19 2 13 20
M  V30 20 1 8 21
M  V30 21 2 21 22
M  V30 22 1 22 2
M  V30 23 1 22 5
M  V30 24 1 20 9
M  V30 25 1 19 14
M  V30 26 1 1 23
M  V30 27 1 1 24
M  V30 28 1 1 25
M  V30 29 1 4 26
M  V30 30 1 6 27
M  V30 31 1 7 28
M  V30 32 1 10 29
M  V30 33 1 12 30
M  V30 34 1 15 31
M  V30 35 1 15 32
M  V30 36 1 17 33
M  V30 37 1 17 34
M  V30 38 1 17 35
M  V30 39 1 18 36
M  V30 40 1 18 37
M  V30 41 1 19 38
M  V30 42 1 19 39
M  V30 43 1 21 40
M  V30 END BOND
M  V30 END CTAB
M  END
>  <Dataset>  (892) 
ChEMBL_Kinases

>  <Ligand_Instance>  (892) 
nan

>  <PDB_ID>  (892) 
nan

>  <Standardized_SMILES>  (892) 
Cc1n[nH]c2ccc(-c3cncc(N4CC(C)(N)C4)n3)cc12

>  <Name>  (892) 
nan

>  <Pocket>  (892) 
nan

>  <ATP_Site>  (892) 
nan

>  <Peripheral>  (892) 
nan

>  <Num_H_Atoms_ProtBoundConf>  (892) 
nan

>  <Num_Resolved_Atoms>  (892) 
nan

>  <Num_Not_Resolved_Atoms>  (892) 
nan

$$$$
CHEMBL1971943
     RDKit          3D

  0  0  0  0  0  0  0  0  0  0999 V3000
M  V30 BEGIN CTAB
M  V30 COUNTS 41 44 0 0 0
M  V30 BEGIN ATOM
M  V30 1 C 1.127475 -4.336777 0.503647 0
M  V30 2 C 2.447941 -3.878504 0.059942 0
M  V30 3 C 3.661821 -4.380562 0.461556 0
M  V30 4 N 4.623863 -3.711912 -0.197713 0
M  V30 5 C 4.107504 -2.787096 -1.020046 0
M  V30 6 N 4.598724 -1.867983 -1.900364 0
M  V30 7 C 3.708281 -1.088605 -2.582448 0
M  V30 8 C 2.322596 -1.218847 -2.392592 0
M  V30 9 C 1.797706 -2.163288 -1.485812 0
M  V30 10 O 0.466646 -1.988159 -1.576911 0
M  V30 11 C -0.365858 -1.601554 -0.580846 0
M  V30 12 C -0.026186 -0.269733 -0.272575 0
M  V30 13 F 0.933244 0.534739 -0.813572 0
M  V30 14 C -0.694296 0.460758 0.724744 0
M  V30 15 C -1.724116 -0.102627 1.453482 0
M  V30 16 N -2.422382 0.594326 2.475773 0
M  V30 17 C -2.184539 1.940732 2.852033 0
M  V30 18 C -3.026935 2.833605 2.201639 0
M  V30 19 C -2.912727 4.191969 2.463148 0
M  V30 20 Cl -3.976025 5.335953 1.647697 0
M  V30 21 N -1.983774 4.651700 3.349383 0
M  V30 22 C -1.174873 3.755508 3.969149 0
M  V30 23 N -0.165187 4.121481 4.913742 0
M  V30 24 N -1.270355 2.426188 3.728001 0
M  V30 25 C -2.065278 -1.395274 1.163563 0
M  V30 26 C -1.396362 -2.073000 0.189548 0
M  V30 27 F -1.766855 -3.325642 -0.136175 0
M  V30 28 C 2.753276 -2.899306 -0.849710 0
M  V30 29 H 0.467533 -4.539053 -0.369269 0
M  V30 30 H 0.641459 -3.746213 1.279625 0
M  V30 31 H 1.277106 -5.354667 0.959287 0
M  V30 32 H 3.755879 -5.177077 1.187355 0
M  V30 33 H 5.659533 -3.860007 -0.111963 0
M  V30 34 H 4.278390 -0.430731 -3.222375 0
M  V30 35 H 1.895312 -0.473948 -3.076339 0
M  V30 36 H -0.493142 1.486619 1.021084 0
M  V30 37 H -3.173973 0.112138 3.010200 0
M  V30 38 H -3.795633 2.554006 1.479999 0
M  V30 39 H -0.282781 4.373085 5.940812 0
M  V30 40 H 0.771438 4.111800 4.439399 0
M  V30 41 H -2.841615 -1.910092 1.668987 0
M  V30 END ATOM
M  V30 BEGIN BOND
M  V30 1 1 1 2
M  V30 2 2 2 3
M  V30 3 1 3 4
M  V30 4 1 4 5
M  V30 5 2 5 6
M  V30 6 1 6 7
M  V30 7 2 7 8
M  V30 8 1 8 9
M  V30 9 1 9 10
M  V30 10 1 10 11
M  V30 11 2 11 12
M  V30 12 1 12 13
M  V30 13 1 12 14
M  V30 14 2 14 15
M  V30 15 1 15 16
M  V30 16 1 16 17
M  V30 17 2 17 18
M  V30 18 1 18 19
M  V30 19 1 19 20
M  V30 20 2 19 21
M  V30 21 1 21 22
M  V30 22 1 22 23
M  V30 23 2 22 24
M  V30 24 1 15 25
M  V30 25 2 25 26
M  V30 26 1 26 27
M  V30 27 2 9 28
M  V30 28 1 28 2
M  V30 29 1 28 5
M  V30 30 1 26 11
M  V30 31 1 24 17
M  V30 32 1 1 29
M  V30 33 1 1 30
M  V30 34 1 1 31
M  V30 35 1 3 32
M  V30 36 1 4 33
M  V30 37 1 7 34
M  V30 38 1 8 35
M  V30 39 1 14 36
M  V30 40 1 16 37
M  V30 41 1 18 38
M  V30 42 1 23 39
M  V30 43 1 23 40
M  V30 44 1 25 41
M  V30 END BOND
M  V30 END CTAB
M  END
>  <Dataset>  (893) 
ChEMBL_Kinases

>  <Ligand_Instance>  (893) 
nan

>  <PDB_ID>  (893) 
nan

>  <Standardized_SMILES>  (893) 
Cc1c[nH]c2nccc(Oc3c(F)cc(Nc4cc(Cl)nc(N)n4)cc3F)c12

>  <Name>  (893) 
BAY-549

>  <Pocket>  (893) 
nan

>  <ATP_Site>  (893) 
nan

>  <Peripheral>  (893) 
nan

>  <Num_H_Atoms_ProtBoundConf>  (893) 
nan

>  <Num_Resolved_Atoms>  (893) 
nan

>  <Num_Not_Resolved_Atoms>  (893) 
nan

$$$$
CHEMBL2420564
     RDKit          3D

  0  0  0  0  0  0  0  0  0  0999 V3000
M  V30 BEGIN CTAB
M  V30 COUNTS 60 64 0 0 0
M  V30 BEGIN ATOM
M  V30 1 O 3.854148 0.989899 -0.404341 0
M  V30 2 C 3.005872 0.718330 0.477504 0
M  V30 3 N 3.344763 1.049428 1.817721 0
M  V30 4 C 4.595112 1.666380 2.164931 0 CFG=2
M  V30 5 C 5.473869 0.743927 3.009684 0
M  V30 6 O 4.848823 0.391893 4.201614 0
M  V30 7 C 4.474903 3.006930 2.769945 0
M  V30 8 C 3.535867 3.277464 3.769797 0
M  V30 9 C 3.511227 4.564146 4.262718 0
M  V30 10 C 4.303216 5.600670 3.880724 0
M  V30 11 C 5.230675 5.343923 2.897197 0
M  V30 12 C 5.303039 4.058428 2.358923 0
M  V30 13 C 1.756542 0.093220 0.065253 0
M  V30 14 C 1.610129 -0.156311 -1.289454 0
M  V30 15 C 0.434158 -0.756328 -1.756965 0
M  V30 16 C -0.562708 -1.086632 -0.831536 0
M  V30 17 N -1.691919 -1.663373 -1.281251 0
M  V30 18 C -2.687345 -2.009052 -0.470217 0
M  V30 19 N -3.886740 -2.614752 -0.895374 0
M  V30 20 C -4.160962 -2.929391 -2.298529 0 CFG=1
M  V30 21 C -3.173185 -3.880463 -2.893024 0
M  V30 22 C -3.398443 -5.322734 -2.598960 0
M  V30 23 C -4.794472 -5.682796 -2.235793 0 CFG=2
M  V30 24 O -5.066830 -6.960081 -2.736355 0
M  V30 25 C -5.806265 -4.751085 -2.853993 0
M  V30 26 C -5.582801 -3.299908 -2.525531 0
M  V30 27 C -2.511346 -1.747478 0.871820 0
M  V30 28 N -3.346349 -1.986795 1.923454 0
M  V30 29 C -2.700911 -1.541635 3.034634 0
M  V30 30 C -1.468930 -1.029659 2.658457 0
M  V30 31 N -1.388875 -1.170946 1.342718 0
M  V30 32 C -0.382955 -0.823645 0.509503 0
M  V30 33 C 0.760122 -0.241142 0.959313 0
M  V30 34 H 2.649848 0.830246 2.566867 0
M  V30 35 H 5.144337 1.793749 1.196419 0
M  V30 36 H 6.462090 1.193013 3.123737 0
M  V30 37 H 5.593747 -0.194472 2.434107 0
M  V30 38 H 5.285044 0.803292 5.001383 0
M  V30 39 H 2.871081 2.515484 4.130121 0
M  V30 40 H 2.778066 4.790161 5.048804 0
M  V30 41 H 4.252743 6.597569 4.292425 0
M  V30 42 H 5.902261 6.111179 2.533422 0
M  V30 43 H 6.039006 3.838130 1.572479 0
M  V30 44 H 2.358583 0.085734 -2.032036 0
M  V30 45 H 0.333136 -0.946641 -2.825418 0
M  V30 46 H -4.637295 -2.866715 -0.219938 0
M  V30 47 H -3.981604 -1.947055 -2.819393 0
M  V30 48 H -3.122018 -3.671668 -4.002441 0
M  V30 49 H -2.156552 -3.627475 -2.530184 0
M  V30 50 H -2.690405 -5.722640 -1.816328 0
M  V30 51 H -3.119747 -5.883230 -3.533123 0
M  V30 52 H -4.978235 -5.738805 -1.147050 0
M  V30 53 H -4.559934 -7.054499 -3.602632 0
M  V30 54 H -5.823707 -4.951497 -3.944764 0
M  V30 55 H -6.818474 -5.081193 -2.476516 0
M  V30 56 H -6.186016 -3.069279 -1.620787 0
M  V30 57 H -6.002221 -2.713316 -3.366792 0
M  V30 58 H -3.158131 -1.617939 4.010858 0
M  V30 59 H -0.790336 -0.622976 3.376437 0
M  V30 60 H 0.879979 -0.044555 2.010625 0
M  V30 END ATOM
M  V30 BEGIN BOND
M  V30 1 2 1 2
M  V30 2 1 2 3
M  V30 3 1 3 4
M  V30 4 1 4 5
M  V30 5 1 5 6
M  V30 6 1 4 7
M  V30 7 2 7 8
M  V30 8 1 8 9
M  V30 9 2 9 10
M  V30 10 1 10 11
M  V30 11 2 11 12
M  V30 12 1 2 13
M  V30 13 2 13 14
M  V30 14 1 14 15
M  V30 15 2 15 16
M  V30 16 1 16 17
M  V30 17 2 17 18
M  V30 18 1 18 19
M  V30 19 1 19 20
M  V30 20 1 20 21
M  V30 21 1 21 22
M  V30 22 1 22 23
M  V30 23 1 23 24
M  V30 24 1 23 25
M  V30 25 1 25 26
M  V30 26 1 18 27
M  V30 27 2 27 28
M  V30 28 1 28 29
M  V30 29 2 29 30
M  V30 30 1 30 31
M  V30 31 1 31 32
M  V30 32 2 32 33
M  V30 33 1 12 7
M  V30 34 1 33 13
M  V30 35 1 32 16
M  V30 36 1 26 20
M  V30 37 1 31 27
M  V30 38 1 3 34
M  V30 39 1 4 35 CFG=3
M  V30 40 1 5 36
M  V30 41 1 5 37
M  V30 42 1 6 38
M  V30 43 1 8 39
M  V30 44 1 9 40
M  V30 45 1 10 41
M  V30 46 1 11 42
M  V30 47 1 12 43
M  V30 48 1 14 44
M  V30 49 1 15 45
M  V30 50 1 19 46
M  V30 51 1 20 47 CFG=3
M  V30 52 1 21 48
M  V30 53 1 21 49
M  V30 54 1 22 50
M  V30 55 1 22 51
M  V30 56 1 23 52 CFG=1
M  V30 57 1 24 53
M  V30 58 1 25 54
M  V30 59 1 25 55
M  V30 60 1 26 56
M  V30 61 1 26 57
M  V30 62 1 29 58
M  V30 63 1 30 59
M  V30 64 1 33 60
M  V30 END BOND
M  V30 END CTAB
M  END
>  <Dataset>  (894) 
ChEMBL_Kinases

>  <Ligand_Instance>  (894) 
nan

>  <PDB_ID>  (894) 
nan

>  <Standardized_SMILES>  (894) 
O=C(N[C@H](CO)c1ccccc1)c1ccc2nc(N[C@H]3CC[C@H](O)CC3)c3nccn3c2c1

>  <Name>  (894) 
nan

>  <Pocket>  (894) 
nan

>  <ATP_Site>  (894) 
nan

>  <Peripheral>  (894) 
nan

>  <Num_H_Atoms_ProtBoundConf>  (894) 
nan

>  <Num_Resolved_Atoms>  (894) 
nan

>  <Num_Not_Resolved_Atoms>  (894) 
nan

$$$$
CHEMBL2420562
     RDKit          3D

  0  0  0  0  0  0  0  0  0  0999 V3000
M  V30 BEGIN CTAB
M  V30 COUNTS 62 66 0 0 0
M  V30 BEGIN ATOM
M  V30 1 C 4.835999 -2.500133 3.992863 0
M  V30 2 C 3.750138 -2.397377 5.009502 0
M  V30 3 C 3.087454 -1.059922 4.888652 0 CFG=1
M  V30 4 N 2.489213 -0.786271 3.626177 0
M  V30 5 C 2.811738 0.210201 2.670594 0
M  V30 6 O 3.739905 0.999231 2.893600 0
M  V30 7 C 2.081249 0.346524 1.411796 0
M  V30 8 C 2.457767 1.343647 0.536995 0
M  V30 9 C 1.831344 1.566915 -0.694189 0
M  V30 10 C 0.786134 0.718773 -1.006074 0
M  V30 11 N 0.163451 0.898023 -2.168584 0
M  V30 12 C -0.878339 0.110733 -2.562001 0
M  V30 13 N -1.502715 0.324198 -3.812876 0
M  V30 14 C -2.628440 -0.336847 -4.425152 0 CFG=1
M  V30 15 C -3.943945 -0.046677 -3.706908 0
M  V30 16 C -4.829368 -1.242477 -3.962522 0
M  V30 17 C -4.748730 -1.539319 -5.446476 0 CFG=2
M  V30 18 O -3.958350 -2.636668 -5.739811 0
M  V30 19 C -4.249769 -0.346538 -6.249250 0
M  V30 20 C -2.833785 0.044085 -5.866618 0
M  V30 21 C -1.257835 -0.886820 -1.691829 0
M  V30 22 N -2.206539 -1.836196 -1.733931 0
M  V30 23 C -2.182410 -2.593440 -0.626426 0
M  V30 24 C -1.172793 -2.115619 0.172109 0
M  V30 25 N -0.648310 -1.091430 -0.512216 0
M  V30 26 C 0.374095 -0.289010 -0.167831 0
M  V30 27 C 1.029594 -0.462045 1.033938 0
M  V30 28 C 2.181615 -0.747770 6.038933 0
M  V30 29 C 1.938991 -1.519590 7.157419 0
M  V30 30 C 1.067476 -1.066849 8.119791 0
M  V30 31 C 0.419472 0.141444 8.009589 0
M  V30 32 C 0.672040 0.910775 6.877652 0
M  V30 33 C 1.550525 0.489452 5.874328 0
M  V30 34 H 5.794408 -2.797133 4.465286 0
M  V30 35 H 4.637290 -3.322652 3.244846 0
M  V30 36 H 5.036209 -1.535875 3.463623 0
M  V30 37 H 3.043901 -3.246224 4.999212 0
M  V30 38 H 4.213726 -2.418243 6.018343 0
M  V30 39 H 3.915286 -0.297322 5.000841 0
M  V30 40 H 1.711357 -1.463183 3.461484 0
M  V30 41 H 3.285135 2.023103 0.772519 0
M  V30 42 H 2.182032 2.372033 -1.332833 0
M  V30 43 H -1.093308 1.090973 -4.416022 0
M  V30 44 H -2.451089 -1.442392 -4.414583 0
M  V30 45 H -3.810334 0.198395 -2.640317 0
M  V30 46 H -4.470852 0.815280 -4.224125 0
M  V30 47 H -4.460570 -2.089524 -3.360493 0
M  V30 48 H -5.881185 -1.046021 -3.632603 0
M  V30 49 H -5.799229 -1.701554 -5.786601 0
M  V30 50 H -3.915707 -3.294740 -4.998647 0
M  V30 51 H -4.931243 0.516163 -6.188037 0
M  V30 52 H -4.215986 -0.664881 -7.296558 0
M  V30 53 H -2.775423 1.162578 -5.998406 0
M  V30 54 H -2.086705 -0.394936 -6.560073 0
M  V30 55 H -2.843448 -3.429100 -0.409037 0
M  V30 56 H -0.858412 -2.478097 1.145113 0
M  V30 57 H 0.715904 -1.246913 1.697289 0
M  V30 58 H 2.500429 -2.432056 7.125410 0
M  V30 59 H 0.946803 -1.751715 8.961050 0
M  V30 60 H -0.245432 0.434974 8.792754 0
M  V30 61 H 0.145780 1.855548 6.823145 0
M  V30 62 H 1.682614 1.158268 5.029884 0
M  V30 END ATOM
M  V30 BEGIN BOND
M  V30 1 1 1 2
M  V30 2 1 2 3
M  V30 3 1 3 4
M  V30 4 1 4 5
M  V30 5 2 5 6
M  V30 6 1 5 7
M  V30 7 2 7 8
M  V30 8 1 8 9
M  V30 9 2 9 10
M  V30 10 1 10 11
M  V30 11 2 11 12
M  V30 12 1 12 13
M  V30 13 1 13 14
M  V30 14 1 14 15
M  V30 15 1 15 16
M  V30 16 1 16 17
M  V30 17 1 17 18
M  V30 18 1 17 19
M  V30 19 1 19 20
M  V30 20 1 12 21
M  V30 21 2 21 22
M  V30 22 1 22 23
M  V30 23 2 23 24
M  V30 24 1 24 25
M  V30 25 1 25 26
M  V30 26 2 26 27
M  V30 27 1 3 28
M  V30 28 2 28 29
M  V30 29 1 29 30
M  V30 30 2 30 31
M  V30 31 1 31 32
M  V30 32 2 32 33
M  V30 33 1 27 7
M  V30 34 1 33 28
M  V30 35 1 26 10
M  V30 36 1 20 14
M  V30 37 1 25 21
M  V30 38 1 1 34
M  V30 39 1 1 35
M  V30 40 1 1 36
M  V30 41 1 2 37
M  V30 42 1 2 38
M  V30 43 1 3 39 CFG=1
M  V30 44 1 4 40
M  V30 45 1 8 41
M  V30 46 1 9 42
M  V30 47 1 13 43
M  V30 48 1 14 44 CFG=3
M  V30 49 1 15 45
M  V30 50 1 15 46
M  V30 51 1 16 47
M  V30 52 1 16 48
M  V30 53 1 17 49 CFG=3
M  V30 54 1 18 50
M  V30 55 1 19 51
M  V30 56 1 19 52
M  V30 57 1 20 53
M  V30 58 1 20 54
M  V30 59 1 23 55
M  V30 60 1 24 56
M  V30 61 1 27 57
M  V30 62 1 29 58
M  V30 63 1 30 59
M  V30 64 1 31 60
M  V30 65 1 32 61
M  V30 66 1 33 62
M  V30 END BOND
M  V30 END CTAB
M  END
>  <Dataset>  (895) 
ChEMBL_Kinases

>  <Ligand_Instance>  (895) 
nan

>  <PDB_ID>  (895) 
nan

>  <Standardized_SMILES>  (895) 
CC[C@@H](NC(=O)c1ccc2nc(N[C@H]3CC[C@H](O)CC3)c3nccn3c2c1)c1ccccc1

>  <Name>  (895) 
nan

>  <Pocket>  (895) 
nan

>  <ATP_Site>  (895) 
nan

>  <Peripheral>  (895) 
nan

>  <Num_H_Atoms_ProtBoundConf>  (895) 
nan

>  <Num_Resolved_Atoms>  (895) 
nan

>  <Num_Not_Resolved_Atoms>  (895) 
nan

$$$$
CHEMBL4747400
     RDKit          3D

  0  0  0  0  0  0  0  0  0  0999 V3000
M  V30 BEGIN CTAB
M  V30 COUNTS 47 52 0 0 0
M  V30 BEGIN ATOM
M  V30 1 O 2.698515 -2.688155 3.785311 0
M  V30 2 C 3.497362 -1.806350 3.081401 0
M  V30 3 C 4.860458 -1.926015 2.897482 0
M  V30 4 N 5.596681 -1.047353 2.207075 0
M  V30 5 C 5.024846 0.029868 1.640914 0
M  V30 6 C 3.661622 0.236174 1.770688 0
M  V30 7 C 2.908182 1.355588 1.214239 0
M  V30 8 C 3.550447 2.582923 1.100944 0
M  V30 9 C 2.897055 3.682144 0.582554 0
M  V30 10 C 1.586584 3.494145 0.188578 0
M  V30 11 N 0.677217 4.327946 -0.345301 0
M  V30 12 N -0.462418 3.682148 -0.557828 0
M  V30 13 C -0.351318 2.403664 -0.175028 0
M  V30 14 C -1.429778 1.426377 -0.278586 0
M  V30 15 N -1.448146 0.127215 0.064001 0
M  V30 16 C -2.675116 -0.393183 -0.214456 0
M  V30 17 C -3.201118 -1.656905 -0.055314 0
M  V30 18 C -2.430946 -2.760407 0.503708 0
M  V30 19 C -2.557164 -3.943574 -0.205294 0
M  V30 20 C -1.904848 -5.098053 0.169603 0
M  V30 21 C -1.079658 -5.117074 1.296208 0
M  V30 22 C -0.973927 -3.929494 1.978990 0
M  V30 23 F -0.181627 -3.892528 3.085867 0
M  V30 24 C -1.621518 -2.768969 1.613310 0
M  V30 25 C -4.506120 -1.874567 -0.442175 0
M  V30 26 C -5.234090 -0.826400 -0.971337 0
M  V30 27 N -4.692862 0.396658 -1.114583 0
M  V30 28 C -3.424659 0.631169 -0.744831 0
M  V30 29 N -2.635784 1.723285 -0.769165 0
M  V30 30 C 0.938568 2.274133 0.298013 0
M  V30 31 C 1.593501 1.179543 0.815740 0
M  V30 32 C 2.907494 -0.690500 2.494424 0
M  V30 33 H 1.949048 -2.339116 4.401978 0
M  V30 34 H 5.308307 -2.800222 3.360183 0
M  V30 35 H 5.500185 0.808377 1.062951 0
M  V30 36 H 4.576985 2.688585 1.421079 0
M  V30 37 H 3.348328 4.657135 0.472577 0
M  V30 38 H 0.892124 5.348479 -0.547907 0
M  V30 39 H -3.170152 -4.049225 -1.096831 0
M  V30 40 H -1.994239 -6.039252 -0.379730 0
M  V30 41 H -0.553243 -6.003139 1.619186 0
M  V30 42 H -1.562117 -1.819994 2.124448 0
M  V30 43 H -4.932555 -2.843413 -0.327930 0
M  V30 44 H -6.263978 -1.005375 -1.274808 0
M  V30 45 H -3.006413 2.635010 -1.140141 0
M  V30 46 H 1.080066 0.245553 0.893491 0
M  V30 47 H 1.830307 -0.561128 2.617899 0
M  V30 END ATOM
M  V30 BEGIN BOND
M  V30 1 1 1 2
M  V30 2 2 2 3
M  V30 3 1 3 4
M  V30 4 2 4 5
M  V30 5 1 5 6
M  V30 6 1 6 7
M  V30 7 2 7 8
M  V30 8 1 8 9
M  V30 9 2 9 10
M  V30 10 1 10 11
M  V30 11 1 11 12
M  V30 12 2 12 13
M  V30 13 1 13 14
M  V30 14 2 14 15
M  V30 15 1 15 16
M  V30 16 2 16 17
M  V30 17 1 17 18
M  V30 18 2 18 19
M  V30 19 1 19 20
M  V30 20 2 20 21
M  V30 21 1 21 22
M  V30 22 1 22 23
M  V30 23 2 22 24
M  V30 24 1 17 25
M  V30 25 2 25 26
M  V30 26 1 26 27
M  V30 27 2 27 28
M  V30 28 1 28 29
M  V30 29 1 13 30
M  V30 30 2 30 31
M  V30 31 2 6 32
M  V30 32 1 32 2
M  V30 33 1 31 7
M  V30 34 1 30 10
M  V30 35 1 29 14
M  V30 36 1 28 16
M  V30 37 1 24 18
M  V30 38 1 1 33
M  V30 39 1 3 34
M  V30 40 1 5 35
M  V30 41 1 8 36
M  V30 42 1 9 37
M  V30 43 1 11 38
M  V30 44 1 19 39
M  V30 45 1 20 40
M  V30 46 1 21 41
M  V30 47 1 24 42
M  V30 48 1 25 43
M  V30 49 1 26 44
M  V30 50 1 29 45
M  V30 51 1 31 46
M  V30 52 1 32 47
M  V30 END BOND
M  V30 END CTAB
M  END
>  <Dataset>  (896) 
ChEMBL_Kinases

>  <Ligand_Instance>  (896) 
nan

>  <PDB_ID>  (896) 
nan

>  <Standardized_SMILES>  (896) 
Oc1cncc(-c2ccc3[nH]nc(-c4nc5c(-c6cccc(F)c6)ccnc5[nH]4)c3c2)c1

>  <Name>  (896) 
nan

>  <Pocket>  (896) 
nan

>  <ATP_Site>  (896) 
nan

>  <Peripheral>  (896) 
nan

>  <Num_H_Atoms_ProtBoundConf>  (896) 
nan

>  <Num_Resolved_Atoms>  (896) 
nan

>  <Num_Not_Resolved_Atoms>  (896) 
nan

$$$$
CHEMBL4747342
     RDKit          3D

  0  0  0  0  0  0  0  0  0  0999 V3000
M  V30 BEGIN CTAB
M  V30 COUNTS 56 61 0 0 0
M  V30 BEGIN ATOM
M  V30 1 C 2.049313 -3.527596 3.546504 0
M  V30 2 C 3.382196 -3.196063 2.883148 0
M  V30 3 C 3.147413 -1.949258 2.110395 0
M  V30 4 O 1.990306 -1.469524 2.162436 0
M  V30 5 N 4.111404 -1.291402 1.346335 0
M  V30 6 C 4.028270 -0.113626 0.570787 0
M  V30 7 C 5.137582 0.344923 -0.102753 0
M  V30 8 N 5.119877 1.457561 -0.855449 0
M  V30 9 C 4.022417 2.219229 -1.017572 0
M  V30 10 C 2.874159 1.814765 -0.368204 0
M  V30 11 C 1.657937 2.603444 -0.510263 0
M  V30 12 C 1.727640 3.984132 -0.679807 0
M  V30 13 N 0.585328 4.691434 -0.809151 0
M  V30 14 C -0.620596 4.084219 -0.777020 0
M  V30 15 N -1.888223 4.497976 -0.874114 0
M  V30 16 N -2.708472 3.470627 -0.775587 0
M  V30 17 C -2.056837 2.318710 -0.608682 0
M  V30 18 C -2.684957 1.024635 -0.470061 0
M  V30 19 C -2.271804 -0.267387 -0.294785 0
M  V30 20 C -3.329545 -1.145196 -0.223675 0
M  V30 21 C -3.384266 -2.510556 -0.054453 0
M  V30 22 C -2.174551 -3.311912 0.079764 0
M  V30 23 C -2.248958 -4.212246 1.143623 0
M  V30 24 C -1.210008 -5.068611 1.442736 0
M  V30 25 C -0.066850 -5.013690 0.646508 0
M  V30 26 N -0.011962 -4.140258 -0.374611 0
M  V30 27 C -1.018259 -3.305873 -0.670055 0
M  V30 28 C -4.607202 -3.154262 -0.015893 0
M  V30 29 C -5.731997 -2.391440 -0.150555 0
M  V30 30 C -5.659302 -1.024685 -0.319688 0
M  V30 31 C -4.447216 -0.358816 -0.361199 0
M  V30 32 N -4.026547 0.893886 -0.501811 0
M  V30 33 C -0.745266 2.711453 -0.610498 0
M  V30 34 C 0.426421 2.011503 -0.480996 0
M  V30 35 C 2.915442 0.675547 0.394961 0
M  V30 36 H 1.817998 -2.797285 4.354315 0
M  V30 37 H 2.015895 -4.551764 3.927256 0
M  V30 38 H 1.226545 -3.383924 2.801180 0
M  V30 39 H 4.100443 -3.002208 3.716704 0
M  V30 40 H 3.676286 -4.041448 2.257725 0
M  V30 41 H 5.037033 -1.788408 1.382051 0
M  V30 42 H 6.075392 -0.215908 -0.025473 0
M  V30 43 H 4.081741 3.096350 -1.634750 0
M  V30 44 H 2.688697 4.473288 -0.706117 0
M  V30 45 H -2.222282 5.476586 -1.007942 0
M  V30 46 H -1.259746 -0.573677 -0.218629 0
M  V30 47 H -3.089506 -4.351416 1.840599 0
M  V30 48 H -1.207844 -5.786306 2.251562 0
M  V30 49 H 0.829562 -5.635044 0.771861 0
M  V30 50 H -1.042226 -2.586520 -1.472027 0
M  V30 51 H -4.715641 -4.223896 0.114611 0
M  V30 52 H -6.740058 -2.831377 -0.130178 0
M  V30 53 H -6.553252 -0.435273 -0.424708 0
M  V30 54 H -4.777018 1.626725 -0.619782 0
M  V30 55 H 0.400660 0.966154 -0.351778 0
M  V30 56 H 1.997938 0.407844 0.876049 0
M  V30 END ATOM
M  V30 BEGIN BOND
M  V30 1 1 1 2
M  V30 2 1 2 3
M  V30 3 2 3 4
M  V30 4 1 3 5
M  V30 5 1 5 6
M  V30 6 2 6 7
M  V30 7 1 7 8
M  V30 8 2 8 9
M  V30 9 1 9 10
M  V30 10 1 10 11
M  V30 11 2 11 12
M  V30 12 1 12 13
M  V30 13 2 13 14
M  V30 14 1 14 15
M  V30 15 1 15 16
M  V30 16 2 16 17
M  V30 17 1 17 18
M  V30 18 2 18 19
M  V30 19 1 19 20
M  V30 20 2 20 21
M  V30 21 1 21 22
M  V30 22 2 22 23
M  V30 23 1 23 24
M  V30 24 2 24 25
M  V30 25 1 25 26
M  V30 26 2 26 27
M  V30 27 1 21 28
M  V30 28 2 28 29
M  V30 29 1 29 30
M  V30 30 2 30 31
M  V30 31 1 31 32
M  V30 32 1 17 33
M  V30 33 2 33 34
M  V30 34 2 10 35
M  V30 35 1 35 6
M  V30 36 1 34 11
M  V30 37 1 33 14
M  V30 38 1 32 18
M  V30 39 1 31 20
M  V30 40 1 27 22
M  V30 41 1 1 36
M  V30 42 1 1 37
M  V30 43 1 1 38
M  V30 44 1 2 39
M  V30 45 1 2 40
M  V30 46 1 5 41
M  V30 47 1 7 42
M  V30 48 1 9 43
M  V30 49 1 12 44
M  V30 50 1 15 45
M  V30 51 1 19 46
M  V30 52 1 23 47
M  V30 53 1 24 48
M  V30 54 1 25 49
M  V30 55 1 27 50
M  V30 56 1 28 51
M  V30 57 1 29 52
M  V30 58 1 30 53
M  V30 59 1 32 54
M  V30 60 1 34 55
M  V30 61 1 35 56
M  V30 END BOND
M  V30 END CTAB
M  END
>  <Dataset>  (897) 
ChEMBL_Kinases

>  <Ligand_Instance>  (897) 
nan

>  <PDB_ID>  (897) 
nan

>  <Standardized_SMILES>  (897) 
CCC(=O)Nc1cncc(-c2cnc3[nH]nc(-c4cc5c(-c6cccnc6)cccc5[nH]4)c3c2)c1

>  <Name>  (897) 
nan

>  <Pocket>  (897) 
nan

>  <ATP_Site>  (897) 
nan

>  <Peripheral>  (897) 
nan

>  <Num_H_Atoms_ProtBoundConf>  (897) 
nan

>  <Num_Resolved_Atoms>  (897) 
nan

>  <Num_Not_Resolved_Atoms>  (897) 
nan

$$$$
CHEMBL4453481
     RDKit          3D

  0  0  0  0  0  0  0  0  0  0999 V3000
M  V30 BEGIN CTAB
M  V30 COUNTS 64 68 0 0 0
M  V30 BEGIN ATOM
M  V30 1 C 6.894513 -0.976688 3.607178 0
M  V30 2 C 6.976892 0.389315 2.971855 0
M  V30 3 N 6.241108 0.458739 1.729459 0
M  V30 4 C 4.961876 0.798467 1.577554 0
M  V30 5 C 4.625364 0.743704 0.220904 0
M  V30 6 C 3.303405 1.055228 -0.300372 0
M  V30 7 C 2.897328 0.376136 -1.441154 0
M  V30 8 C 1.647625 0.633405 -1.981231 0
M  V30 9 C 0.800966 1.562567 -1.391696 0
M  V30 10 N -0.438070 2.059255 -1.620851 0
M  V30 11 C -0.738249 2.978359 -0.665276 0
M  V30 12 N -2.037479 3.534543 -0.858917 0
M  V30 13 C -3.132838 2.883895 -0.219379 0
M  V30 14 C -2.927926 1.760779 0.555970 0
M  V30 15 C -3.932582 1.051741 1.222847 0
M  V30 16 C -3.554894 -0.142530 2.020888 0
M  V30 17 N -3.598185 -1.376655 1.255427 0
M  V30 18 C -2.724574 -1.364407 0.119484 0
M  V30 19 C -3.102092 -2.597535 -0.713573 0
M  V30 20 N -2.896900 -3.761041 0.114905 0
M  V30 21 C -2.575886 -5.076294 -0.384989 0
M  V30 22 O -2.382565 -6.137519 0.262095 0
M  V30 23 C -2.463446 -5.168557 -1.860794 0
M  V30 24 C -2.125331 -6.586574 -2.297648 0
M  V30 25 F -3.118404 -7.472423 -1.881268 0
M  V30 26 F -2.085452 -6.630832 -3.677155 0
M  V30 27 F -0.878507 -6.970216 -1.841470 0
M  V30 28 C -2.987055 -3.755418 1.551789 0
M  V30 29 C -3.100289 -2.404507 2.171021 0
M  V30 30 C -5.210340 1.538605 1.072850 0
M  V30 31 C -5.395915 2.651973 0.301527 0
M  V30 32 N -4.398654 3.312317 -0.329258 0
M  V30 33 N 0.314058 3.061687 0.168683 0
M  V30 34 C 1.264199 2.202750 -0.260610 0
M  V30 35 C 2.492884 2.002816 0.337414 0
M  V30 36 C 5.781880 0.353119 -0.403974 0
M  V30 37 N 6.716962 0.196401 0.544092 0
M  V30 38 H 6.855832 -1.770166 2.822296 0
M  V30 39 H 7.852169 -1.149284 4.155565 0
M  V30 40 H 6.089234 -1.075124 4.357974 0
M  V30 41 H 6.626871 1.172941 3.668891 0
M  V30 42 H 8.033218 0.604775 2.748281 0
M  V30 43 H 4.316185 1.068079 2.398794 0
M  V30 44 H 3.562131 -0.348109 -1.897137 0
M  V30 45 H 1.290425 0.124866 -2.872359 0
M  V30 46 H -2.184374 4.372707 -1.436709 0
M  V30 47 H -1.911665 1.401816 0.657350 0
M  V30 48 H -2.504021 0.007511 2.377691 0
M  V30 49 H -4.187679 -0.192821 2.905487 0
M  V30 50 H -2.832278 -0.463602 -0.518924 0
M  V30 51 H -1.650341 -1.475354 0.356452 0
M  V30 52 H -2.522925 -2.642750 -1.650035 0
M  V30 53 H -4.196740 -2.490087 -0.908312 0
M  V30 54 H -3.452632 -4.933663 -2.335314 0
M  V30 55 H -1.692026 -4.499137 -2.260639 0
M  V30 56 H -3.867152 -4.363747 1.912540 0
M  V30 57 H -2.097001 -4.290879 1.995563 0
M  V30 58 H -3.761513 -2.376796 3.063746 0
M  V30 59 H -2.091326 -2.018815 2.491962 0
M  V30 60 H -5.992195 1.018922 1.568859 0
M  V30 61 H -6.401992 3.056334 0.168340 0
M  V30 62 H 0.190809 3.742390 0.944811 0
M  V30 63 H 2.810117 2.523532 1.216122 0
M  V30 64 H 5.815911 0.226475 -1.473910 0
M  V30 END ATOM
M  V30 BEGIN BOND
M  V30 1 1 1 2
M  V30 2 1 2 3
M  V30 3 1 3 4
M  V30 4 2 4 5
M  V30 5 1 5 6
M  V30 6 2 6 7
M  V30 7 1 7 8
M  V30 8 2 8 9
M  V30 9 1 9 10
M  V30 10 2 10 11
M  V30 11 1 11 12
M  V30 12 1 12 13
M  V30 13 2 13 14
M  V30 14 1 14 15
M  V30 15 1 15 16
M  V30 16 1 16 17
M  V30 17 1 17 18
M  V30 18 1 18 19
M  V30 19 1 19 20
M  V30 20 1 20 21
M  V30 21 2 21 22
M  V30 22 1 21 23
M  V30 23 1 23 24
M  V30 24 1 24 25
M  V30 25 1 24 26
M  V30 26 1 24 27
M  V30 27 1 20 28
M  V30 28 1 28 29
M  V30 29 2 15 30
M  V30 30 1 30 31
M  V30 31 2 31 32
M  V30 32 1 11 33
M  V30 33 1 33 34
M  V30 34 2 34 35
M  V30 35 1 5 36
M  V30 36 2 36 37
M  V30 37 1 37 3
M  V30 38 1 35 6
M  V30 39 1 34 9
M  V30 40 1 32 13
M  V30 41 1 29 17
M  V30 42 1 1 38
M  V30 43 1 1 39
M  V30 44 1 1 40
M  V30 45 1 2 41
M  V30 46 1 2 42
M  V30 47 1 4 43
M  V30 48 1 7 44
M  V30 49 1 8 45
M  V30 50 1 12 46
M  V30 51 1 14 47
M  V30 52 1 16 48
M  V30 53 1 16 49
M  V30 54 1 18 50
M  V30 55 1 18 51
M  V30 56 1 19 52
M  V30 57 1 19 53
M  V30 58 1 23 54
M  V30 59 1 23 55
M  V30 60 1 28 56
M  V30 61 1 28 57
M  V30 62 1 29 58
M  V30 63 1 29 59
M  V30 64 1 30 60
M  V30 65 1 31 61
M  V30 66 1 33 62
M  V30 67 1 35 63
M  V30 68 1 36 64
M  V30 END BOND
M  V30 END CTAB
M  END
>  <Dataset>  (898) 
ChEMBL_Kinases

>  <Ligand_Instance>  (898) 
nan

>  <PDB_ID>  (898) 
nan

>  <Standardized_SMILES>  (898) 
CCn1cc(-c2ccc3nc(Nc4cc(CN5CCN(C(=O)CC(F)(F)F)CC5)ccn4)[nH]c3c2)cn1

>  <Name>  (898) 
nan

>  <Pocket>  (898) 
nan

>  <ATP_Site>  (898) 
nan

>  <Peripheral>  (898) 
nan

>  <Num_H_Atoms_ProtBoundConf>  (898) 
nan

>  <Num_Resolved_Atoms>  (898) 
nan

>  <Num_Not_Resolved_Atoms>  (898) 
nan

$$$$
CHEMBL4453584
     RDKit          3D

  0  0  0  0  0  0  0  0  0  0999 V3000
M  V30 BEGIN CTAB
M  V30 COUNTS 75 78 0 0 0
M  V30 BEGIN ATOM
M  V30 1 C 3.234061 -1.560548 6.998069 0
M  V30 2 C 3.932060 -1.380235 5.677293 0
M  V30 3 C 4.335953 -2.758081 5.170077 0
M  V30 4 C 5.035976 -2.633236 3.822473 0
M  V30 5 N 4.082666 -2.027627 2.896491 0
M  V30 6 C 4.402170 -1.772118 1.542510 0
M  V30 7 O 5.577868 -2.110054 1.181656 0
M  V30 8 C 3.472518 -1.164918 0.592452 0
M  V30 9 C 2.233512 -0.671364 0.952488 0
M  V30 10 C 1.414824 -0.125593 -0.028374 0
M  V30 11 C 1.815752 -0.066908 -1.360861 0
M  V30 12 N 0.827113 0.521030 -2.229780 0
M  V30 13 C -0.413922 1.045491 -1.751873 0
M  V30 14 N -0.502713 2.390033 -1.554426 0
M  V30 15 C -1.621901 2.977130 -1.090703 0
M  V30 16 C -2.730049 2.213507 -0.797771 0
M  V30 17 C -2.645180 0.854004 -0.996287 0
M  V30 18 N -1.504217 0.315786 -1.462025 0
M  V30 19 N -3.713438 -0.079122 -0.731940 0
M  V30 20 C -3.943978 -1.319733 -1.398183 0
M  V30 21 C -3.180312 -1.555842 -2.657512 0
M  V30 22 C -2.145915 -2.620263 -2.409611 0
M  V30 23 C -2.457482 -3.233581 -1.082096 0
M  V30 24 C -3.644410 -2.510128 -0.497070 0
M  V30 25 C -4.599005 0.325653 0.343067 0 CFG=2
M  V30 26 C -5.817424 -0.504271 0.515708 0
M  V30 27 C -6.600238 0.095404 1.693665 0
M  V30 28 C -5.031239 1.724721 -0.025301 0
M  V30 29 O -6.191484 2.220038 -0.142634 0
M  V30 30 N -3.974259 2.673036 -0.291255 0
M  V30 31 C -4.074203 4.118993 -0.078427 0
M  V30 32 C 3.073914 -0.568269 -1.721553 0
M  V30 33 O 3.236681 -0.402074 -3.049833 0
M  V30 34 C 4.274861 -0.719319 -3.914711 0
M  V30 35 C 4.598579 -2.171730 -4.014843 0
M  V30 36 O 5.666338 -2.356519 -4.925530 0
M  V30 37 C 3.843206 -1.094305 -0.722767 0
M  V30 38 H 3.487254 -0.771526 7.723277 0
M  V30 39 H 3.497928 -2.550788 7.428906 0
M  V30 40 H 2.125156 -1.506721 6.828934 0
M  V30 41 H 3.330308 -0.824925 4.961192 0
M  V30 42 H 4.860436 -0.776050 5.841118 0
M  V30 43 H 3.463005 -3.405023 5.033032 0
M  V30 44 H 5.056285 -3.205369 5.882758 0
M  V30 45 H 5.894475 -1.912382 3.949558 0
M  V30 46 H 5.390697 -3.614080 3.525760 0
M  V30 47 H 3.126790 -1.761140 3.190468 0
M  V30 48 H 1.908839 -0.710795 1.979146 0
M  V30 49 H 0.445879 0.245670 0.333325 0
M  V30 50 H 1.060287 0.552438 -3.249372 0
M  V30 51 H -1.718563 4.040225 -0.926233 0
M  V30 52 H -5.031225 -1.395853 -1.638955 0
M  V30 53 H -3.858695 -1.983460 -3.471872 0
M  V30 54 H -2.750340 -0.665935 -3.142094 0
M  V30 55 H -2.170657 -3.422397 -3.204780 0
M  V30 56 H -1.100076 -2.257450 -2.435193 0
M  V30 57 H -2.648892 -4.327959 -1.204962 0
M  V30 58 H -1.583869 -3.197691 -0.380012 0
M  V30 59 H -3.360672 -2.162084 0.521417 0
M  V30 60 H -4.488162 -3.227552 -0.455149 0
M  V30 61 H -4.078463 0.419636 1.317583 0
M  V30 62 H -6.504408 -0.479624 -0.356194 0
M  V30 63 H -5.624736 -1.536299 0.799700 0
M  V30 64 H -6.281150 1.132064 1.923477 0
M  V30 65 H -7.683708 0.135034 1.455216 0
M  V30 66 H -6.419478 -0.477385 2.636138 0
M  V30 67 H -4.934240 4.322311 0.597506 0
M  V30 68 H -3.170181 4.537957 0.407860 0
M  V30 69 H -4.273900 4.599612 -1.071660 0
M  V30 70 H 5.213663 -0.160557 -3.646807 0
M  V30 71 H 3.971702 -0.328612 -4.931436 0
M  V30 72 H 3.693950 -2.699460 -4.413738 0
M  V30 73 H 4.877871 -2.608063 -3.059973 0
M  V30 74 H 6.379987 -1.713589 -4.654658 0
M  V30 75 H 4.786333 -1.452287 -1.043019 0
M  V30 END ATOM
M  V30 BEGIN BOND
M  V30 1 1 1 2
M  V30 2 1 2 3
M  V30 3 1 3 4
M  V30 4 1 4 5
M  V30 5 1 5 6
M  V30 6 2 6 7
M  V30 7 1 6 8
M  V30 8 2 8 9
M  V30 9 1 9 10
M  V30 10 2 10 11
M  V30 11 1 11 12
M  V30 12 1 12 13
M  V30 13 2 13 14
M  V30 14 1 14 15
M  V30 15 2 15 16
M  V30 16 1 16 17
M  V30 17 2 17 18
M  V30 18 1 17 19
M  V30 19 1 19 20
M  V30 20 1 20 21
M  V30 21 1 21 22
M  V30 22 1 22 23
M  V30 23 1 23 24
M  V30 24 1 19 25
M  V30 25 1 25 26
M  V30 26 1 26 27
M  V30 27 1 25 28
M  V30 28 2 28 29
M  V30 29 1 28 30
M  V30 30 1 30 31
M  V30 31 1 11 32
M  V30 32 1 32 33
M  V30 33 1 33 34
M  V30 34 1 34 35
M  V30 35 1 35 36
M  V30 36 2 32 37
M  V30 37 1 37 8
M  V30 38 1 18 13
M  V30 39 1 24 20
M  V30 40 1 30 16
M  V30 41 1 1 38
M  V30 42 1 1 39
M  V30 43 1 1 40
M  V30 44 1 2 41
M  V30 45 1 2 42
M  V30 46 1 3 43
M  V30 47 1 3 44
M  V30 48 1 4 45
M  V30 49 1 4 46
M  V30 50 1 5 47
M  V30 51 1 9 48
M  V30 52 1 10 49
M  V30 53 1 12 50
M  V30 54 1 15 51
M  V30 55 1 20 52
M  V30 56 1 21 53
M  V30 57 1 21 54
M  V30 58 1 22 55
M  V30 59 1 22 56
M  V30 60 1 23 57
M  V30 61 1 23 58
M  V30 62 1 24 59
M  V30 63 1 24 60
M  V30 64 1 25 61 CFG=1
M  V30 65 1 26 62
M  V30 66 1 26 63
M  V30 67 1 27 64
M  V30 68 1 27 65
M  V30 69 1 27 66
M  V30 70 1 31 67
M  V30 71 1 31 68
M  V30 72 1 31 69
M  V30 73 1 34 70
M  V30 74 1 34 71
M  V30 75 1 35 72
M  V30 76 1 35 73
M  V30 77 1 36 74
M  V30 78 1 37 75
M  V30 END BOND
M  V30 END CTAB
M  END
>  <Dataset>  (899) 
ChEMBL_Kinases

>  <Ligand_Instance>  (899) 
nan

>  <PDB_ID>  (899) 
nan

>  <Standardized_SMILES>  (899) 
CCCCNC(=O)c1ccc(Nc2ncc3c(n2)N(C2CCCC2)[C@H](CC)C(=O)N3C)c(OCCO)c1

>  <Name>  (899) 
nan

>  <Pocket>  (899) 
nan

>  <ATP_Site>  (899) 
nan

>  <Peripheral>  (899) 
nan

>  <Num_H_Atoms_ProtBoundConf>  (899) 
nan

>  <Num_Resolved_Atoms>  (899) 
nan

>  <Num_Not_Resolved_Atoms>  (899) 
nan

$$$$
CHEMBL197613
     RDKit          3D

  0  0  0  0  0  0  0  0  0  0999 V3000
M  V30 BEGIN CTAB
M  V30 COUNTS 40 43 0 0 0
M  V30 BEGIN ATOM
M  V30 1 O 5.222898 -5.875872 -1.935464 0
M  V30 2 C 4.338926 -5.025927 -2.213358 0
M  V30 3 O 3.952267 -5.032965 -3.544103 0
M  V30 4 C 3.820790 -4.154909 -1.186140 0
M  V30 5 C 4.330012 -4.297719 0.081101 0
M  V30 6 C 3.847328 -3.477309 1.069660 0
M  V30 7 C 2.883063 -2.557680 0.745688 0
M  V30 8 C 2.326887 -2.344664 -0.453507 0
M  V30 9 C 1.302961 -1.436964 -0.899316 0
M  V30 10 N 0.923164 -1.298917 -2.198235 0
M  V30 11 N -0.036650 -0.414828 -2.328940 0
M  V30 12 C -0.374195 0.105503 -1.138351 0
M  V30 13 C -1.300421 1.041083 -0.736822 0
M  V30 14 C -1.393429 1.347810 0.605171 0
M  V30 15 N -2.346532 2.317779 1.025878 0
M  V30 16 C -2.713855 2.751248 2.330169 0
M  V30 17 C -2.607639 4.027991 2.844261 0
M  V30 18 C -3.010730 4.307635 4.134765 0
M  V30 19 C -3.538341 3.318086 4.966535 0
M  V30 20 C -3.640160 2.028336 4.431797 0
M  V30 21 C -3.237615 1.747010 3.141467 0
M  V30 22 Cl -3.482442 0.061845 2.731969 0
M  V30 23 C -0.556811 0.707642 1.496071 0
M  V30 24 C 0.350053 -0.218943 1.037399 0
M  V30 25 C 0.471673 -0.547327 -0.277137 0
M  V30 26 C 2.860038 -3.207401 -1.408421 0
M  V30 27 H 3.670447 -5.902696 -4.010365 0
M  V30 28 H 5.088094 -5.034988 0.290977 0
M  V30 29 H 4.233791 -3.573095 2.071517 0
M  V30 30 H 2.579465 -1.961380 1.570441 0
M  V30 31 H 1.246495 -1.754043 -3.081270 0
M  V30 32 H -1.939308 1.522134 -1.464998 0
M  V30 33 H -2.910792 2.843084 0.332096 0
M  V30 34 H -2.193770 4.763043 2.165696 0
M  V30 35 H -2.903220 5.337450 4.489064 0
M  V30 36 H -3.837107 3.592375 5.965699 0
M  V30 37 H -4.058451 1.337553 5.150575 0
M  V30 38 H -0.644056 0.966768 2.557821 0
M  V30 39 H 0.941227 -0.658469 1.805290 0
M  V30 40 H 2.539423 -3.196721 -2.458850 0
M  V30 END ATOM
M  V30 BEGIN BOND
M  V30 1 2 1 2
M  V30 2 1 2 3
M  V30 3 1 2 4
M  V30 4 2 4 5
M  V30 5 1 5 6
M  V30 6 2 6 7
M  V30 7 1 7 8
M  V30 8 1 8 9
M  V30 9 1 9 10
M  V30 10 1 10 11
M  V30 11 2 11 12
M  V30 12 1 12 13
M  V30 13 2 13 14
M  V30 14 1 14 15
M  V30 15 1 15 16
M  V30 16 2 16 17
M  V30 17 1 17 18
M  V30 18 2 18 19
M  V30 19 1 19 20
M  V30 20 2 20 21
M  V30 21 1 21 22
M  V30 22 1 14 23
M  V30 23 2 23 24
M  V30 24 1 24 25
M  V30 25 2 8 26
M  V30 26 1 26 4
M  V30 27 2 25 9
M  V30 28 1 25 12
M  V30 29 1 21 16
M  V30 30 1 3 27
M  V30 31 1 5 28
M  V30 32 1 6 29
M  V30 33 1 7 30
M  V30 34 1 10 31
M  V30 35 1 13 32
M  V30 36 1 15 33
M  V30 37 1 17 34
M  V30 38 1 18 35
M  V30 39 1 19 36
M  V30 40 1 20 37
M  V30 41 1 23 38
M  V30 42 1 24 39
M  V30 43 1 26 40
M  V30 END BOND
M  V30 END CTAB
M  END
>  <Dataset>  (900) 
ChEMBL_Kinases

>  <Ligand_Instance>  (900) 
nan

>  <PDB_ID>  (900) 
nan

>  <Standardized_SMILES>  (900) 
O=C(O)c1cccc(-c2[nH]nc3cc(Nc4ccccc4Cl)ccc23)c1

>  <Name>  (900) 
nan

>  <Pocket>  (900) 
nan

>  <ATP_Site>  (900) 
nan

>  <Peripheral>  (900) 
nan

>  <Num_H_Atoms_ProtBoundConf>  (900) 
nan

>  <Num_Resolved_Atoms>  (900) 
nan

>  <Num_Not_Resolved_Atoms>  (900) 
nan

$$$$
CHEMBL2407900
     RDKit          3D

  0  0  0  0  0  0  0  0  0  0999 V3000
M  V30 BEGIN CTAB
M  V30 COUNTS 65 70 0 0 0
M  V30 BEGIN ATOM
M  V30 1 C 5.053031 -0.112123 -3.770459 0
M  V30 2 O 4.457423 0.524216 -2.663861 0
M  V30 3 C 5.187254 1.452749 -1.967730 0
M  V30 4 C 6.496446 1.723754 -2.398395 0
M  V30 5 C 7.350031 2.622945 -1.809405 0
M  V30 6 C 6.919392 3.330745 -0.707129 0
M  V30 7 C 5.649586 3.089286 -0.261670 0
M  V30 8 C 4.800377 2.193395 -0.851774 0
M  V30 9 C 5.431908 3.942064 0.865666 0
M  V30 10 C 4.365603 3.958962 1.608576 0
M  V30 11 C 3.145113 3.221374 1.605625 0
M  V30 12 C 2.809621 1.874281 1.730566 0
M  V30 13 C 1.540854 1.351395 1.686559 0
M  V30 14 C 0.483023 2.222212 1.502587 0
M  V30 15 C -0.868485 1.944424 1.422520 0
M  V30 16 C -1.457124 0.609877 1.520902 0
M  V30 17 C -2.766837 0.470579 1.425319 0
M  V30 18 C -3.472137 -0.815103 1.508346 0
M  V30 19 C -4.840426 -0.957748 1.397718 0
M  V30 20 C -5.479607 -2.173461 1.476431 0
M  V30 21 C -4.737968 -3.314320 1.674579 0
M  V30 22 N -5.320865 -4.602103 1.758087 0
M  V30 23 C -6.705713 -4.978250 1.616911 0
M  V30 24 C -6.899806 -5.887355 0.452340 0
M  V30 25 N -5.907667 -6.869095 0.215343 0
M  V30 26 C -5.681193 -6.940155 -1.239055 0
M  V30 27 C -4.637329 -6.710272 0.825921 0
M  V30 28 C -4.568880 -5.811130 2.011977 0
M  V30 29 N -3.411432 -3.211932 1.786320 0
M  V30 30 C -2.782286 -2.000401 1.707108 0
M  V30 31 N -1.427994 3.144023 1.241073 0
M  V30 32 N -0.501924 4.100316 1.209336 0
M  V30 33 C 0.715288 3.573808 1.369102 0
M  V30 34 C 2.012046 4.038919 1.421855 0
M  V30 35 C 6.643765 4.720162 1.076506 0
M  V30 36 O 6.834445 5.580285 1.970468 0
M  V30 37 N 7.560988 4.316334 0.076829 0
M  V30 38 H 5.215639 0.538002 -4.643345 0
M  V30 39 H 6.031069 -0.593478 -3.528247 0
M  V30 40 H 4.333191 -0.900654 -4.139895 0
M  V30 41 H 6.928731 1.218332 -3.256354 0
M  V30 42 H 8.336289 2.808920 -2.156317 0
M  V30 43 H 3.799461 1.918154 -0.649756 0
M  V30 44 H 4.373513 4.691312 2.437450 0
M  V30 45 H 3.723168 1.295858 1.870392 0
M  V30 46 H 1.481837 0.278645 1.804529 0
M  V30 47 H -0.842307 -0.244907 1.667627 0
M  V30 48 H -3.436966 1.331396 1.269687 0
M  V30 49 H -5.423423 -0.052567 1.240234 0
M  V30 50 H -6.556439 -2.222982 1.381813 0
M  V30 51 H -7.018466 -5.529179 2.544761 0
M  V30 52 H -7.363492 -4.095132 1.446569 0
M  V30 53 H -7.863719 -6.448684 0.658624 0
M  V30 54 H -7.160814 -5.315690 -0.489871 0
M  V30 55 H -6.617879 -7.000966 -1.809984 0
M  V30 56 H -4.990065 -7.746568 -1.495811 0
M  V30 57 H -5.187108 -5.984794 -1.580344 0
M  V30 58 H -3.827562 -6.461972 0.084220 0
M  V30 59 H -4.328790 -7.734613 1.195405 0
M  V30 60 H -4.943144 -6.331871 2.915081 0
M  V30 61 H -3.518746 -5.538509 2.203205 0
M  V30 62 H -1.728077 -2.045100 1.810429 0
M  V30 63 H -0.675748 5.129499 1.079612 0
M  V30 64 H 2.055908 5.125683 1.303244 0
M  V30 65 H 8.534353 4.681397 -0.053258 0
M  V30 END ATOM
M  V30 BEGIN BOND
M  V30 1 1 1 2
M  V30 2 1 2 3
M  V30 3 2 3 4
M  V30 4 1 4 5
M  V30 5 2 5 6
M  V30 6 1 6 7
M  V30 7 2 7 8
M  V30 8 1 7 9
M  V30 9 2 9 10
M  V30 10 1 10 11
M  V30 11 2 11 12
M  V30 12 1 12 13
M  V30 13 2 13 14
M  V30 14 1 14 15
M  V30 15 1 15 16
M  V30 16 2 16 17
M  V30 17 1 17 18
M  V30 18 2 18 19
M  V30 19 1 19 20
M  V30 20 2 20 21
M  V30 21 1 21 22
M  V30 22 1 22 23
M  V30 23 1 23 24
M  V30 24 1 24 25
M  V30 25 1 25 26
M  V30 26 1 25 27
M  V30 27 1 27 28
M  V30 28 1 21 29
M  V30 29 2 29 30
M  V30 30 2 15 31
M  V30 31 1 31 32
M  V30 32 1 32 33
M  V30 33 2 33 34
M  V30 34 1 9 35
M  V30 35 2 35 36
M  V30 36 1 35 37
M  V30 37 1 8 3
M  V30 38 1 34 11
M  V30 39 1 37 6
M  V30 40 1 33 14
M  V30 41 1 30 18
M  V30 42 1 28 22
M  V30 43 1 1 38
M  V30 44 1 1 39
M  V30 45 1 1 40
M  V30 46 1 4 41
M  V30 47 1 5 42
M  V30 48 1 8 43
M  V30 49 1 10 44
M  V30 50 1 12 45
M  V30 51 1 13 46
M  V30 52 1 16 47
M  V30 53 1 17 48
M  V30 54 1 19 49
M  V30 55 1 20 50
M  V30 56 1 23 51
M  V30 57 1 23 52
M  V30 58 1 24 53
M  V30 59 1 24 54
M  V30 60 1 26 55
M  V30 61 1 26 56
M  V30 62 1 26 57
M  V30 63 1 27 58
M  V30 64 1 27 59
M  V30 65 1 28 60
M  V30 66 1 28 61
M  V30 67 1 30 62
M  V30 68 1 32 63
M  V30 69 1 34 64
M  V30 70 1 37 65
M  V30 END BOND
M  V30 END CTAB
M  END
>  <Dataset>  (901) 
ChEMBL_Kinases

>  <Ligand_Instance>  (901) 
nan

>  <PDB_ID>  (901) 
nan

>  <Standardized_SMILES>  (901) 
COc1ccc2c(c1)/C(=C\c1ccc3c(/C=C/c4ccc(N5CCN(C)CC5)nc4)n[nH]c3c1)C(=O)N2

>  <Name>  (901) 
nan

>  <Pocket>  (901) 
nan

>  <ATP_Site>  (901) 
nan

>  <Peripheral>  (901) 
nan

>  <Num_H_Atoms_ProtBoundConf>  (901) 
nan

>  <Num_Resolved_Atoms>  (901) 
nan

>  <Num_Not_Resolved_Atoms>  (901) 
nan

$$$$
CHEMBL197698
     RDKit          3D

  0  0  0  0  0  0  0  0  0  0999 V3000
M  V30 BEGIN CTAB
M  V30 COUNTS 40 43 0 0 0
M  V30 BEGIN ATOM
M  V30 1 O 2.807078 -5.378525 6.297007 0
M  V30 2 C 3.189037 -5.407002 5.104012 0
M  V30 3 O 4.135832 -6.368894 4.748316 0
M  V30 4 C 2.679842 -4.483264 4.109073 0
M  V30 5 C 1.760462 -3.542168 4.433811 0
M  V30 6 C 1.307997 -2.693270 3.468687 0
M  V30 7 C 1.675863 -2.664016 2.157215 0
M  V30 8 C 1.298343 -1.820256 1.060509 0
M  V30 9 N 1.718614 -2.001993 -0.213636 0
M  V30 10 N 1.238342 -1.087828 -1.021079 0
M  V30 11 C 0.458920 -0.219218 -0.359074 0
M  V30 12 C -0.273498 0.901573 -0.688445 0
M  V30 13 C -0.985472 1.595255 0.265877 0
M  V30 14 N -1.752698 2.750202 -0.044679 0
M  V30 15 C -1.958508 3.222548 -1.368685 0
M  V30 16 C -1.590022 4.442741 -1.894960 0
M  V30 17 C -1.864982 4.765544 -3.207534 0
M  V30 18 C -2.520741 3.877071 -4.044960 0
M  V30 19 C -2.892560 2.645382 -3.512900 0
M  V30 20 C -2.621031 2.312000 -2.196130 0
M  V30 21 Cl -3.201681 0.710526 -1.782621 0
M  V30 22 C -0.927634 1.114791 1.556083 0
M  V30 23 C -0.191269 -0.004124 1.861094 0
M  V30 24 C 0.520049 -0.703541 0.924000 0
M  V30 25 C 2.620824 -3.656676 1.895817 0
M  V30 26 C 3.120095 -4.544728 2.818196 0
M  V30 27 H 4.166449 -7.275802 5.205979 0
M  V30 28 H 1.402423 -3.477575 5.440827 0
M  V30 29 H 0.580643 -1.988306 3.793679 0
M  V30 30 H 2.342374 -2.720717 -0.666626 0
M  V30 31 H -0.264465 1.215944 -1.722292 0
M  V30 32 H -2.192804 3.287695 0.732873 0
M  V30 33 H -1.081284 5.101785 -1.203475 0
M  V30 34 H -1.562704 5.729223 -3.587698 0
M  V30 35 H -2.712792 4.178465 -5.067041 0
M  V30 36 H -3.397489 2.022070 -4.241829 0
M  V30 37 H -1.493465 1.674780 2.288686 0
M  V30 38 H -0.224393 -0.265525 2.888555 0
M  V30 39 H 3.045500 -3.803340 0.906192 0
M  V30 40 H 3.844284 -5.289271 2.573004 0
M  V30 END ATOM
M  V30 BEGIN BOND
M  V30 1 2 1 2
M  V30 2 1 2 3
M  V30 3 1 2 4
M  V30 4 2 4 5
M  V30 5 1 5 6
M  V30 6 2 6 7
M  V30 7 1 7 8
M  V30 8 1 8 9
M  V30 9 1 9 10
M  V30 10 2 10 11
M  V30 11 1 11 12
M  V30 12 2 12 13
M  V30 13 1 13 14
M  V30 14 1 14 15
M  V30 15 2 15 16
M  V30 16 1 16 17
M  V30 17 2 17 18
M  V30 18 1 18 19
M  V30 19 2 19 20
M  V30 20 1 20 21
M  V30 21 1 13 22
M  V30 22 2 22 23
M  V30 23 1 23 24
M  V30 24 1 7 25
M  V30 25 2 25 26
M  V30 26 1 26 4
M  V30 27 2 24 8
M  V30 28 1 24 11
M  V30 29 1 20 15
M  V30 30 1 3 27
M  V30 31 1 5 28
M  V30 32 1 6 29
M  V30 33 1 9 30
M  V30 34 1 12 31
M  V30 35 1 14 32
M  V30 36 1 16 33
M  V30 37 1 17 34
M  V30 38 1 18 35
M  V30 39 1 19 36
M  V30 40 1 22 37
M  V30 41 1 23 38
M  V30 42 1 25 39
M  V30 43 1 26 40
M  V30 END BOND
M  V30 END CTAB
M  END
>  <Dataset>  (902) 
ChEMBL_Kinases

>  <Ligand_Instance>  (902) 
nan

>  <PDB_ID>  (902) 
nan

>  <Standardized_SMILES>  (902) 
O=C(O)c1ccc(-c2[nH]nc3cc(Nc4ccccc4Cl)ccc23)cc1

>  <Name>  (902) 
nan

>  <Pocket>  (902) 
nan

>  <ATP_Site>  (902) 
nan

>  <Peripheral>  (902) 
nan

>  <Num_H_Atoms_ProtBoundConf>  (902) 
nan

>  <Num_Resolved_Atoms>  (902) 
nan

>  <Num_Not_Resolved_Atoms>  (902) 
nan

$$$$
CHEMBL4747048
     RDKit          3D

  0  0  0  0  0  0  0  0  0  0999 V3000
M  V30 BEGIN CTAB
M  V30 COUNTS 58 61 0 0 0
M  V30 BEGIN ATOM
M  V30 1 C 4.430508 -2.774991 0.737927 0
M  V30 2 O 4.347010 -2.313705 2.052987 0
M  V30 3 C 3.857046 -1.086597 2.462168 0
M  V30 4 C 3.893112 -0.896315 3.834557 0
M  V30 5 N 3.473016 0.210790 4.462489 0
M  V30 6 C 2.976036 1.221634 3.712116 0
M  V30 7 C 2.920308 1.079736 2.351745 0
M  V30 8 C 2.381082 2.177973 1.569742 0
M  V30 9 O 1.959780 3.201739 2.197757 0
M  V30 10 N 2.261737 2.256378 0.162520 0
M  V30 11 C 1.696132 3.431623 -0.453400 0
M  V30 12 C 2.429000 4.560400 -0.841290 0
M  V30 13 N 1.581284 5.478860 -1.391079 0
M  V30 14 N 0.352052 4.951868 -1.353846 0
M  V30 15 C 0.397758 3.736567 -0.800981 0
M  V30 16 C -0.678562 2.764661 -0.541175 0
M  V30 17 O -0.404975 1.668738 0.007328 0
M  V30 18 N -2.066220 2.935240 -0.858589 0
M  V30 19 C -2.694595 1.729932 -0.416691 0
M  V30 20 C -3.276351 1.381898 0.780050 0
M  V30 21 C -3.798011 0.115667 0.913336 0
M  V30 22 C -3.743068 -0.795969 -0.129433 0
M  V30 23 O -4.297179 -2.018594 0.132478 0
M  V30 24 C -4.355812 -3.107399 -0.776654 0
M  V30 25 C -2.971376 -3.522521 -1.179708 0
M  V30 26 N -2.139459 -3.941560 -0.109820 0
M  V30 27 C -2.478524 -5.159199 0.538977 0
M  V30 28 C -1.210179 -5.765513 1.099605 0
M  V30 29 C -0.097116 -4.902368 0.577150 0
M  V30 30 C -0.734244 -3.847848 -0.304138 0
M  V30 31 N -3.166639 -0.453699 -1.317388 0
M  V30 32 C -2.656279 0.784400 -1.449337 0
M  V30 33 C 3.353576 -0.060509 1.711382 0
M  V30 34 H 3.810251 -3.688369 0.573517 0
M  V30 35 H 4.197955 -1.959254 0.050159 0
M  V30 36 H 5.490214 -3.081395 0.544844 0
M  V30 37 H 4.273737 -1.644439 4.533005 0
M  V30 38 H 2.633199 2.123144 4.218835 0
M  V30 39 H 2.608942 1.415298 -0.367507 0
M  V30 40 H 3.497372 4.682171 -0.722639 0
M  V30 41 H 1.810406 6.421477 -1.777028 0
M  V30 42 H -2.316404 3.842584 -1.315605 0
M  V30 43 H -3.236364 2.196439 1.475119 0
M  V30 44 H -4.238762 -0.079504 1.887219 0
M  V30 45 H -4.851462 -2.669038 -1.693822 0
M  V30 46 H -4.983305 -3.903512 -0.386049 0
M  V30 47 H -2.464418 -2.685023 -1.691342 0
M  V30 48 H -3.012478 -4.353345 -1.921698 0
M  V30 49 H -3.278383 -5.089521 1.298964 0
M  V30 50 H -2.862552 -5.876480 -0.235345 0
M  V30 51 H -1.051679 -6.798535 0.733346 0
M  V30 52 H -1.247213 -5.847260 2.204413 0
M  V30 53 H 0.456390 -4.348777 1.378169 0
M  V30 54 H 0.658531 -5.483043 0.016617 0
M  V30 55 H -0.286615 -2.849539 -0.129904 0
M  V30 56 H -0.502389 -4.084610 -1.365365 0
M  V30 57 H -2.233337 0.904304 -2.451221 0
M  V30 58 H 3.332120 -0.222941 0.649798 0
M  V30 END ATOM
M  V30 BEGIN BOND
M  V30 1 1 1 2
M  V30 2 1 2 3
M  V30 3 2 3 4
M  V30 4 1 4 5
M  V30 5 2 5 6
M  V30 6 1 6 7
M  V30 7 1 7 8
M  V30 8 2 8 9
M  V30 9 1 8 10
M  V30 10 1 10 11
M  V30 11 2 11 12
M  V30 12 1 12 13
M  V30 13 1 13 14
M  V30 14 2 14 15
M  V30 15 1 15 16
M  V30 16 2 16 17
M  V30 17 1 16 18
M  V30 18 1 18 19
M  V30 19 2 19 20
M  V30 20 1 20 21
M  V30 21 2 21 22
M  V30 22 1 22 23
M  V30 23 1 23 24
M  V30 24 1 24 25
M  V30 25 1 25 26
M  V30 26 1 26 27
M  V30 27 1 27 28
M  V30 28 1 28 29
M  V30 29 1 29 30
M  V30 30 1 22 31
M  V30 31 2 31 32
M  V30 32 2 7 33
M  V30 33 1 33 3
M  V30 34 1 15 11
M  V30 35 1 32 19
M  V30 36 1 30 26
M  V30 37 1 1 34
M  V30 38 1 1 35
M  V30 39 1 1 36
M  V30 40 1 4 37
M  V30 41 1 6 38
M  V30 42 1 10 39
M  V30 43 1 12 40
M  V30 44 1 13 41
M  V30 45 1 18 42
M  V30 46 1 20 43
M  V30 47 1 21 44
M  V30 48 1 24 45
M  V30 49 1 24 46
M  V30 50 1 25 47
M  V30 51 1 25 48
M  V30 52 1 27 49
M  V30 53 1 27 50
M  V30 54 1 28 51
M  V30 55 1 28 52
M  V30 56 1 29 53
M  V30 57 1 29 54
M  V30 58 1 30 55
M  V30 59 1 30 56
M  V30 60 1 32 57
M  V30 61 1 33 58
M  V30 END BOND
M  V30 END CTAB
M  END
>  <Dataset>  (903) 
ChEMBL_Kinases

>  <Ligand_Instance>  (903) 
nan

>  <PDB_ID>  (903) 
nan

>  <Standardized_SMILES>  (903) 
COc1cncc(C(=O)Nc2c[nH]nc2C(=O)Nc2ccc(OCCN3CCCC3)nc2)c1

>  <Name>  (903) 
nan

>  <Pocket>  (903) 
nan

>  <ATP_Site>  (903) 
nan

>  <Peripheral>  (903) 
nan

>  <Num_H_Atoms_ProtBoundConf>  (903) 
nan

>  <Num_Resolved_Atoms>  (903) 
nan

>  <Num_Not_Resolved_Atoms>  (903) 
nan

$$$$
CHEMBL4747036
     RDKit          3D

  0  0  0  0  0  0  0  0  0  0999 V3000
M  V30 BEGIN CTAB
M  V30 COUNTS 49 54 0 0 0
M  V30 BEGIN ATOM
M  V30 1 C 7.875667 -1.685505 2.033074 0
M  V30 2 O 6.976090 -2.396633 2.864232 0
M  V30 3 C 5.608823 -2.305318 2.755259 0
M  V30 4 C 4.847082 -3.062374 3.635737 0
M  V30 5 N 3.522964 -2.974446 3.529963 0
M  V30 6 C 2.990070 -2.172766 2.593752 0
M  V30 7 C 3.661184 -1.395951 1.689184 0
M  V30 8 C 3.127974 -0.525988 0.662765 0
M  V30 9 C 3.945047 0.177016 -0.164918 0
M  V30 10 C 3.349455 0.968187 -1.114785 0
M  V30 11 C 1.990514 0.949975 -1.109224 0
M  V30 12 N 1.215498 1.624522 -1.932766 0
M  V30 13 N 0.071331 1.328552 -1.597941 0
M  V30 14 C -0.372187 0.572051 -0.696531 0
M  V30 15 C -0.913039 -0.335176 0.384031 0
M  V30 16 N -2.203224 -0.052602 0.014093 0
M  V30 17 C -3.098095 -0.714501 0.803584 0
M  V30 18 C -4.461778 -0.942271 1.057077 0
M  V30 19 C -5.299771 -0.182467 0.124545 0
M  V30 20 C -6.424296 0.540721 0.521663 0
M  V30 21 C -7.146278 1.227804 -0.423414 0
M  V30 22 C -6.818630 1.244004 -1.764377 0
M  V30 23 C -5.701341 0.530421 -2.187129 0
M  V30 24 F -5.351847 0.526565 -3.499618 0
M  V30 25 C -4.981294 -0.155769 -1.234934 0
M  V30 26 C -4.867367 -1.781519 2.071889 0
M  V30 27 C -3.959687 -2.432354 2.880957 0
M  V30 28 N -2.630575 -2.218285 2.644074 0
M  V30 29 C -2.254460 -1.393998 1.647672 0
M  V30 30 N -0.968649 -1.169135 1.398376 0
M  V30 31 C 1.043616 0.276314 -0.317024 0
M  V30 32 N 1.838663 -0.453600 0.561475 0
M  V30 33 C 5.013485 -1.496042 1.809346 0
M  V30 34 H 7.526103 -1.873569 0.976145 0
M  V30 35 H 8.911443 -2.045805 2.139908 0
M  V30 36 H 7.795157 -0.604569 2.270369 0
M  V30 37 H 5.368056 -3.682813 4.364328 0
M  V30 38 H 1.918289 -2.167363 2.578105 0
M  V30 39 H 4.997292 0.181895 -0.158199 0
M  V30 40 H 3.932342 1.552608 -1.803733 0
M  V30 41 H 1.259593 2.290665 -2.729365 0
M  V30 42 H -6.691322 0.534944 1.572086 0
M  V30 43 H -8.026631 1.800347 -0.141285 0
M  V30 44 H -7.344596 1.763347 -2.544320 0
M  V30 45 H -4.123872 -0.698531 -1.589356 0
M  V30 46 H -5.939506 -1.868839 2.161207 0
M  V30 47 H -4.318773 -3.078826 3.662529 0
M  V30 48 H 0.001700 -1.358821 1.648108 0
M  V30 49 H 5.702683 -0.971549 1.198984 0
M  V30 END ATOM
M  V30 BEGIN BOND
M  V30 1 1 1 2
M  V30 2 1 2 3
M  V30 3 2 3 4
M  V30 4 1 4 5
M  V30 5 2 5 6
M  V30 6 1 6 7
M  V30 7 1 7 8
M  V30 8 2 8 9
M  V30 9 1 9 10
M  V30 10 2 10 11
M  V30 11 1 11 12
M  V30 12 1 12 13
M  V30 13 2 13 14
M  V30 14 1 14 15
M  V30 15 2 15 16
M  V30 16 1 16 17
M  V30 17 2 17 18
M  V30 18 1 18 19
M  V30 19 2 19 20
M  V30 20 1 20 21
M  V30 21 2 21 22
M  V30 22 1 22 23
M  V30 23 1 23 24
M  V30 24 2 23 25
M  V30 25 1 18 26
M  V30 26 2 26 27
M  V30 27 1 27 28
M  V30 28 2 28 29
M  V30 29 1 29 30
M  V30 30 1 14 31
M  V30 31 2 31 32
M  V30 32 2 7 33
M  V30 33 1 33 3
M  V30 34 1 32 8
M  V30 35 1 31 11
M  V30 36 1 30 15
M  V30 37 1 29 17
M  V30 38 1 25 19
M  V30 39 1 1 34
M  V30 40 1 1 35
M  V30 41 1 1 36
M  V30 42 1 4 37
M  V30 43 1 6 38
M  V30 44 1 9 39
M  V30 45 1 10 40
M  V30 46 1 12 41
M  V30 47 1 20 42
M  V30 48 1 21 43
M  V30 49 1 22 44
M  V30 50 1 25 45
M  V30 51 1 26 46
M  V30 52 1 27 47
M  V30 53 1 30 48
M  V30 54 1 33 49
M  V30 END BOND
M  V30 END CTAB
M  END
>  <Dataset>  (904) 
ChEMBL_Kinases

>  <Ligand_Instance>  (904) 
nan

>  <PDB_ID>  (904) 
nan

>  <Standardized_SMILES>  (904) 
COc1cncc(-c2ccc3[nH]nc(-c4nc5c(-c6cccc(F)c6)ccnc5[nH]4)c3n2)c1

>  <Name>  (904) 
nan

>  <Pocket>  (904) 
nan

>  <ATP_Site>  (904) 
nan

>  <Peripheral>  (904) 
nan

>  <Num_H_Atoms_ProtBoundConf>  (904) 
nan

>  <Num_Resolved_Atoms>  (904) 
nan

>  <Num_Not_Resolved_Atoms>  (904) 
nan

$$$$
CHEMBL4747019
     RDKit          3D

  0  0  0  0  0  0  0  0  0  0999 V3000
M  V30 BEGIN CTAB
M  V30 COUNTS 44 49 0 0 0
M  V30 BEGIN ATOM
M  V30 1 C -3.568357 -1.802167 2.042799 0
M  V30 2 C -4.451440 -2.876860 2.095110 0
M  V30 3 N -4.021092 -3.994434 1.493264 0
M  V30 4 C -2.822943 -4.105809 0.871151 0
M  V30 5 C -1.954570 -3.035325 0.824523 0
M  V30 6 C -0.682949 -3.218908 0.141312 0
M  V30 7 C 0.279082 -2.254149 0.012024 0
M  V30 8 C 1.475683 -2.465714 -0.644484 0
M  V30 9 C 2.554639 -1.640743 -0.879753 0
M  V30 10 C 2.694046 -0.249356 -0.458978 0
M  V30 11 N 1.777902 0.453888 0.233726 0
M  V30 12 C 2.248534 1.712675 0.446774 0
M  V30 13 C 1.699291 2.805926 1.097920 0
M  V30 14 C 0.373927 2.704409 1.707169 0
M  V30 15 C 0.226187 1.518214 2.433654 0
M  V30 16 C -0.978493 1.245582 3.088538 0
M  V30 17 C -1.980778 2.193900 2.974676 0
M  V30 18 N -1.804832 3.315365 2.272720 0
M  V30 19 C -0.661664 3.614151 1.628813 0
M  V30 20 N 2.432170 3.938883 1.139189 0
M  V30 21 C 3.645007 4.020882 0.577873 0
M  V30 22 C 4.181574 2.934240 -0.064785 0
M  V30 23 C 3.507588 1.751505 -0.152187 0
M  V30 24 N 3.761656 0.531805 -0.704116 0
M  V30 25 N 3.429096 -2.376882 -1.563732 0
M  V30 26 N 2.937132 -3.610430 -1.757546 0
M  V30 27 C 1.727072 -3.709927 -1.203727 0
M  V30 28 C 0.746355 -4.649406 -1.056468 0
M  V30 29 N -0.429823 -4.419137 -0.403330 0
M  V30 30 C -2.340134 -1.858448 1.425401 0
M  V30 31 H -3.849273 -0.862244 2.509549 0
M  V30 32 H -5.390093 -2.768720 2.589820 0
M  V30 33 H -2.584071 -5.075718 0.414324 0
M  V30 34 H 0.102121 -1.280849 0.439925 0
M  V30 35 H 0.987355 0.754428 2.544558 0
M  V30 36 H -1.115715 0.328644 3.659703 0
M  V30 37 H -2.925682 2.012951 3.469901 0
M  V30 38 H -0.445074 4.492818 1.046029 0
M  V30 39 H 4.142562 4.980541 0.672782 0
M  V30 40 H 5.164984 3.019767 -0.513240 0
M  V30 41 H 4.645296 0.299958 -1.215472 0
M  V30 42 H 3.379230 -4.414756 -2.255104 0
M  V30 43 H 0.961388 -5.623126 -1.503037 0
M  V30 44 H -1.675010 -1.008240 1.400319 0
M  V30 END ATOM
M  V30 BEGIN BOND
M  V30 1 2 1 2
M  V30 2 1 2 3
M  V30 3 2 3 4
M  V30 4 1 4 5
M  V30 5 1 5 6
M  V30 6 2 6 7
M  V30 7 1 7 8
M  V30 8 1 8 9
M  V30 9 1 9 10
M  V30 10 2 10 11
M  V30 11 1 11 12
M  V30 12 2 12 13
M  V30 13 1 13 14
M  V30 14 2 14 15
M  V30 15 1 15 16
M  V30 16 2 16 17
M  V30 17 1 17 18
M  V30 18 2 18 19
M  V30 19 1 13 20
M  V30 20 2 20 21
M  V30 21 1 21 22
M  V30 22 2 22 23
M  V30 23 1 23 24
M  V30 24 2 9 25
M  V30 25 1 25 26
M  V30 26 1 26 27
M  V30 27 1 27 28
M  V30 28 2 28 29
M  V30 29 2 5 30
M  V30 30 1 30 1
M  V30 31 1 29 6
M  V30 32 2 27 8
M  V30 33 1 24 10
M  V30 34 1 23 12
M  V30 35 1 19 14
M  V30 36 1 1 31
M  V30 37 1 2 32
M  V30 38 1 4 33
M  V30 39 1 7 34
M  V30 40 1 15 35
M  V30 41 1 16 36
M  V30 42 1 17 37
M  V30 43 1 19 38
M  V30 44 1 21 39
M  V30 45 1 22 40
M  V30 46 1 24 41
M  V30 47 1 26 42
M  V30 48 1 28 43
M  V30 49 1 30 44
M  V30 END BOND
M  V30 END CTAB
M  END
>  <Dataset>  (905) 
ChEMBL_Kinases

>  <Ligand_Instance>  (905) 
nan

>  <PDB_ID>  (905) 
nan

>  <Standardized_SMILES>  (905) 
c1cncc(-c2cc3c(-c4nc5c(-c6cccnc6)nccc5[nH]4)n[nH]c3cn2)c1

>  <Name>  (905) 
nan

>  <Pocket>  (905) 
nan

>  <ATP_Site>  (905) 
nan

>  <Peripheral>  (905) 
nan

>  <Num_H_Atoms_ProtBoundConf>  (905) 
nan

>  <Num_Resolved_Atoms>  (905) 
nan

>  <Num_Not_Resolved_Atoms>  (905) 
nan

$$$$
CHEMBL4453890
     RDKit          3D

  0  0  0  0  0  0  0  0  0  0999 V3000
M  V30 BEGIN CTAB
M  V30 COUNTS 55 58 0 0 0
M  V30 BEGIN ATOM
M  V30 1 C 0.246472 -5.525921 1.191590 0
M  V30 2 N 1.019938 -4.332481 1.310154 0
M  V30 3 N 2.301737 -4.313623 1.713422 0
M  V30 4 C 2.710283 -3.030863 1.710777 0
M  V30 5 C 1.687907 -2.202392 1.302469 0
M  V30 6 N 1.715251 -0.788902 1.162529 0
M  V30 7 C 2.850943 0.002680 1.436715 0
M  V30 8 O 3.927599 -0.509906 1.831158 0
M  V30 9 C 2.769264 1.446311 1.257191 0
M  V30 10 N 1.812590 2.241446 0.864101 0
M  V30 11 C 1.853109 3.413404 0.750637 0
M  V30 12 C 0.948825 4.541702 0.334737 0
M  V30 13 C 1.331710 5.840327 0.310601 0
M  V30 14 F 2.572876 6.192522 0.666866 0
M  V30 15 C 0.366808 6.770275 -0.101989 0
M  V30 16 C -0.925377 6.388669 -0.470687 0
M  V30 17 C -1.285292 5.040689 -0.433379 0
M  V30 18 C -0.318923 4.148031 -0.025100 0
M  V30 19 F -0.690970 2.834554 0.004862 0
M  V30 20 S 3.580541 3.914780 1.252030 0
M  V30 21 C 3.998928 2.099405 1.582098 0
M  V30 22 N 5.350398 1.799552 2.049720 0
M  V30 23 C 0.627397 -3.048333 1.054045 0
M  V30 24 N -0.650495 -2.626264 0.595576 0
M  V30 25 C -1.695313 -2.414554 1.562953 0
M  V30 26 C -3.076549 -2.713980 1.099099 0
M  V30 27 C -3.274004 -3.927491 0.272430 0 CFG=1
M  V30 28 N -4.702560 -3.964757 -0.084641 0
M  V30 29 C -2.474549 -4.008719 -0.979755 0 CFG=1
M  V30 30 O -3.266048 -4.531607 -2.003303 0
M  V30 31 C -1.944808 -2.677220 -1.441305 0
M  V30 32 C -0.575247 -2.495713 -0.847127 0
M  V30 33 H 0.172171 -5.938738 0.170134 0
M  V30 34 H -0.785875 -5.420461 1.616686 0
M  V30 35 H 0.712910 -6.337890 1.800122 0
M  V30 36 H 3.720098 -2.798070 2.005885 0
M  V30 37 H 0.849021 -0.305643 0.839056 0
M  V30 38 H 0.636078 7.817702 -0.135578 0
M  V30 39 H -1.637899 7.140463 -0.782760 0
M  V30 40 H -2.270817 4.699559 -0.708782 0
M  V30 41 H 5.430996 1.074934 2.801329 0
M  V30 42 H 5.439893 1.082904 2.794236 0
M  V30 43 H -1.449097 -2.841282 2.556110 0
M  V30 44 H -1.684417 -1.300630 1.763600 0
M  V30 45 H -3.731425 -2.830277 2.001808 0
M  V30 46 H -3.524182 -1.855813 0.527144 0
M  V30 47 H -3.132206 -4.892793 0.819717 0
M  V30 48 H -4.973553 -3.221506 -0.746523 0
M  V30 49 H -4.884817 -4.929089 -0.490667 0
M  V30 50 H -1.614717 -4.711586 -0.859388 0
M  V30 51 H -3.626263 -3.794103 -2.550107 0
M  V30 52 H -1.769512 -2.768107 -2.554392 0
M  V30 53 H -2.621321 -1.837198 -1.299615 0
M  V30 54 H 0.192486 -3.112951 -1.324807 0
M  V30 55 H -0.294915 -1.421982 -1.064433 0
M  V30 END ATOM
M  V30 BEGIN BOND
M  V30 1 1 1 2
M  V30 2 1 2 3
M  V30 3 2 3 4
M  V30 4 1 4 5
M  V30 5 1 5 6
M  V30 6 1 6 7
M  V30 7 2 7 8
M  V30 8 1 7 9
M  V30 9 1 9 10
M  V30 10 2 10 11
M  V30 11 1 11 12
M  V30 12 2 12 13
M  V30 13 1 13 14
M  V30 14 1 13 15
M  V30 15 2 15 16
M  V30 16 1 16 17
M  V30 17 2 17 18
M  V30 18 1 18 19
M  V30 19 1 11 20
M  V30 20 1 20 21
M  V30 21 1 21 22
M  V30 22 2 5 23
M  V30 23 1 23 24
M  V30 24 1 24 25
M  V30 25 1 25 26
M  V30 26 1 26 27
M  V30 27 1 27 28
M  V30 28 1 27 29
M  V30 29 1 29 30
M  V30 30 1 29 31
M  V30 31 1 31 32
M  V30 32 1 23 2
M  V30 33 1 32 24
M  V30 34 2 21 9
M  V30 35 1 18 12
M  V30 36 1 1 33
M  V30 37 1 1 34
M  V30 38 1 1 35
M  V30 39 1 4 36
M  V30 40 1 6 37
M  V30 41 1 15 38
M  V30 42 1 16 39
M  V30 43 1 17 40
M  V30 44 1 22 41
M  V30 45 1 22 42
M  V30 46 1 25 43
M  V30 47 1 25 44
M  V30 48 1 26 45
M  V30 49 1 26 46
M  V30 50 1 27 47 CFG=1
M  V30 51 1 28 48
M  V30 52 1 28 49
M  V30 53 1 29 50 CFG=1
M  V30 54 1 30 51
M  V30 55 1 31 52
M  V30 56 1 31 53
M  V30 57 1 32 54
M  V30 58 1 32 55
M  V30 END BOND
M  V30 END CTAB
M  END
>  <Dataset>  (906) 
ChEMBL_Kinases

>  <Ligand_Instance>  (906) 
nan

>  <PDB_ID>  (906) 
nan

>  <Standardized_SMILES>  (906) 
Cn1ncc(NC(=O)c2nc(-c3c(F)cccc3F)sc2N)c1N1CC[C@@H](N)[C@@H](O)CC1

>  <Name>  (906) 
nan

>  <Pocket>  (906) 
nan

>  <ATP_Site>  (906) 
nan

>  <Peripheral>  (906) 
nan

>  <Num_H_Atoms_ProtBoundConf>  (906) 
nan

>  <Num_Resolved_Atoms>  (906) 
nan

>  <Num_Not_Resolved_Atoms>  (906) 
nan

$$$$
CHEMBL4746968
     RDKit          3D

  0  0  0  0  0  0  0  0  0  0999 V3000
M  V30 BEGIN CTAB
M  V30 COUNTS 59 64 0 0 0
M  V30 BEGIN ATOM
M  V30 1 C 6.222153 -1.901079 4.492155 0
M  V30 2 C 7.111284 -0.741180 4.095144 0
M  V30 3 C 8.531842 -1.132011 4.526619 0
M  V30 4 C 7.123932 -0.658132 2.617801 0
M  V30 5 C 5.818083 -0.437977 1.994320 0
M  V30 6 O 4.867226 -0.338109 2.805929 0
M  V30 7 N 5.585942 -0.337856 0.607238 0
M  V30 8 C 4.362269 -0.126205 -0.071090 0
M  V30 9 C 4.384318 -0.071748 -1.445232 0
M  V30 10 N 3.270690 0.126510 -2.167840 0
M  V30 11 C 2.061717 0.284919 -1.601750 0
M  V30 12 C 1.955259 0.243061 -0.223771 0
M  V30 13 C 0.679283 0.407852 0.467305 0
M  V30 14 C 0.763009 1.003491 1.722101 0
M  V30 15 C -0.392821 1.198744 2.447297 0
M  V30 16 C -1.594531 0.799211 1.909507 0
M  V30 17 N -2.866600 0.840263 2.335203 0
M  V30 18 N -3.700178 0.330127 1.462711 0
M  V30 19 C -3.028580 -0.094569 0.373761 0
M  V30 20 C -3.631951 -0.715647 -0.796220 0
M  V30 21 N -4.957378 -0.917128 -0.871791 0
M  V30 22 C -5.297543 -1.494428 -2.016391 0
M  V30 23 C -6.503694 -1.895438 -2.549999 0
M  V30 24 C -7.708044 -1.706430 -1.822767 0
M  V30 25 C -8.999594 -2.025237 -2.150297 0
M  V30 26 C -10.027059 -1.753559 -1.294177 0
M  V30 27 C -9.622802 -1.106934 -0.029232 0
M  V30 28 S -7.747504 -0.971722 -0.250408 0
M  V30 29 C -6.489890 -2.481630 -3.807800 0
M  V30 30 N -5.341575 -2.660753 -4.499855 0
M  V30 31 C -4.155726 -2.275626 -3.994802 0
M  V30 32 C -4.147966 -1.691476 -2.747018 0
M  V30 33 N -3.182031 -1.201246 -1.956760 0
M  V30 34 C -1.718518 0.207410 0.673625 0
M  V30 35 C -0.552785 0.029333 -0.017618 0
M  V30 36 C 3.114159 0.038927 0.475512 0
M  V30 37 H 5.987006 -2.545466 3.620431 0
M  V30 38 H 5.258493 -1.508304 4.849403 0
M  V30 39 H 6.713540 -2.556169 5.245789 0
M  V30 40 H 6.758187 0.138321 4.623276 0
M  V30 41 H 9.234020 -0.309585 4.321087 0
M  V30 42 H 8.553178 -1.331563 5.629785 0
M  V30 43 H 8.820615 -2.100537 4.070781 0
M  V30 44 H 7.840377 0.126570 2.262487 0
M  V30 45 H 7.508871 -1.616078 2.198264 0
M  V30 46 H 6.468891 -0.441590 0.067132 0
M  V30 47 H 5.278111 -0.180323 -2.061407 0
M  V30 48 H 1.164371 0.444296 -2.178895 0
M  V30 49 H 1.657116 1.357461 2.244598 0
M  V30 50 H -0.460288 1.653207 3.439745 0
M  V30 51 H -3.195863 1.232449 3.263371 0
M  V30 52 H -9.183541 -2.497136 -3.103409 0
M  V30 53 H -11.064421 -1.973874 -1.481381 0
M  V30 54 H -10.473070 -0.858324 0.729766 0
M  V30 55 H -7.450563 -2.791114 -4.211802 0
M  V30 56 H -3.210065 -2.404265 -4.524084 0
M  V30 57 H -2.198536 -1.219087 -2.259345 0
M  V30 58 H -0.539339 -0.415791 -0.975014 0
M  V30 59 H 3.017384 0.008240 1.547561 0
M  V30 END ATOM
M  V30 BEGIN BOND
M  V30 1 1 1 2
M  V30 2 1 2 3
M  V30 3 1 2 4
M  V30 4 1 4 5
M  V30 5 2 5 6
M  V30 6 1 5 7
M  V30 7 1 7 8
M  V30 8 2 8 9
M  V30 9 1 9 10
M  V30 10 2 10 11
M  V30 11 1 11 12
M  V30 12 1 12 13
M  V30 13 2 13 14
M  V30 14 1 14 15
M  V30 15 2 15 16
M  V30 16 1 16 17
M  V30 17 1 17 18
M  V30 18 2 18 19
M  V30 19 1 19 20
M  V30 20 2 20 21
M  V30 21 1 21 22
M  V30 22 2 22 23
M  V30 23 1 23 24
M  V30 24 2 24 25
M  V30 25 1 25 26
M  V30 26 2 26 27
M  V30 27 1 27 28
M  V30 28 1 23 29
M  V30 29 2 29 30
M  V30 30 1 30 31
M  V30 31 2 31 32
M  V30 32 1 32 33
M  V30 33 1 19 34
M  V30 34 2 34 35
M  V30 35 2 12 36
M  V30 36 1 36 8
M  V30 37 1 35 13
M  V30 38 1 34 16
M  V30 39 1 33 20
M  V30 40 1 32 22
M  V30 41 1 28 24
M  V30 42 1 1 37
M  V30 43 1 1 38
M  V30 44 1 1 39
M  V30 45 1 2 40
M  V30 46 1 3 41
M  V30 47 1 3 42
M  V30 48 1 3 43
M  V30 49 1 4 44
M  V30 50 1 4 45
M  V30 51 1 7 46
M  V30 52 1 9 47
M  V30 53 1 11 48
M  V30 54 1 14 49
M  V30 55 1 15 50
M  V30 56 1 17 51
M  V30 57 1 25 52
M  V30 58 1 26 53
M  V30 59 1 27 54
M  V30 60 1 29 55
M  V30 61 1 31 56
M  V30 62 1 33 57
M  V30 63 1 35 58
M  V30 64 1 36 59
M  V30 END BOND
M  V30 END CTAB
M  END
>  <Dataset>  (907) 
ChEMBL_Kinases

>  <Ligand_Instance>  (907) 
nan

>  <PDB_ID>  (907) 
nan

>  <Standardized_SMILES>  (907) 
CC(C)CC(=O)Nc1cncc(-c2ccc3[nH]nc(-c4nc5c(-c6cccs6)cncc5[nH]4)c3c2)c1

>  <Name>  (907) 
nan

>  <Pocket>  (907) 
nan

>  <ATP_Site>  (907) 
nan

>  <Peripheral>  (907) 
nan

>  <Num_H_Atoms_ProtBoundConf>  (907) 
nan

>  <Num_Resolved_Atoms>  (907) 
nan

>  <Num_Not_Resolved_Atoms>  (907) 
nan

$$$$
CHEMBL4746788
     RDKit          3D

  0  0  0  0  0  0  0  0  0  0999 V3000
M  V30 BEGIN CTAB
M  V30 COUNTS 52 56 0 0 0
M  V30 BEGIN ATOM
M  V30 1 C 5.390034 1.979460 6.407106 0
M  V30 2 C 6.083911 1.745393 5.058773 0
M  V30 3 C 4.956797 1.570592 4.065066 0
M  V30 4 C 5.474289 1.327024 2.662602 0
M  V30 5 C 4.260187 1.177237 1.813483 0
M  V30 6 O 3.339562 1.325213 2.671222 0
M  V30 7 N 4.176348 0.936064 0.429661 0
M  V30 8 C 2.808098 0.867262 0.047071 0
M  V30 9 C 2.154467 2.022617 -0.342217 0
M  V30 10 N 0.864910 1.939004 -0.699505 0
M  V30 11 C 0.175640 0.783162 -0.697335 0
M  V30 12 C 0.759279 -0.407724 -0.322050 0
M  V30 13 C 0.112774 -1.711517 -0.281762 0
M  V30 14 C -1.193167 -1.926789 -0.620741 0
M  V30 15 C -1.825438 -3.147389 -0.590740 0
M  V30 16 C -3.107548 -3.530861 -0.893589 0
M  V30 17 C -4.254399 -2.785426 -1.353740 0
M  V30 18 C -5.475454 -3.403629 -1.598089 0
M  V30 19 C -6.435302 -2.521368 -2.028118 0
M  V30 20 C -7.760167 -2.612272 -2.394085 0
M  V30 21 N -8.420423 -1.502484 -2.777354 0
M  V30 22 C -7.820508 -0.297474 -2.814052 0
M  V30 23 C -6.492322 -0.177758 -2.452136 0
M  V30 24 C -5.801869 -1.300506 -2.057913 0
M  V30 25 N -4.543197 -1.522242 -1.656641 0
M  V30 26 N -3.071076 -4.858022 -0.652298 0
M  V30 27 N -1.883630 -5.247234 -0.242370 0
M  V30 28 C -1.046878 -4.205557 -0.182336 0
M  V30 29 C 0.271628 -4.018622 0.165191 0
M  V30 30 N 0.826392 -2.804838 0.114032 0
M  V30 31 C 2.084709 -0.304084 0.042101 0
M  V30 32 H 4.770739 1.078379 6.622968 0
M  V30 33 H 4.677850 2.847767 6.341712 0
M  V30 34 H 6.155831 2.090462 7.179921 0
M  V30 35 H 6.739589 2.597269 4.824281 0
M  V30 36 H 6.628446 0.788184 5.193514 0
M  V30 37 H 4.424058 0.636077 4.374572 0
M  V30 38 H 4.230302 2.389217 4.115184 0
M  V30 39 H 6.073738 0.376850 2.699080 0
M  V30 40 H 6.149367 2.137851 2.321271 0
M  V30 41 H 5.124333 0.855865 -0.039464 0
M  V30 42 H 2.725328 2.949784 -0.338782 0
M  V30 43 H -0.858602 0.757116 -0.991014 0
M  V30 44 H -1.735997 -1.061058 -0.927743 0
M  V30 45 H -5.744981 -4.462120 -1.491678 0
M  V30 46 H -8.230418 -3.584767 -2.360461 0
M  V30 47 H -8.294832 0.625594 -3.111275 0
M  V30 48 H -5.979974 0.765689 -2.468576 0
M  V30 49 H -3.867409 -0.743027 -1.597434 0
M  V30 50 H -1.664819 -6.237557 -0.007107 0
M  V30 51 H 0.828085 -4.872805 0.474104 0
M  V30 52 H 2.606061 -1.218545 0.351378 0
M  V30 END ATOM
M  V30 BEGIN BOND
M  V30 1 1 1 2
M  V30 2 1 2 3
M  V30 3 1 3 4
M  V30 4 1 4 5
M  V30 5 2 5 6
M  V30 6 1 5 7
M  V30 7 1 7 8
M  V30 8 2 8 9
M  V30 9 1 9 10
M  V30 10 2 10 11
M  V30 11 1 11 12
M  V30 12 1 12 13
M  V30 13 2 13 14
M  V30 14 1 14 15
M  V30 15 1 15 16
M  V30 16 1 16 17
M  V30 17 2 17 18
M  V30 18 1 18 19
M  V30 19 2 19 20
M  V30 20 1 20 21
M  V30 21 2 21 22
M  V30 22 1 22 23
M  V30 23 2 23 24
M  V30 24 1 24 25
M  V30 25 2 16 26
M  V30 26 1 26 27
M  V30 27 1 27 28
M  V30 28 1 28 29
M  V30 29 2 29 30
M  V30 30 2 12 31
M  V30 31 1 31 8
M  V30 32 1 30 13
M  V30 33 2 28 15
M  V30 34 1 25 17
M  V30 35 1 24 19
M  V30 36 1 1 32
M  V30 37 1 1 33
M  V30 38 1 1 34
M  V30 39 1 2 35
M  V30 40 1 2 36
M  V30 41 1 3 37
M  V30 42 1 3 38
M  V30 43 1 4 39
M  V30 44 1 4 40
M  V30 45 1 7 41
M  V30 46 1 9 42
M  V30 47 1 11 43
M  V30 48 1 14 44
M  V30 49 1 18 45
M  V30 50 1 20 46
M  V30 51 1 22 47
M  V30 52 1 23 48
M  V30 53 1 25 49
M  V30 54 1 27 50
M  V30 55 1 29 51
M  V30 56 1 31 52
M  V30 END BOND
M  V30 END CTAB
M  END
>  <Dataset>  (908) 
ChEMBL_Kinases

>  <Ligand_Instance>  (908) 
nan

>  <PDB_ID>  (908) 
nan

>  <Standardized_SMILES>  (908) 
CCCCC(=O)Nc1cncc(-c2cc3c(-c4cc5cnccc5[nH]4)n[nH]c3cn2)c1

>  <Name>  (908) 
nan

>  <Pocket>  (908) 
nan

>  <ATP_Site>  (908) 
nan

>  <Peripheral>  (908) 
nan

>  <Num_H_Atoms_ProtBoundConf>  (908) 
nan

>  <Num_Resolved_Atoms>  (908) 
nan

>  <Num_Not_Resolved_Atoms>  (908) 
nan

$$$$
CHEMBL4746707
     RDKit          3D

  0  0  0  0  0  0  0  0  0  0999 V3000
M  V30 BEGIN CTAB
M  V30 COUNTS 65 69 0 0 0
M  V30 BEGIN ATOM
M  V30 1 C 5.025165 0.642747 5.136816 0
M  V30 2 C 5.729222 1.299607 3.965259 0
M  V30 3 C 6.380062 0.160949 3.166904 0
M  V30 4 O 4.770630 1.844895 3.053621 0
M  V30 5 C 4.798275 3.171327 2.624973 0
M  V30 6 O 5.764395 3.784918 3.150006 0
M  V30 7 N 3.714199 3.391954 1.727469 0
M  V30 8 C 2.657240 2.483482 1.234051 0
M  V30 9 C 2.929400 2.489244 -0.258772 0
M  V30 10 C 2.306822 3.760773 -0.793185 0
M  V30 11 N 0.940991 3.399443 -1.199382 0
M  V30 12 C 0.196179 2.361037 -0.815346 0
M  V30 13 C -1.027506 2.414363 -1.450992 0
M  V30 14 C -2.186310 1.530226 -1.378654 0
M  V30 15 O -3.257951 1.662991 -2.006202 0
M  V30 16 N -2.044721 0.422684 -0.499113 0
M  V30 17 C -2.907818 -0.653497 -0.140138 0
M  V30 18 C -3.003184 -1.889062 -0.751141 0
M  V30 19 C -3.894908 -2.831695 -0.282553 0
M  V30 20 C -3.952670 -4.051899 -0.926914 0
M  V30 21 C -4.865793 -4.947541 -0.405870 0
M  V30 22 C -5.001790 -6.271889 -1.019760 0
M  V30 23 C -6.147570 -7.061769 -1.097909 0
M  V30 24 N -5.789353 -8.185799 -1.746079 0
M  V30 25 N -4.522270 -8.173244 -2.081947 0
M  V30 26 C -3.705797 -9.148051 -2.780308 0
M  V30 27 C -4.005797 -6.999214 -1.645449 0
M  V30 28 C -5.671728 -4.664777 0.678687 0
M  V30 29 C -5.561979 -3.422815 1.276353 0
M  V30 30 C -4.670251 -2.467795 0.814394 0
M  V30 31 C -4.576566 -1.246249 1.419148 0
M  V30 32 N -3.686455 -0.375078 0.910807 0
M  V30 33 C -0.991536 3.543844 -2.246790 0
M  V30 34 N 0.232417 4.123697 -2.066751 0
M  V30 35 C 2.306472 4.778629 0.294997 0
M  V30 36 C 3.554434 4.718256 1.154219 0
M  V30 37 H 5.158576 -0.459555 5.160797 0
M  V30 38 H 3.932829 0.809886 5.119388 0
M  V30 39 H 5.418283 1.004308 6.108048 0
M  V30 40 H 6.459036 2.049513 4.263367 0
M  V30 41 H 7.169531 -0.328121 3.753575 0
M  V30 42 H 5.613126 -0.610835 2.958842 0
M  V30 43 H 6.763170 0.521892 2.203784 0
M  V30 44 H 2.791970 1.475226 1.673147 0
M  V30 45 H 1.671303 2.888209 1.501232 0
M  V30 46 H 2.446880 1.608121 -0.727467 0
M  V30 47 H 4.009439 2.484176 -0.480036 0
M  V30 48 H 2.869945 4.113755 -1.686735 0
M  V30 49 H 0.482452 1.586560 -0.118321 0
M  V30 50 H -1.200779 0.207500 0.076379 0
M  V30 51 H -2.340069 -2.033808 -1.592522 0
M  V30 52 H -3.315994 -4.262992 -1.776358 0
M  V30 53 H -7.100145 -6.757471 -0.691514 0
M  V30 54 H -3.022772 -9.688102 -2.101677 0
M  V30 55 H -3.083009 -8.625142 -3.543285 0
M  V30 56 H -4.375478 -9.817181 -3.362655 0
M  V30 57 H -2.972571 -6.647280 -1.751705 0
M  V30 58 H -6.366025 -5.391261 1.048437 0
M  V30 59 H -6.205117 -3.203514 2.138110 0
M  V30 60 H -5.196343 -1.015159 2.261012 0
M  V30 61 H -1.782508 3.898058 -2.888046 0
M  V30 62 H 1.366377 4.806488 0.902066 0
M  V30 63 H 2.320349 5.794872 -0.202270 0
M  V30 64 H 3.567898 5.510663 1.903927 0
M  V30 65 H 4.404632 4.878697 0.440820 0
M  V30 END ATOM
M  V30 BEGIN BOND
M  V30 1 1 1 2
M  V30 2 1 2 3
M  V30 3 1 2 4
M  V30 4 1 4 5
M  V30 5 2 5 6
M  V30 6 1 5 7
M  V30 7 1 7 8
M  V30 8 1 8 9
M  V30 9 1 9 10
M  V30 10 1 10 11
M  V30 11 1 11 12
M  V30 12 2 12 13
M  V30 13 1 13 14
M  V30 14 2 14 15
M  V30 15 1 14 16
M  V30 16 1 16 17
M  V30 17 2 17 18
M  V30 18 1 18 19
M  V30 19 2 19 20
M  V30 20 1 20 21
M  V30 21 1 21 22
M  V30 22 1 22 23
M  V30 23 2 23 24
M  V30 24 1 24 25
M  V30 25 1 25 26
M  V30 26 1 25 27
M  V30 27 2 21 28
M  V30 28 1 28 29
M  V30 29 2 29 30
M  V30 30 1 30 31
M  V30 31 2 31 32
M  V30 32 1 13 33
M  V30 33 2 33 34
M  V30 34 1 10 35
M  V30 35 1 35 36
M  V30 36 1 36 7
M  V30 37 1 34 11
M  V30 38 1 32 17
M  V30 39 1 30 19
M  V30 40 2 27 22
M  V30 41 1 1 37
M  V30 42 1 1 38
M  V30 43 1 1 39
M  V30 44 1 2 40
M  V30 45 1 3 41
M  V30 46 1 3 42
M  V30 47 1 3 43
M  V30 48 1 8 44
M  V30 49 1 8 45
M  V30 50 1 9 46
M  V30 51 1 9 47
M  V30 52 1 10 48
M  V30 53 1 12 49
M  V30 54 1 16 50
M  V30 55 1 18 51
M  V30 56 1 20 52
M  V30 57 1 23 53
M  V30 58 1 26 54
M  V30 59 1 26 55
M  V30 60 1 26 56
M  V30 61 1 27 57
M  V30 62 1 28 58
M  V30 63 1 29 59
M  V30 64 1 31 60
M  V30 65 1 33 61
M  V30 66 1 35 62
M  V30 67 1 35 63
M  V30 68 1 36 64
M  V30 69 1 36 65
M  V30 END BOND
M  V30 END CTAB
M  END
>  <Dataset>  (909) 
ChEMBL_Kinases

>  <Ligand_Instance>  (909) 
nan

>  <PDB_ID>  (909) 
nan

>  <Standardized_SMILES>  (909) 
CC(C)OC(=O)N1CCC(n2cc(C(=O)Nc3cc4cc(-c5cnn(C)c5)ccc4cn3)cn2)CC1

>  <Name>  (909) 
nan

>  <Pocket>  (909) 
nan

>  <ATP_Site>  (909) 
nan

>  <Peripheral>  (909) 
nan

>  <Num_H_Atoms_ProtBoundConf>  (909) 
nan

>  <Num_Resolved_Atoms>  (909) 
nan

>  <Num_Not_Resolved_Atoms>  (909) 
nan

$$$$
CHEMBL4746668
     RDKit          3D

  0  0  0  0  0  0  0  0  0  0999 V3000
M  V30 BEGIN CTAB
M  V30 COUNTS 80 86 0 0 0
M  V30 BEGIN ATOM
M  V30 1 C 6.668067 -4.922425 2.088772 0
M  V30 2 C 7.093838 -5.450631 0.747009 0
M  V30 3 C 6.753946 -6.921258 0.585573 0
M  V30 4 C 6.392829 -4.671886 -0.334263 0
M  V30 5 C 6.799495 -3.249472 -0.190130 0
M  V30 6 O 7.563128 -2.596489 0.604654 0
M  V30 7 N 6.285923 -2.247227 -1.097183 0
M  V30 8 C 6.528352 -0.858238 -1.148525 0
M  V30 9 C 7.582649 -0.088968 -1.588543 0
M  V30 10 N 7.531768 1.248220 -1.570734 0
M  V30 11 C 6.431716 1.879149 -1.116396 0
M  V30 12 C 5.318023 1.220817 -0.653738 0
M  V30 13 C 4.154207 1.979102 -0.219596 0
M  V30 14 C 2.958926 1.488858 0.201863 0
M  V30 15 C 1.846628 2.197910 0.561882 0
M  V30 16 C 0.584762 1.864762 0.978782 0
M  V30 17 C -0.015426 0.578759 1.181930 0
M  V30 18 N -1.315640 0.464170 1.521849 0
M  V30 19 C -1.688938 -0.797351 1.637960 0
M  V30 20 C -2.871708 -1.483043 1.958778 0
M  V30 21 C -4.078207 -0.700981 2.229874 0
M  V30 22 C -4.924024 -0.850315 3.312993 0
M  V30 23 C -5.995843 -0.026755 3.353866 0
M  V30 24 F -6.772736 -0.254380 4.467906 0
M  V30 25 C -6.297150 0.938497 2.397241 0
M  V30 26 C -5.437359 1.079850 1.306264 0
M  V30 27 O -5.870512 2.061577 0.468450 0
M  V30 28 C -5.364493 2.534936 -0.717981 0
M  V30 29 C -5.297725 1.601960 -1.873106 0
M  V30 30 N -6.591331 1.133402 -2.268211 0
M  V30 31 C -7.255176 0.275778 -1.334140 0
M  V30 32 C -8.469300 -0.179524 -2.151332 0
M  V30 33 C -7.876210 -0.355520 -3.506250 0
M  V30 34 C -6.537962 0.334343 -3.485351 0
M  V30 35 C -4.337575 0.243079 1.258453 0
M  V30 36 C -2.918186 -2.860182 1.996552 0
M  V30 37 N -1.810680 -3.590436 1.720205 0
M  V30 38 C -0.638962 -2.970857 1.402792 0
M  V30 39 C -0.581537 -1.617203 1.363915 0
M  V30 40 N 0.354045 -0.693556 1.105360 0
M  V30 41 N 0.001205 3.078389 1.133803 0
M  V30 42 N 0.813500 4.052717 0.843776 0
M  V30 43 C 2.032239 3.563501 0.463902 0
M  V30 44 C 3.233186 4.133215 0.042749 0
M  V30 45 N 4.275330 3.330679 -0.293403 0
M  V30 46 C 5.417696 -0.164518 -0.690075 0
M  V30 47 H 5.857853 -5.575414 2.512148 0
M  V30 48 H 6.248288 -3.910622 2.006872 0
M  V30 49 H 7.534182 -4.881490 2.796795 0
M  V30 50 H 8.190375 -5.352773 0.628059 0
M  V30 51 H 6.405709 -7.277144 1.586786 0
M  V30 52 H 7.628331 -7.528643 0.307532 0
M  V30 53 H 5.932030 -7.077986 -0.141253 0
M  V30 54 H 6.657353 -5.057091 -1.340441 0
M  V30 55 H 5.287383 -4.749485 -0.233438 0
M  V30 56 H 5.614180 -2.521692 -1.879150 0
M  V30 57 H 8.400047 -0.741104 -1.925104 0
M  V30 58 H 6.502797 2.973136 -1.154789 0
M  V30 59 H 2.916143 0.433954 0.244008 0
M  V30 60 H -4.654686 -1.605779 4.030584 0
M  V30 61 H -7.221246 1.477618 2.659689 0
M  V30 62 H -4.357777 2.987382 -0.521818 0
M  V30 63 H -5.985803 3.436474 -1.003476 0
M  V30 64 H -4.668663 0.703000 -1.689706 0
M  V30 65 H -4.805061 2.138908 -2.739852 0
M  V30 66 H -6.644658 -0.585326 -1.048882 0
M  V30 67 H -7.641281 0.855148 -0.446529 0
M  V30 68 H -9.130789 0.729241 -2.160884 0
M  V30 69 H -8.956327 -1.055919 -1.722331 0
M  V30 70 H -8.494751 0.160569 -4.283114 0
M  V30 71 H -7.818214 -1.440642 -3.714858 0
M  V30 72 H -6.389775 0.998453 -4.361490 0
M  V30 73 H -5.702478 -0.384182 -3.413825 0
M  V30 74 H -3.717764 0.407157 0.408596 0
M  V30 75 H -3.820817 -3.427152 2.244264 0
M  V30 76 H 0.260490 -3.526921 1.177970 0
M  V30 77 H 1.312744 -1.010825 0.861689 0
M  V30 78 H 0.564134 5.066715 0.896702 0
M  V30 79 H 3.295094 5.216714 -0.007962 0
M  V30 80 H 4.499592 -0.635283 -0.307176 0
M  V30 END ATOM
M  V30 BEGIN BOND
M  V30 1 1 1 2
M  V30 2 1 2 3
M  V30 3 1 2 4
M  V30 4 1 4 5
M  V30 5 2 5 6
M  V30 6 1 5 7
M  V30 7 1 7 8
M  V30 8 2 8 9
M  V30 9 1 9 10
M  V30 10 2 10 11
M  V30 11 1 11 12
M  V30 12 1 12 13
M  V30 13 2 13 14
M  V30 14 1 14 15
M  V30 15 1 15 16
M  V30 16 1 16 17
M  V30 17 2 17 18
M  V30 18 1 18 19
M  V30 19 2 19 20
M  V30 20 1 20 21
M  V30 21 2 21 22
M  V30 22 1 22 23
M  V30 23 1 23 24
M  V30 24 2 23 25
M  V30 25 1 25 26
M  V30 26 1 26 27
M  V30 27 1 27 28
M  V30 28 1 28 29
M  V30 29 1 29 30
M  V30 30 1 30 31
M  V30 31 1 31 32
M  V30 32 1 32 33
M  V30 33 1 33 34
M  V30 34 2 26 35
M  V30 35 1 20 36
M  V30 36 2 36 37
M  V30 37 1 37 38
M  V30 38 2 38 39
M  V30 39 1 39 40
M  V30 40 2 16 41
M  V30 41 1 41 42
M  V30 42 1 42 43
M  V30 43 1 43 44
M  V30 44 2 44 45
M  V30 45 2 12 46
M  V30 46 1 46 8
M  V30 47 1 45 13
M  V30 48 2 43 15
M  V30 49 1 40 17
M  V30 50 1 39 19
M  V30 51 1 35 21
M  V30 52 1 34 30
M  V30 53 1 1 47
M  V30 54 1 1 48
M  V30 55 1 1 49
M  V30 56 1 2 50
M  V30 57 1 3 51
M  V30 58 1 3 52
M  V30 59 1 3 53
M  V30 60 1 4 54
M  V30 61 1 4 55
M  V30 62 1 7 56
M  V30 63 1 9 57
M  V30 64 1 11 58
M  V30 65 1 14 59
M  V30 66 1 22 60
M  V30 67 1 25 61
M  V30 68 1 28 62
M  V30 69 1 28 63
M  V30 70 1 29 64
M  V30 71 1 29 65
M  V30 72 1 31 66
M  V30 73 1 31 67
M  V30 74 1 32 68
M  V30 75 1 32 69
M  V30 76 1 33 70
M  V30 77 1 33 71
M  V30 78 1 34 72
M  V30 79 1 34 73
M  V30 80 1 35 74
M  V30 81 1 36 75
M  V30 82 1 38 76
M  V30 83 1 40 77
M  V30 84 1 42 78
M  V30 85 1 44 79
M  V30 86 1 46 80
M  V30 END BOND
M  V30 END CTAB
M  END
>  <Dataset>  (910) 
ChEMBL_Kinases

>  <Ligand_Instance>  (910) 
nan

>  <PDB_ID>  (910) 
nan

>  <Standardized_SMILES>  (910) 
CC(C)CC(=O)Nc1cncc(-c2cc3c(-c4nc5c(-c6cc(F)cc(OCCN7CCCC7)c6)cncc5[nH]4)n[nH]c3cn2)c1

>  <Name>  (910) 
nan

>  <Pocket>  (910) 
nan

>  <ATP_Site>  (910) 
nan

>  <Peripheral>  (910) 
nan

>  <Num_H_Atoms_ProtBoundConf>  (910) 
nan

>  <Num_Resolved_Atoms>  (910) 
nan

>  <Num_Not_Resolved_Atoms>  (910) 
nan

$$$$
CHEMBL2407913
     RDKit          3D

  0  0  0  0  0  0  0  0  0  0999 V3000
M  V30 BEGIN CTAB
M  V30 COUNTS 31 34 0 0 0
M  V30 BEGIN ATOM
M  V30 1 O -0.106612 -1.706618 2.726047 0
M  V30 2 C 0.796906 -1.913043 1.898183 0
M  V30 3 N 1.766122 -2.954830 1.948888 0
M  V30 4 C 2.626035 -2.852177 0.811409 0
M  V30 5 C 3.714986 -3.626470 0.403440 0
M  V30 6 C 4.403052 -3.325265 -0.765648 0
M  V30 7 C 4.014839 -2.242495 -1.550362 0
M  V30 8 F 4.693587 -1.958365 -2.691097 0
M  V30 9 C 2.924747 -1.457988 -1.152255 0
M  V30 10 C 2.255030 -1.774137 0.011323 0
M  V30 11 C 1.106220 -1.173806 0.681816 0
M  V30 12 C 0.475684 -0.107616 0.210535 0
M  V30 13 C -0.678797 0.502724 0.897718 0
M  V30 14 C -0.786733 0.946678 2.198665 0
M  V30 15 C -2.009483 1.425035 2.625204 0
M  V30 16 C -3.137191 1.480510 1.803087 0
M  V30 17 C -4.430953 1.911049 2.022423 0
M  V30 18 N -5.048532 1.706846 0.834322 0
M  V30 19 N -4.198857 1.193071 -0.036477 0
M  V30 20 C -2.976396 1.026159 0.513721 0
M  V30 21 C -1.750444 0.533901 0.044420 0
M  V30 22 H 1.795717 -3.657514 2.720951 0
M  V30 23 H 4.057667 -4.475905 0.973734 0
M  V30 24 H 5.251793 -3.929388 -1.086012 0
M  V30 25 H 2.638198 -0.619322 -1.774632 0
M  V30 26 H 0.813750 0.359013 -0.730020 0
M  V30 27 H 0.113116 0.905585 2.783970 0
M  V30 28 H -2.091338 1.769028 3.640132 0
M  V30 29 H -4.820329 2.316879 2.967886 0
M  V30 30 H -4.451377 0.953108 -1.018823 0
M  V30 31 H -1.805770 0.221037 -0.997082 0
M  V30 END ATOM
M  V30 BEGIN BOND
M  V30 1 2 1 2
M  V30 2 1 2 3
M  V30 3 1 3 4
M  V30 4 2 4 5
M  V30 5 1 5 6
M  V30 6 2 6 7
M  V30 7 1 7 8
M  V30 8 1 7 9
M  V30 9 2 9 10
M  V30 10 1 10 11
M  V30 11 2 11 12
M  V30 12 1 12 13
M  V30 13 2 13 14
M  V30 14 1 14 15
M  V30 15 2 15 16
M  V30 16 1 16 17
M  V30 17 2 17 18
M  V30 18 1 18 19
M  V30 19 1 19 20
M  V30 20 2 20 21
M  V30 21 1 11 2
M  V30 22 1 21 13
M  V30 23 1 10 4
M  V30 24 1 20 16
M  V30 25 1 3 22
M  V30 26 1 5 23
M  V30 27 1 6 24
M  V30 28 1 9 25
M  V30 29 1 12 26
M  V30 30 1 14 27
M  V30 31 1 15 28
M  V30 32 1 17 29
M  V30 33 1 19 30
M  V30 34 1 21 31
M  V30 END BOND
M  V30 END CTAB
M  END
>  <Dataset>  (911) 
ChEMBL_Kinases

>  <Ligand_Instance>  (911) 
nan

>  <PDB_ID>  (911) 
nan

>  <Standardized_SMILES>  (911) 
O=C1Nc2ccc(F)cc2/C1=C/c1ccc2cn[nH]c2c1

>  <Name>  (911) 
nan

>  <Pocket>  (911) 
nan

>  <ATP_Site>  (911) 
nan

>  <Peripheral>  (911) 
nan

>  <Num_H_Atoms_ProtBoundConf>  (911) 
nan

>  <Num_Resolved_Atoms>  (911) 
nan

>  <Num_Not_Resolved_Atoms>  (911) 
nan

$$$$
CHEMBL2407912
     RDKit          3D

  0  0  0  0  0  0  0  0  0  0999 V3000
M  V30 BEGIN CTAB
M  V30 COUNTS 31 34 0 0 0
M  V30 BEGIN ATOM
M  V30 1 O -0.655420 -4.935998 0.638797 0
M  V30 2 C 0.310595 -4.144276 0.622282 0
M  V30 3 N 1.700698 -4.368375 0.441100 0
M  V30 4 C 2.368446 -3.117240 0.509968 0
M  V30 5 C 3.703190 -2.854652 0.375775 0
M  V30 6 C 4.158893 -1.562385 0.454761 0
M  V30 7 C 3.260090 -0.510726 0.672064 0
M  V30 8 F 3.853871 0.705395 0.724138 0
M  V30 9 C 1.930933 -0.833965 0.800186 0
M  V30 10 C 1.464311 -2.109465 0.726308 0
M  V30 11 C 0.156642 -2.711445 0.805276 0
M  V30 12 C -0.907238 -1.980793 0.969633 0
M  V30 13 C -1.165331 -0.575845 1.165676 0
M  V30 14 C -0.837457 0.394967 2.124073 0
M  V30 15 C -1.224005 1.706953 2.049534 0
M  V30 16 C -1.975582 2.123738 0.987245 0
M  V30 17 C -2.472515 3.374834 0.703550 0
M  V30 18 N -3.134925 3.248417 -0.444427 0
M  V30 19 N -3.056676 1.994874 -0.853588 0
M  V30 20 C -2.345138 1.238727 -0.003225 0
M  V30 21 C -1.940356 -0.084564 0.097029 0
M  V30 22 H 2.020746 -5.359891 0.290937 0
M  V30 23 H 4.390969 -3.649104 0.209601 0
M  V30 24 H 5.219964 -1.406298 0.343011 0
M  V30 25 H 1.405181 0.076915 0.933691 0
M  V30 26 H -1.835495 -2.584639 0.964117 0
M  V30 27 H -0.237195 -0.130700 2.888577 0
M  V30 28 H -0.874346 2.293006 2.878590 0
M  V30 29 H -2.329065 4.268853 1.324606 0
M  V30 30 H -3.490295 1.619269 -1.730144 0
M  V30 31 H -2.308852 -0.649901 -0.753679 0
M  V30 END ATOM
M  V30 BEGIN BOND
M  V30 1 2 1 2
M  V30 2 1 2 3
M  V30 3 1 3 4
M  V30 4 2 4 5
M  V30 5 1 5 6
M  V30 6 2 6 7
M  V30 7 1 7 8
M  V30 8 1 7 9
M  V30 9 2 9 10
M  V30 10 1 10 11
M  V30 11 2 11 12
M  V30 12 1 12 13
M  V30 13 2 13 14
M  V30 14 1 14 15
M  V30 15 2 15 16
M  V30 16 1 16 17
M  V30 17 2 17 18
M  V30 18 1 18 19
M  V30 19 1 19 20
M  V30 20 2 20 21
M  V30 21 1 11 2
M  V30 22 1 21 13
M  V30 23 1 10 4
M  V30 24 1 20 16
M  V30 25 1 3 22
M  V30 26 1 5 23
M  V30 27 1 6 24
M  V30 28 1 9 25
M  V30 29 1 12 26
M  V30 30 1 14 27
M  V30 31 1 15 28
M  V30 32 1 17 29
M  V30 33 1 19 30
M  V30 34 1 21 31
M  V30 END BOND
M  V30 END CTAB
M  END
>  <Dataset>  (912) 
ChEMBL_Kinases

>  <Ligand_Instance>  (912) 
nan

>  <PDB_ID>  (912) 
nan

>  <Standardized_SMILES>  (912) 
O=C1Nc2ccc(F)cc2/C1=C\c1ccc2cn[nH]c2c1

>  <Name>  (912) 
nan

>  <Pocket>  (912) 
nan

>  <ATP_Site>  (912) 
nan

>  <Peripheral>  (912) 
nan

>  <Num_H_Atoms_ProtBoundConf>  (912) 
nan

>  <Num_Resolved_Atoms>  (912) 
nan

>  <Num_Not_Resolved_Atoms>  (912) 
nan

$$$$
CHEMBL2407911
     RDKit          3D

  0  0  0  0  0  0  0  0  0  0999 V3000
M  V30 BEGIN CTAB
M  V30 COUNTS 31 34 0 0 0
M  V30 BEGIN ATOM
M  V30 1 O -1.085084 -4.792633 -0.202695 0
M  V30 2 C -0.270462 -4.159630 0.537902 0
M  V30 3 N 0.648090 -4.546923 1.551863 0
M  V30 4 C 1.288068 -3.366931 2.019542 0
M  V30 5 C 2.264445 -3.268452 2.985631 0
M  V30 6 C 2.789655 -2.032406 3.293145 0
M  V30 7 C 2.344186 -0.872870 2.635458 0
M  V30 8 C 1.366937 -1.047175 1.683319 0
M  V30 9 C 0.822757 -2.254487 1.354237 0
M  V30 10 C -0.164625 -2.722826 0.412762 0
M  V30 11 C -0.743535 -1.887772 -0.389018 0
M  V30 12 C -0.703110 -0.455368 -0.571911 0
M  V30 13 C -0.231632 0.186325 -1.688399 0
M  V30 14 C -0.265233 1.546916 -1.928868 0
M  V30 15 C -0.835688 2.338928 -0.934801 0
M  V30 16 C -1.057372 3.703631 -0.790544 0
M  V30 17 N -1.660723 3.872246 0.412195 0
M  V30 18 N -1.826240 2.734597 1.012647 0
M  V30 19 C -1.328359 1.749989 0.215219 0
M  V30 20 C -1.272676 0.378642 0.413293 0
M  V30 21 H 0.724239 -5.561600 1.799746 0
M  V30 22 H 2.615547 -4.130240 3.496764 0
M  V30 23 H 3.550957 -1.992004 4.054540 0
M  V30 24 H 2.831791 0.028159 2.964088 0
M  V30 25 H 1.158638 -0.088933 1.259259 0
M  V30 26 H -1.448160 -2.258021 -1.142609 0
M  V30 27 H 0.201747 -0.517181 -2.410479 0
M  V30 28 H 0.122134 1.973191 -2.820077 0
M  V30 29 H -0.752249 4.391083 -1.575782 0
M  V30 30 H -2.270886 2.585030 1.964217 0
M  V30 31 H -1.658522 -0.057599 1.304818 0
M  V30 END ATOM
M  V30 BEGIN BOND
M  V30 1 2 1 2
M  V30 2 1 2 3
M  V30 3 1 3 4
M  V30 4 2 4 5
M  V30 5 1 5 6
M  V30 6 2 6 7
M  V30 7 1 7 8
M  V30 8 2 8 9
M  V30 9 1 9 10
M  V30 10 2 10 11
M  V30 11 1 11 12
M  V30 12 2 12 13
M  V30 13 1 13 14
M  V30 14 2 14 15
M  V30 15 1 15 16
M  V30 16 2 16 17
M  V30 17 1 17 18
M  V30 18 1 18 19
M  V30 19 2 19 20
M  V30 20 1 10 2
M  V30 21 1 20 12
M  V30 22 1 9 4
M  V30 23 1 19 15
M  V30 24 1 3 21
M  V30 25 1 5 22
M  V30 26 1 6 23
M  V30 27 1 7 24
M  V30 28 1 8 25
M  V30 29 1 11 26
M  V30 30 1 13 27
M  V30 31 1 14 28
M  V30 32 1 16 29
M  V30 33 1 18 30
M  V30 34 1 20 31
M  V30 END BOND
M  V30 END CTAB
M  END
>  <Dataset>  (913) 
ChEMBL_Kinases

>  <Ligand_Instance>  (913) 
nan

>  <PDB_ID>  (913) 
nan

>  <Standardized_SMILES>  (913) 
O=C1Nc2ccccc2/C1=C\c1ccc2cn[nH]c2c1

>  <Name>  (913) 
nan

>  <Pocket>  (913) 
nan

>  <ATP_Site>  (913) 
nan

>  <Peripheral>  (913) 
nan

>  <Num_H_Atoms_ProtBoundConf>  (913) 
nan

>  <Num_Resolved_Atoms>  (913) 
nan

>  <Num_Not_Resolved_Atoms>  (913) 
nan

$$$$
CHEMBL2407909
     RDKit          3D

  0  0  0  0  0  0  0  0  0  0999 V3000
M  V30 BEGIN CTAB
M  V30 COUNTS 30 33 0 0 0
M  V30 BEGIN ATOM
M  V30 1 O -1.126308 -4.626226 -0.165437 0
M  V30 2 C -0.317390 -3.988057 0.556027 0
M  V30 3 N 0.627443 -4.417798 1.526823 0
M  V30 4 C 1.286206 -3.268543 2.043962 0
M  V30 5 C 2.283748 -3.194016 2.988224 0
M  V30 6 C 2.813267 -1.973877 3.345252 0
M  V30 7 C 2.339606 -0.809062 2.749456 0
M  V30 8 C 1.342123 -0.934937 1.812391 0
M  V30 9 C 0.803339 -2.129463 1.446240 0
M  V30 10 C -0.203882 -2.540478 0.509375 0
M  V30 11 C -0.819839 -1.668117 -0.242975 0
M  V30 12 C -0.788619 -0.233427 -0.361650 0
M  V30 13 C -0.394559 0.193836 -1.622725 0
M  V30 14 C -0.340991 1.517627 -2.044840 0
M  V30 15 C -0.713568 2.470060 -1.120979 0
M  V30 16 N -0.791990 3.808054 -1.151102 0
M  V30 17 N -1.213057 4.217466 0.025038 0
M  V30 18 N -1.425195 3.207870 0.857723 0
M  V30 19 C -1.113837 2.123024 0.142610 0
M  V30 20 C -1.149665 0.805435 0.510277 0
M  V30 21 H 0.753689 -5.428340 1.761605 0
M  V30 22 H 2.644465 -4.099301 3.443538 0
M  V30 23 H 3.588084 -1.995303 4.088960 0
M  V30 24 H 2.842544 0.067130 3.121932 0
M  V30 25 H 1.126691 0.041502 1.451710 0
M  V30 26 H -1.534473 -2.122999 -0.953266 0
M  V30 27 H -0.078512 -0.487922 -2.431386 0
M  V30 28 H -0.033671 1.828935 -3.023729 0
M  V30 29 H -1.758959 3.230719 1.849596 0
M  V30 30 H -1.443817 0.389065 1.470253 0
M  V30 END ATOM
M  V30 BEGIN BOND
M  V30 1 2 1 2
M  V30 2 1 2 3
M  V30 3 1 3 4
M  V30 4 2 4 5
M  V30 5 1 5 6
M  V30 6 2 6 7
M  V30 7 1 7 8
M  V30 8 2 8 9
M  V30 9 1 9 10
M  V30 10 2 10 11
M  V30 11 1 11 12
M  V30 12 2 12 13
M  V30 13 1 13 14
M  V30 14 2 14 15
M  V30 15 1 15 16
M  V30 16 2 16 17
M  V30 17 1 17 18
M  V30 18 1 18 19
M  V30 19 2 19 20
M  V30 20 1 10 2
M  V30 21 1 20 12
M  V30 22 1 9 4
M  V30 23 1 19 15
M  V30 24 1 3 21
M  V30 25 1 5 22
M  V30 26 1 6 23
M  V30 27 1 7 24
M  V30 28 1 8 25
M  V30 29 1 11 26
M  V30 30 1 13 27
M  V30 31 1 14 28
M  V30 32 1 18 29
M  V30 33 1 20 30
M  V30 END BOND
M  V30 END CTAB
M  END
>  <Dataset>  (914) 
ChEMBL_Kinases

>  <Ligand_Instance>  (914) 
nan

>  <PDB_ID>  (914) 
nan

>  <Standardized_SMILES>  (914) 
O=C1Nc2ccccc2/C1=C\c1ccc2nn[nH]c2c1

>  <Name>  (914) 
nan

>  <Pocket>  (914) 
nan

>  <ATP_Site>  (914) 
nan

>  <Peripheral>  (914) 
nan

>  <Num_H_Atoms_ProtBoundConf>  (914) 
nan

>  <Num_Resolved_Atoms>  (914) 
nan

>  <Num_Not_Resolved_Atoms>  (914) 
nan

$$$$
CHEMBL4746469
     RDKit          3D

  0  0  0  0  0  0  0  0  0  0999 V3000
M  V30 BEGIN CTAB
M  V30 COUNTS 59 64 0 0 0
M  V30 BEGIN ATOM
M  V30 1 C 6.652434 -0.938840 6.054898 0
M  V30 2 N 6.688846 -0.398610 4.729636 0
M  V30 3 C 6.592221 0.992022 4.604964 0
M  V30 4 C 5.892832 1.520585 3.380866 0
M  V30 5 C 4.866155 0.519018 2.992899 0
M  V30 6 N 4.026379 0.969556 1.875284 0
M  V30 7 C 3.043155 0.153024 1.395246 0
M  V30 8 C 2.488540 0.902060 0.378151 0
M  V30 9 C 1.377028 0.392704 -0.425465 0
M  V30 10 O 0.925123 -0.761810 -0.196681 0
M  V30 11 N 0.730752 1.095150 -1.478106 0
M  V30 12 C -0.307675 0.245879 -2.011930 0
M  V30 13 C -1.599977 0.243137 -1.528582 0
M  V30 14 C -2.518868 -0.612434 -2.115430 0
M  V30 15 C -3.834841 -0.654246 -1.665659 0
M  V30 16 C -4.740906 -1.525496 -2.274375 0
M  V30 17 C -6.062453 -1.435898 -1.679806 0
M  V30 18 C -6.665302 -0.210627 -1.406249 0
M  V30 19 N -7.897798 -0.116215 -0.852440 0
M  V30 20 C -8.585843 -1.246971 -0.546028 0
M  V30 21 C -8.074817 -2.505653 -0.778441 0
M  V30 22 N -8.521598 -3.741173 -0.579965 0
M  V30 23 C -7.610723 -4.656715 -0.990486 0
M  V30 24 C -6.547388 -3.915920 -1.466639 0
M  V30 25 C -6.810831 -2.561127 -1.346214 0
M  V30 26 C -4.299827 -2.322934 -3.309690 0
M  V30 27 C -2.990834 -2.261855 -3.735673 0
M  V30 28 C -2.089183 -1.411706 -3.148320 0
M  V30 29 C -0.797295 -1.404568 -3.626592 0
M  V30 30 N 0.099334 -0.556389 -3.039313 0
M  V30 31 C 3.115137 2.122820 0.252280 0
M  V30 32 N 4.065165 2.111439 1.209843 0
M  V30 33 C 5.638565 -0.705984 2.504988 0
M  V30 34 C 6.345642 -1.259106 3.690285 0
M  V30 35 H 7.499631 -0.628332 6.704366 0
M  V30 36 H 6.529623 -2.034780 5.974746 0
M  V30 37 H 5.731543 -0.551310 6.546369 0
M  V30 38 H 6.095661 1.428421 5.498425 0
M  V30 39 H 7.624629 1.429230 4.597531 0
M  V30 40 H 5.392453 2.476826 3.633774 0
M  V30 41 H 6.595820 1.746867 2.555048 0
M  V30 42 H 4.278775 0.229077 3.868759 0
M  V30 43 H 2.780526 -0.841915 1.746555 0
M  V30 44 H 1.084850 2.061407 -1.692597 0
M  V30 45 H -1.862305 0.898338 -0.715744 0
M  V30 46 H -4.060534 0.017049 -0.848344 0
M  V30 47 H -6.077967 0.680089 -1.668449 0
M  V30 48 H -9.570632 -1.203951 -0.103507 0
M  V30 49 H -9.447483 -4.030684 -0.164411 0
M  V30 50 H -7.725370 -5.716721 -0.940940 0
M  V30 51 H -5.655995 -4.362599 -1.866920 0
M  V30 52 H -5.071125 -2.961500 -3.717470 0
M  V30 53 H -2.751773 -2.927150 -4.551718 0
M  V30 54 H -0.464599 -2.033944 -4.437264 0
M  V30 55 H 2.864984 2.886517 -0.469054 0
M  V30 56 H 6.314928 -0.320266 1.701161 0
M  V30 57 H 4.961142 -1.462310 2.079951 0
M  V30 58 H 7.284318 -1.752609 3.309817 0
M  V30 59 H 5.726620 -2.103802 4.102208 0
M  V30 END ATOM
M  V30 BEGIN BOND
M  V30 1 1 1 2
M  V30 2 1 2 3
M  V30 3 1 3 4
M  V30 4 1 4 5
M  V30 5 1 5 6
M  V30 6 1 6 7
M  V30 7 2 7 8
M  V30 8 1 8 9
M  V30 9 2 9 10
M  V30 10 1 9 11
M  V30 11 1 11 12
M  V30 12 2 12 13
M  V30 13 1 13 14
M  V30 14 2 14 15
M  V30 15 1 15 16
M  V30 16 1 16 17
M  V30 17 2 17 18
M  V30 18 1 18 19
M  V30 19 2 19 20
M  V30 20 1 20 21
M  V30 21 1 21 22
M  V30 22 1 22 23
M  V30 23 2 23 24
M  V30 24 1 24 25
M  V30 25 2 16 26
M  V30 26 1 26 27
M  V30 27 2 27 28
M  V30 28 1 28 29
M  V30 29 2 29 30
M  V30 30 1 8 31
M  V30 31 2 31 32
M  V30 32 1 5 33
M  V30 33 1 33 34
M  V30 34 1 34 2
M  V30 35 1 32 6
M  V30 36 1 30 12
M  V30 37 1 28 14
M  V30 38 1 25 17
M  V30 39 2 25 21
M  V30 40 1 1 35
M  V30 41 1 1 36
M  V30 42 1 1 37
M  V30 43 1 3 38
M  V30 44 1 3 39
M  V30 45 1 4 40
M  V30 46 1 4 41
M  V30 47 1 5 42
M  V30 48 1 7 43
M  V30 49 1 11 44
M  V30 50 1 13 45
M  V30 51 1 15 46
M  V30 52 1 18 47
M  V30 53 1 20 48
M  V30 54 1 22 49
M  V30 55 1 23 50
M  V30 56 1 24 51
M  V30 57 1 26 52
M  V30 58 1 27 53
M  V30 59 1 29 54
M  V30 60 1 31 55
M  V30 61 1 33 56
M  V30 62 1 33 57
M  V30 63 1 34 58
M  V30 64 1 34 59
M  V30 END BOND
M  V30 END CTAB
M  END
>  <Dataset>  (915) 
ChEMBL_Kinases

>  <Ligand_Instance>  (915) 
nan

>  <PDB_ID>  (915) 
nan

>  <Standardized_SMILES>  (915) 
CN1CCC(n2cc(C(=O)Nc3cc4cc(-c5cncc6[nH]ccc56)ccc4cn3)cn2)CC1

>  <Name>  (915) 
nan

>  <Pocket>  (915) 
nan

>  <ATP_Site>  (915) 
nan

>  <Peripheral>  (915) 
nan

>  <Num_H_Atoms_ProtBoundConf>  (915) 
nan

>  <Num_Resolved_Atoms>  (915) 
nan

>  <Num_Not_Resolved_Atoms>  (915) 
nan

$$$$
CHEMBL4454222
     RDKit          3D

  0  0  0  0  0  0  0  0  0  0999 V3000
M  V30 BEGIN CTAB
M  V30 COUNTS 71 75 0 0 0
M  V30 BEGIN ATOM
M  V30 1 C 3.755157 -1.645991 2.249467 0
M  V30 2 C 4.246876 -0.218310 2.321149 0
M  V30 3 C 4.308941 0.470713 0.997590 0 CFG=2
M  V30 4 C 4.817153 1.876018 1.237348 0
M  V30 5 O 5.836468 2.516826 0.853285 0
M  V30 6 N 3.958239 2.666439 2.089541 0
M  V30 7 C 4.392793 3.769549 2.963179 0
M  V30 8 C 2.548114 2.414649 2.133902 0
M  V30 9 C 1.692710 3.132407 2.935116 0
M  V30 10 N 0.406360 2.782057 2.879087 0
M  V30 11 C -0.116417 1.806607 2.121982 0
M  V30 12 N -1.521245 1.627826 2.231421 0
M  V30 13 C -2.341468 0.610873 1.682336 0
M  V30 14 C -1.871409 -0.474597 0.980072 0
M  V30 15 C -2.608451 -1.496328 0.436672 0
M  V30 16 C -3.979291 -1.457733 0.597071 0
M  V30 17 C -4.921607 -2.427840 0.104496 0
M  V30 18 O -6.164468 -2.381166 0.306031 0
M  V30 19 N -4.460627 -3.529620 -0.666912 0
M  V30 20 C -5.187650 -4.640609 -1.277991 0
M  V30 21 C -5.026248 -4.625155 -2.783891 0
M  V30 22 C -3.911741 -5.598662 -3.093812 0
M  V30 23 C -3.692007 -6.444715 -1.861148 0
M  V30 24 C -4.647314 -5.946981 -0.797140 0
M  V30 25 C -4.522338 -0.378736 1.302987 0
M  V30 26 C -3.713969 0.608750 1.818620 0
M  V30 27 C -4.350163 1.739806 2.563648 0
M  V30 28 N 0.714018 1.100745 1.334636 0
M  V30 29 C 2.020878 1.412632 1.351810 0
M  V30 30 N 2.928774 0.691038 0.539173 0
M  V30 31 C 2.605488 0.142226 -0.740898 0
M  V30 32 C 1.267515 0.513339 -1.303453 0
M  V30 33 C 1.470080 0.694733 -2.800605 0
M  V30 34 C 2.867878 0.179742 -3.061542 0
M  V30 35 C 3.580718 0.655443 -1.811494 0
M  V30 36 H 4.459381 -2.318469 1.724577 0
M  V30 37 H 2.721341 -1.688185 1.880104 0
M  V30 38 H 3.736407 -2.000615 3.315328 0
M  V30 39 H 3.594776 0.300119 3.043464 0
M  V30 40 H 5.251003 -0.268664 2.799303 0
M  V30 41 H 4.935939 -0.025516 0.261113 0
M  V30 42 H 3.958260 4.708306 2.527440 0
M  V30 43 H 4.136891 3.608167 4.013121 0
M  V30 44 H 5.492870 3.853164 2.869247 0
M  V30 45 H 2.076025 3.927539 3.561131 0
M  V30 46 H -2.073930 2.327014 2.788217 0
M  V30 47 H -0.819599 -0.592978 0.818628 0
M  V30 48 H -2.193896 -2.328177 -0.107742 0
M  V30 49 H -3.462328 -3.706259 -0.920254 0
M  V30 50 H -6.259507 -4.572083 -1.011651 0
M  V30 51 H -5.935798 -4.995416 -3.314229 0
M  V30 52 H -4.748797 -3.631988 -3.151383 0
M  V30 53 H -2.979174 -5.048160 -3.408576 0
M  V30 54 H -4.145205 -6.287912 -3.930622 0
M  V30 55 H -2.623586 -6.295471 -1.567641 0
M  V30 56 H -3.811187 -7.531687 -2.046996 0
M  V30 57 H -5.391991 -6.728538 -0.616198 0
M  V30 58 H -4.057398 -5.800093 0.130566 0
M  V30 59 H -5.589688 -0.296562 1.460039 0
M  V30 60 H -4.149802 2.695041 1.995201 0
M  V30 61 H -5.449638 1.620121 2.539665 0
M  V30 62 H -3.942284 1.820652 3.595462 0
M  V30 63 H 2.660149 -0.971875 -0.754492 0
M  V30 64 H 1.030695 1.553153 -0.931409 0
M  V30 65 H 0.453883 -0.180746 -1.091174 0
M  V30 66 H 1.452378 1.758676 -3.108632 0
M  V30 67 H 0.680113 0.096205 -3.314122 0
M  V30 68 H 3.304731 0.633710 -3.983775 0
M  V30 69 H 2.824190 -0.919040 -3.088325 0
M  V30 70 H 3.536983 1.772618 -1.823815 0
M  V30 71 H 4.583321 0.238543 -1.713701 0
M  V30 END ATOM
M  V30 BEGIN BOND
M  V30 1 1 1 2
M  V30 2 1 2 3
M  V30 3 1 3 4
M  V30 4 2 4 5
M  V30 5 1 4 6
M  V30 6 1 6 7
M  V30 7 1 6 8
M  V30 8 2 8 9
M  V30 9 1 9 10
M  V30 10 2 10 11
M  V30 11 1 11 12
M  V30 12 1 12 13
M  V30 13 2 13 14
M  V30 14 1 14 15
M  V30 15 2 15 16
M  V30 16 1 16 17
M  V30 17 2 17 18
M  V30 18 1 17 19
M  V30 19 1 19 20
M  V30 20 1 20 21
M  V30 21 1 21 22
M  V30 22 1 22 23
M  V30 23 1 23 24
M  V30 24 1 16 25
M  V30 25 2 25 26
M  V30 26 1 26 27
M  V30 27 1 11 28
M  V30 28 2 28 29
M  V30 29 1 29 30
M  V30 30 1 30 31
M  V30 31 1 31 32
M  V30 32 1 32 33
M  V30 33 1 33 34
M  V30 34 1 34 35
M  V30 35 1 30 3
M  V30 36 1 35 31
M  V30 37 1 29 8
M  V30 38 1 26 13
M  V30 39 1 24 20
M  V30 40 1 1 36
M  V30 41 1 1 37
M  V30 42 1 1 38
M  V30 43 1 2 39
M  V30 44 1 2 40
M  V30 45 1 3 41 CFG=3
M  V30 46 1 7 42
M  V30 47 1 7 43
M  V30 48 1 7 44
M  V30 49 1 9 45
M  V30 50 1 12 46
M  V30 51 1 14 47
M  V30 52 1 15 48
M  V30 53 1 19 49
M  V30 54 1 20 50
M  V30 55 1 21 51
M  V30 56 1 21 52
M  V30 57 1 22 53
M  V30 58 1 22 54
M  V30 59 1 23 55
M  V30 60 1 23 56
M  V30 61 1 24 57
M  V30 62 1 24 58
M  V30 63 1 25 59
M  V30 64 1 27 60
M  V30 65 1 27 61
M  V30 66 1 27 62
M  V30 67 1 31 63
M  V30 68 1 32 64
M  V30 69 1 32 65
M  V30 70 1 33 66
M  V30 71 1 33 67
M  V30 72 1 34 68
M  V30 73 1 34 69
M  V30 74 1 35 70
M  V30 75 1 35 71
M  V30 END BOND
M  V30 END CTAB
M  END
>  <Dataset>  (916) 
ChEMBL_Kinases

>  <Ligand_Instance>  (916) 
nan

>  <PDB_ID>  (916) 
nan

>  <Standardized_SMILES>  (916) 
CC[C@@H]1C(=O)N(C)c2cnc(Nc3ccc(C(=O)NC4CCCC4)cc3C)nc2N1C1CCCC1

>  <Name>  (916) 
nan

>  <Pocket>  (916) 
nan

>  <ATP_Site>  (916) 
nan

>  <Peripheral>  (916) 
nan

>  <Num_H_Atoms_ProtBoundConf>  (916) 
nan

>  <Num_Resolved_Atoms>  (916) 
nan

>  <Num_Not_Resolved_Atoms>  (916) 
nan

$$$$
CHEMBL4747076
     RDKit          3D

  0  0  0  0  0  0  0  0  0  0999 V3000
M  V30 BEGIN CTAB
M  V30 COUNTS 71 77 0 0 0
M  V30 BEGIN ATOM
M  V30 1 C 7.870530 -0.993046 -0.052157 0
M  V30 2 S 8.791289 -0.820411 -1.558613 0
M  V30 3 O 9.728120 0.341254 -1.394045 0
M  V30 4 O 9.519004 -2.097031 -1.859431 0
M  V30 5 N 7.680403 -0.496990 -2.834321 0
M  V30 6 C 6.747484 -1.589994 -3.001615 0
M  V30 7 C 5.827707 -1.232243 -4.118172 0
M  V30 8 C 6.120284 -1.561484 -5.426486 0
M  V30 9 C 5.212480 -1.195668 -6.424727 0
M  V30 10 F 5.534622 -1.538087 -7.711921 0
M  V30 11 C 4.050980 -0.520839 -6.104402 0
M  V30 12 C 3.737463 -0.181758 -4.805404 0
M  V30 13 C 2.496841 0.535969 -4.556925 0
M  V30 14 N 2.130915 1.602098 -5.282298 0
M  V30 15 C 1.009988 2.304506 -5.116008 0
M  V30 16 C 0.158239 1.895846 -4.111877 0
M  V30 17 C 0.477749 0.806893 -3.331786 0
M  V30 18 N -0.131271 0.184297 -2.311776 0
M  V30 19 C 0.514243 -0.858209 -1.817609 0
M  V30 20 C 0.314582 -1.835558 -0.769038 0
M  V30 21 N 1.147379 -2.842255 -0.444107 0
M  V30 22 N 0.691022 -3.559783 0.550979 0
M  V30 23 C -0.487779 -3.075437 0.960505 0
M  V30 24 N -1.346514 -3.454435 1.935066 0
M  V30 25 C -2.504055 -2.763597 2.137755 0
M  V30 26 C -2.769120 -1.677944 1.326635 0
M  V30 27 C -4.023276 -0.982709 1.598013 0
M  V30 28 C -4.791530 -0.332142 0.652719 0
M  V30 29 N -5.936593 0.289190 0.971533 0
M  V30 30 C -6.411485 0.320038 2.229131 0
M  V30 31 C -5.721947 -0.299016 3.251484 0
M  V30 32 O -6.053340 -0.372394 4.597949 0
M  V30 33 C -7.225407 0.238640 5.043176 0
M  V30 34 C -7.442290 0.073415 6.505718 0
M  V30 35 C -6.948343 1.001457 7.412855 0
M  V30 36 C -7.127884 0.883872 8.794661 0
M  V30 37 C -7.826716 -0.201192 9.286476 0
M  V30 38 C -8.320800 -1.127423 8.394313 0
M  V30 39 C -8.146787 -1.019271 7.010001 0
M  V30 40 C -4.531086 -0.941428 2.901423 0
M  V30 41 C -1.869593 -1.322164 0.343842 0
M  V30 42 C -0.705771 -2.006584 0.130867 0
M  V30 43 C 1.654268 -0.887740 -2.621260 0
M  V30 44 C 1.650787 0.121489 -3.551984 0
M  V30 45 C 4.658861 -0.561336 -3.860084 0
M  V30 46 H 7.584447 -2.032104 0.169332 0
M  V30 47 H 8.419740 -0.610361 0.837829 0
M  V30 48 H 6.907639 -0.414476 -0.113704 0
M  V30 49 H 7.134787 0.365690 -2.632393 0
M  V30 50 H 7.244158 -2.544435 -3.226673 0
M  V30 51 H 6.159293 -1.682953 -2.060638 0
M  V30 52 H 7.045635 -2.091312 -5.620939 0
M  V30 53 H 3.392885 -0.265900 -6.909202 0
M  V30 54 H 0.782559 3.167380 -5.752201 0
M  V30 55 H -0.767341 2.421595 -3.923300 0
M  V30 56 H -1.036857 0.525447 -1.967427 0
M  V30 57 H 1.230435 -4.376573 0.914364 0
M  V30 58 H -3.095506 -3.169509 2.942259 0
M  V30 59 H -4.432606 -0.341577 -0.365021 0
M  V30 60 H -7.330557 0.806539 2.547563 0
M  V30 61 H -7.264813 1.343855 4.862392 0
M  V30 62 H -8.147172 -0.161872 4.543537 0
M  V30 63 H -6.392207 1.870631 7.064793 0
M  V30 64 H -6.718756 1.642202 9.463669 0
M  V30 65 H -7.947770 -0.264496 10.347726 0
M  V30 66 H -8.870316 -1.974685 8.832110 0
M  V30 67 H -8.552261 -1.768047 6.367760 0
M  V30 68 H -3.933083 -1.449343 3.646171 0
M  V30 69 H -2.123002 -0.473635 -0.256527 0
M  V30 70 H 2.485156 -1.591318 -2.582406 0
M  V30 71 H 4.459136 -0.310970 -2.828530 0
M  V30 END ATOM
M  V30 BEGIN BOND
M  V30 1 1 1 2
M  V30 2 2 2 3
M  V30 3 2 2 4
M  V30 4 1 2 5
M  V30 5 1 5 6
M  V30 6 1 6 7
M  V30 7 2 7 8
M  V30 8 1 8 9
M  V30 9 1 9 10
M  V30 10 2 9 11
M  V30 11 1 11 12
M  V30 12 1 12 13
M  V30 13 2 13 14
M  V30 14 1 14 15
M  V30 15 2 15 16
M  V30 16 1 16 17
M  V30 17 1 17 18
M  V30 18 1 18 19
M  V30 19 1 19 20
M  V30 20 2 20 21
M  V30 21 1 21 22
M  V30 22 1 22 23
M  V30 23 2 23 24
M  V30 24 1 24 25
M  V30 25 2 25 26
M  V30 26 1 26 27
M  V30 27 2 27 28
M  V30 28 1 28 29
M  V30 29 2 29 30
M  V30 30 1 30 31
M  V30 31 1 31 32
M  V30 32 1 32 33
M  V30 33 1 33 34
M  V30 34 2 34 35
M  V30 35 1 35 36
M  V30 36 2 36 37
M  V30 37 1 37 38
M  V30 38 2 38 39
M  V30 39 2 31 40
M  V30 40 1 26 41
M  V30 41 2 41 42
M  V30 42 2 19 43
M  V30 43 1 43 44
M  V30 44 2 12 45
M  V30 45 1 45 7
M  V30 46 1 44 13
M  V30 47 2 44 17
M  V30 48 1 42 20
M  V30 49 1 42 23
M  V30 50 1 40 27
M  V30 51 1 39 34
M  V30 52 1 1 46
M  V30 53 1 1 47
M  V30 54 1 1 48
M  V30 55 1 5 49
M  V30 56 1 6 50
M  V30 57 1 6 51
M  V30 58 1 8 52
M  V30 59 1 11 53
M  V30 60 1 15 54
M  V30 61 1 16 55
M  V30 62 1 18 56
M  V30 63 1 22 57
M  V30 64 1 25 58
M  V30 65 1 28 59
M  V30 66 1 30 60
M  V30 67 1 33 61
M  V30 68 1 33 62
M  V30 69 1 35 63
M  V30 70 1 36 64
M  V30 71 1 37 65
M  V30 72 1 38 66
M  V30 73 1 39 67
M  V30 74 1 40 68
M  V30 75 1 41 69
M  V30 76 1 43 70
M  V30 77 1 45 71
M  V30 END BOND
M  V30 END CTAB
M  END
>  <Dataset>  (917) 
ChEMBL_Kinases

>  <Ligand_Instance>  (917) 
nan

>  <PDB_ID>  (917) 
nan

>  <Standardized_SMILES>  (917) 
CS(=O)(=O)NCc1cc(F)cc(-c2nccc3[nH]c(-c4n[nH]c5ncc(-c6cncc(OCc7ccccc7)c6)cc45)cc23)c1

>  <Name>  (917) 
nan

>  <Pocket>  (917) 
nan

>  <ATP_Site>  (917) 
nan

>  <Peripheral>  (917) 
nan

>  <Num_H_Atoms_ProtBoundConf>  (917) 
nan

>  <Num_Resolved_Atoms>  (917) 
nan

>  <Num_Not_Resolved_Atoms>  (917) 
nan

$$$$
CHEMBL4552254
     RDKit          3D

  0  0  0  0  0  0  0  0  0  0999 V3000
M  V30 BEGIN CTAB
M  V30 COUNTS 62 66 0 0 0
M  V30 BEGIN ATOM
M  V30 1 C 8.093797 -3.471249 4.208063 0
M  V30 2 C 8.269093 -2.299027 3.306654 0
M  V30 3 C 7.157736 -1.785902 2.689101 0
M  V30 4 C 7.240371 -0.702162 1.841615 0
M  V30 5 C 6.101052 -0.105541 1.153101 0
M  V30 6 C 6.354766 0.979259 0.338307 0
M  V30 7 C 5.319119 1.612295 -0.360474 0
M  V30 8 C 4.037640 1.129514 -0.218343 0
M  V30 9 N 2.845164 1.502433 -0.739500 0
M  V30 10 C 1.872858 0.692484 -0.278736 0
M  V30 11 N 0.467595 0.641398 -0.502445 0
M  V30 12 C -0.605185 1.266205 0.192529 0
M  V30 13 C -1.888961 1.041082 -0.244714 0
M  V30 14 C -2.921672 1.637746 0.419706 0
M  V30 15 C -4.332079 1.451349 0.023246 0
M  V30 16 N -5.018476 0.383300 0.630541 0
M  V30 17 C -6.371595 0.164421 0.309714 0
M  V30 18 C -6.656269 -1.314813 0.191109 0
M  V30 19 N -5.690981 -2.017035 -0.630727 0
M  V30 20 C -5.804158 -2.960031 -1.682382 0
M  V30 21 O -4.881229 -3.511931 -2.334155 0
M  V30 22 C -7.097532 -3.450539 -2.184225 0
M  V30 23 C -6.877123 -4.448243 -3.314946 0
M  V30 24 F -6.144926 -5.527203 -2.891456 0
M  V30 25 F -8.072249 -4.899181 -3.812537 0
M  V30 26 F -6.122083 -3.853670 -4.333581 0
M  V30 27 C -4.316971 -1.687288 -0.315923 0
M  V30 28 C -4.317880 -0.807152 0.915416 0
M  V30 29 C -2.693098 2.462019 1.521803 0
M  V30 30 C -1.376871 2.675615 1.947492 0
M  V30 31 N -0.403838 2.062308 1.254835 0
M  V30 32 N 2.414208 -0.238308 0.563288 0
M  V30 33 C 3.750413 0.034179 0.598423 0
M  V30 34 C 4.810585 -0.574739 1.282673 0
M  V30 35 N 8.454612 -0.159708 1.637818 0
M  V30 36 C 9.568573 -0.661239 2.246552 0
M  V30 37 N 9.456472 -1.719039 3.068027 0
M  V30 38 H 7.075583 -3.408066 4.651157 0
M  V30 39 H 8.799925 -3.407181 5.061344 0
M  V30 40 H 8.261796 -4.419179 3.660938 0
M  V30 41 H 6.210227 -2.230070 2.864538 0
M  V30 42 H 7.321044 1.437841 0.156023 0
M  V30 43 H 5.488344 2.468846 -1.010016 0
M  V30 44 H 0.306461 0.032951 -1.314495 0
M  V30 45 H -2.044393 0.403745 -1.097623 0
M  V30 46 H -4.922193 2.384310 0.137503 0
M  V30 47 H -4.304520 1.247438 -1.087124 0
M  V30 48 H -6.720250 0.708133 -0.605094 0
M  V30 49 H -7.022285 0.517293 1.170143 0
M  V30 50 H -7.701796 -1.484265 -0.205226 0
M  V30 51 H -6.673265 -1.823370 1.179823 0
M  V30 52 H -7.676155 -2.594797 -2.623416 0
M  V30 53 H -7.751609 -3.900294 -1.437367 0
M  V30 54 H -3.801282 -2.654769 -0.128579 0
M  V30 55 H -3.793265 -1.216374 -1.165482 0
M  V30 56 H -4.790136 -1.410765 1.737248 0
M  V30 57 H -3.276342 -0.630411 1.283557 0
M  V30 58 H -3.474932 2.956900 2.080381 0
M  V30 59 H -1.094418 3.298134 2.792127 0
M  V30 60 H 1.996734 -1.009283 1.097520 0
M  V30 61 H 4.603226 -1.415444 1.911947 0
M  V30 62 H 10.561436 -0.215171 2.078009 0
M  V30 END ATOM
M  V30 BEGIN BOND
M  V30 1 1 1 2
M  V30 2 2 2 3
M  V30 3 1 3 4
M  V30 4 1 4 5
M  V30 5 2 5 6
M  V30 6 1 6 7
M  V30 7 2 7 8
M  V30 8 1 8 9
M  V30 9 2 9 10
M  V30 10 1 10 11
M  V30 11 1 11 12
M  V30 12 2 12 13
M  V30 13 1 13 14
M  V30 14 1 14 15
M  V30 15 1 15 16
M  V30 16 1 16 17
M  V30 17 1 17 18
M  V30 18 1 18 19
M  V30 19 1 19 20
M  V30 20 2 20 21
M  V30 21 1 20 22
M  V30 22 1 22 23
M  V30 23 1 23 24
M  V30 24 1 23 25
M  V30 25 1 23 26
M  V30 26 1 19 27
M  V30 27 1 27 28
M  V30 28 2 14 29
M  V30 29 1 29 30
M  V30 30 2 30 31
M  V30 31 1 10 32
M  V30 32 1 32 33
M  V30 33 2 33 34
M  V30 34 2 4 35
M  V30 35 1 35 36
M  V30 36 2 36 37
M  V30 37 1 37 2
M  V30 38 1 34 5
M  V30 39 1 33 8
M  V30 40 1 31 12
M  V30 41 1 28 16
M  V30 42 1 1 38
M  V30 43 1 1 39
M  V30 44 1 1 40
M  V30 45 1 3 41
M  V30 46 1 6 42
M  V30 47 1 7 43
M  V30 48 1 11 44
M  V30 49 1 13 45
M  V30 50 1 15 46
M  V30 51 1 15 47
M  V30 52 1 17 48
M  V30 53 1 17 49
M  V30 54 1 18 50
M  V30 55 1 18 51
M  V30 56 1 22 52
M  V30 57 1 22 53
M  V30 58 1 27 54
M  V30 59 1 27 55
M  V30 60 1 28 56
M  V30 61 1 28 57
M  V30 62 1 29 58
M  V30 63 1 30 59
M  V30 64 1 32 60
M  V30 65 1 34 61
M  V30 66 1 36 62
M  V30 END BOND
M  V30 END CTAB
M  END
>  <Dataset>  (918) 
ChEMBL_Kinases

>  <Ligand_Instance>  (918) 
nan

>  <PDB_ID>  (918) 
nan

>  <Standardized_SMILES>  (918) 
Cc1cc(-c2ccc3nc(Nc4cc(CN5CCN(C(=O)CC(F)(F)F)CC5)ccn4)[nH]c3c2)ncn1

>  <Name>  (918) 
nan

>  <Pocket>  (918) 
nan

>  <ATP_Site>  (918) 
nan

>  <Peripheral>  (918) 
nan

>  <Num_H_Atoms_ProtBoundConf>  (918) 
nan

>  <Num_Resolved_Atoms>  (918) 
nan

>  <Num_Not_Resolved_Atoms>  (918) 
nan

$$$$
CHEMBL222419
     RDKit          3D

  0  0  0  0  0  0  0  0  0  0999 V3000
M  V30 BEGIN CTAB
M  V30 COUNTS 51 54 0 0 0
M  V30 BEGIN ATOM
M  V30 1 C 3.565236 -5.531261 5.675398 0
M  V30 2 O 2.440565 -4.858705 5.160538 0
M  V30 3 C 2.418549 -4.156944 3.986333 0
M  V30 4 C 3.489760 -4.000868 3.129876 0
M  V30 5 C 3.453599 -3.289643 1.947510 0
M  V30 6 N 4.367618 -3.021911 0.989261 0
M  V30 7 C 3.753360 -2.259064 0.039446 0
M  V30 8 N 2.500537 -2.078967 0.428050 0
M  V30 9 C 1.491935 -1.306247 -0.320173 0
M  V30 10 C 1.056413 -0.052703 -0.441070 0
M  V30 11 C 0.036204 0.234925 -1.306542 0
M  V30 12 O -0.248999 1.547140 -1.277708 0
M  V30 13 C -1.129829 2.385902 -1.895266 0 CFG=2
M  V30 14 C -0.451466 3.496192 -2.697257 0
M  V30 15 C -2.051385 3.025757 -0.872647 0
M  V30 16 C -1.629797 3.367430 0.411114 0
M  V30 17 C -2.516461 3.945593 1.291509 0
M  V30 18 C -3.839609 4.196765 0.916654 0
M  V30 19 C -4.281847 3.867887 -0.348451 0
M  V30 20 C -3.359280 3.293935 -1.188234 0
M  V30 21 Cl -3.907241 2.865962 -2.812318 0
M  V30 22 C -0.475959 -0.842444 -2.009594 0
M  V30 23 C -1.518128 -0.905397 -2.972122 0
M  V30 24 N -1.790227 -2.195512 -3.503555 0
M  V30 25 O -2.405513 -0.436273 -3.676733 0
M  V30 26 S 0.537040 -2.263262 -1.399789 0
M  V30 27 C 2.257966 -2.693637 1.601363 0
M  V30 28 C 1.175733 -2.832520 2.434851 0
M  V30 29 C 1.234719 -3.548646 3.612869 0
M  V30 30 O 0.119542 -3.669209 4.433599 0
M  V30 31 C -1.101293 -3.055357 4.071162 0
M  V30 32 H 3.544798 -5.637703 6.768781 0
M  V30 33 H 3.549290 -6.554993 5.244855 0
M  V30 34 H 4.539619 -5.079851 5.356575 0
M  V30 35 H 4.430034 -4.467791 3.399063 0
M  V30 36 H 4.269887 -1.901630 -0.850545 0
M  V30 37 H 1.676909 0.538293 0.253684 0
M  V30 38 H -1.779976 1.874267 -2.599665 0
M  V30 39 H 0.469091 3.859208 -2.182365 0
M  V30 40 H -0.186677 3.194105 -3.715085 0
M  V30 41 H -1.115331 4.392653 -2.794212 0
M  V30 42 H -0.598971 3.160718 0.672696 0
M  V30 43 H -2.189745 4.213799 2.295827 0
M  V30 44 H -4.558488 4.652831 1.595418 0
M  V30 45 H -5.296838 4.044772 -0.679576 0
M  V30 46 H -1.367779 -2.655542 -4.346127 0
M  V30 47 H -2.452556 -2.920442 -3.153089 0
M  V30 48 H 0.241727 -2.362041 2.156192 0
M  V30 49 H -1.400376 -3.475355 3.091370 0
M  V30 50 H -1.841398 -3.246489 4.873418 0
M  V30 51 H -0.877261 -1.984434 3.929375 0
M  V30 END ATOM
M  V30 BEGIN BOND
M  V30 1 1 1 2
M  V30 2 1 2 3
M  V30 3 2 3 4
M  V30 4 1 4 5
M  V30 5 1 5 6
M  V30 6 2 6 7
M  V30 7 1 7 8
M  V30 8 1 8 9
M  V30 9 2 9 10
M  V30 10 1 10 11
M  V30 11 1 11 12
M  V30 12 1 12 13
M  V30 13 1 13 14
M  V30 14 1 13 15
M  V30 15 2 15 16
M  V30 16 1 16 17
M  V30 17 2 17 18
M  V30 18 1 18 19
M  V30 19 2 19 20
M  V30 20 1 20 21
M  V30 21 2 11 22
M  V30 22 1 22 23
M  V30 23 1 23 24
M  V30 24 2 23 25
M  V30 25 1 22 26
M  V30 26 1 8 27
M  V30 27 1 27 28
M  V30 28 2 28 29
M  V30 29 1 29 30
M  V30 30 1 30 31
M  V30 31 1 29 3
M  V30 32 2 27 5
M  V30 33 1 26 9
M  V30 34 1 20 15
M  V30 35 1 1 32
M  V30 36 1 1 33
M  V30 37 1 1 34
M  V30 38 1 4 35
M  V30 39 1 7 36
M  V30 40 1 10 37
M  V30 41 1 13 38 CFG=3
M  V30 42 1 14 39
M  V30 43 1 14 40
M  V30 44 1 14 41
M  V30 45 1 16 42
M  V30 46 1 17 43
M  V30 47 1 18 44
M  V30 48 1 19 45
M  V30 49 1 24 46
M  V30 50 1 24 47
M  V30 51 1 28 48
M  V30 52 1 31 49
M  V30 53 1 31 50
M  V30 54 1 31 51
M  V30 END BOND
M  V30 END CTAB
M  END
>  <Dataset>  (919) 
ChEMBL_Kinases

>  <Ligand_Instance>  (919) 
nan

>  <PDB_ID>  (919) 
nan

>  <Standardized_SMILES>  (919) 
COc1cc2ncn(-c3cc(O[C@H](C)c4ccccc4Cl)c(C(N)=O)s3)c2cc1OC

>  <Name>  (919) 
GSK-237701A

>  <Pocket>  (919) 
nan

>  <ATP_Site>  (919) 
nan

>  <Peripheral>  (919) 
nan

>  <Num_H_Atoms_ProtBoundConf>  (919) 
nan

>  <Num_Resolved_Atoms>  (919) 
nan

>  <Num_Not_Resolved_Atoms>  (919) 
nan

$$$$
CHEMBL4553054
     RDKit          3D

  0  0  0  0  0  0  0  0  0  0999 V3000
M  V30 BEGIN CTAB
M  V30 COUNTS 31 34 0 0 0
M  V30 BEGIN ATOM
M  V30 1 O 4.966317 -2.676869 -1.853278 0
M  V30 2 C 3.846785 -2.841365 -2.385132 0
M  V30 3 O 3.791479 -3.518980 -3.594765 0
M  V30 4 C 2.525051 -2.402359 -1.893817 0
M  V30 5 C 1.312159 -2.618776 -2.537408 0
M  V30 6 C 0.177542 -2.132702 -1.922721 0
M  V30 7 C 0.206985 -1.456579 -0.721553 0
M  V30 8 N -0.974387 -1.028533 -0.219476 0
M  V30 9 C -0.886241 -0.365579 0.971072 0
M  V30 10 C 0.333287 -0.156616 1.602929 0
M  V30 11 N 1.480989 -0.604933 1.057772 0
M  V30 12 C 1.437262 -1.262553 -0.113787 0
M  V30 13 C 2.606383 -1.725014 -0.679318 0
M  V30 14 C 0.063758 0.572925 2.834143 0
M  V30 15 N 0.993616 0.926172 3.658561 0
M  V30 16 O 2.317002 0.634999 3.428886 0
M  V30 17 C -1.363815 0.803961 2.935061 0
M  V30 18 C -2.067331 1.452083 3.928939 0
M  V30 19 C -3.449624 1.505224 3.725213 0
M  V30 20 C -4.060095 0.950773 2.613942 0
M  V30 21 C -3.290008 0.310007 1.647401 0
M  V30 22 C -1.912306 0.229592 1.801941 0
M  V30 23 H 4.520256 -4.126977 -3.948769 0
M  V30 24 H 1.361868 -3.152214 -3.469357 0
M  V30 25 H -0.754369 -2.311028 -2.438483 0
M  V30 26 H 3.522038 -1.536630 -0.149249 0
M  V30 27 H 2.998762 1.158981 3.968933 0
M  V30 28 H -1.570410 1.874949 4.783241 0
M  V30 29 H -4.020964 2.016514 4.505723 0
M  V30 30 H -5.128530 1.054179 2.566611 0
M  V30 31 H -3.828824 -0.096963 0.812207 0
M  V30 END ATOM
M  V30 BEGIN BOND
M  V30 1 2 1 2
M  V30 2 1 2 3
M  V30 3 1 2 4
M  V30 4 2 4 5
M  V30 5 1 5 6
M  V30 6 2 6 7
M  V30 7 1 7 8
M  V30 8 2 8 9
M  V30 9 1 9 10
M  V30 10 2 10 11
M  V30 11 1 11 12
M  V30 12 2 12 13
M  V30 13 1 10 14
M  V30 14 2 14 15
M  V30 15 1 15 16
M  V30 16 1 14 17
M  V30 17 2 17 18
M  V30 18 1 18 19
M  V30 19 2 19 20
M  V30 20 1 20 21
M  V30 21 2 21 22
M  V30 22 1 13 4
M  V30 23 1 22 17
M  V30 24 1 12 7
M  V30 25 1 22 9
M  V30 26 1 3 23
M  V30 27 1 5 24
M  V30 28 1 6 25
M  V30 29 1 13 26
M  V30 30 1 16 27
M  V30 31 1 18 28
M  V30 32 1 19 29
M  V30 33 1 20 30
M  V30 34 1 21 31
M  V30 END BOND
M  V30 END CTAB
M  END
>  <Dataset>  (920) 
ChEMBL_Kinases

>  <Ligand_Instance>  (920) 
nan

>  <PDB_ID>  (920) 
nan

>  <Standardized_SMILES>  (920) 
O=C(O)c1ccc2nc3c(nc2c1)/C(=N\O)c1ccccc1-3

>  <Name>  (920) 
nan

>  <Pocket>  (920) 
nan

>  <ATP_Site>  (920) 
nan

>  <Peripheral>  (920) 
nan

>  <Num_H_Atoms_ProtBoundConf>  (920) 
nan

>  <Num_Resolved_Atoms>  (920) 
nan

>  <Num_Not_Resolved_Atoms>  (920) 
nan

$$$$
CHEMBL4553284
     RDKit          3D

  0  0  0  0  0  0  0  0  0  0999 V3000
M  V30 BEGIN CTAB
M  V30 COUNTS 79 83 0 0 0
M  V30 BEGIN ATOM
M  V30 1 C 3.673761 -6.299114 -0.252960 0
M  V30 2 O 4.527025 -5.216883 0.050559 0
M  V30 3 C 3.963027 -3.954777 0.185913 0
M  V30 4 C 2.620616 -3.677287 0.045688 0
M  V30 5 C 2.082808 -2.417079 0.184965 0
M  V30 6 C 2.993471 -1.426016 0.480675 0
M  V30 7 N 2.512734 -0.091390 0.638111 0
M  V30 8 C 2.381942 0.925235 -0.349423 0
M  V30 9 O 1.989657 2.142044 -0.381974 0
M  V30 10 N 2.760500 0.620935 -1.709277 0
M  V30 11 C 2.551216 1.783242 -2.538516 0
M  V30 12 C 3.614771 2.649584 -2.671686 0
M  V30 13 C 4.908127 2.360752 -1.977079 0
M  V30 14 C 3.473961 3.785740 -3.453433 0
M  V30 15 C 2.288817 4.046361 -4.088515 0
M  V30 16 C 1.281678 3.128522 -3.900333 0
M  V30 17 C 1.336756 1.977704 -3.143190 0
M  V30 18 C 0.192991 1.057138 -3.005498 0
M  V30 19 C 2.036824 0.530703 1.849854 0
M  V30 20 C 0.674268 0.426173 2.150462 0
M  V30 21 C 0.044300 0.949533 3.247721 0
M  V30 22 N -1.304984 0.844499 3.576134 0
M  V30 23 C -2.367507 0.127754 3.030393 0
M  V30 24 C -3.678017 0.611276 2.994140 0
M  V30 25 C -4.759864 -0.059765 2.481750 0
M  V30 26 C -4.570451 -1.314429 1.953464 0
M  V30 27 N -5.695676 -1.997498 1.420949 0
M  V30 28 C -7.063556 -1.525214 1.370152 0
M  V30 29 C -7.259495 -1.080538 -0.086530 0
M  V30 30 N -6.576135 -1.942633 -1.017212 0
M  V30 31 C -5.346579 -1.357861 -1.511787 0
M  V30 32 C -6.381671 -3.288862 -0.528785 0
M  V30 33 C -5.681429 -3.312682 0.813044 0
M  V30 34 C -3.318883 -1.883368 1.940802 0
M  V30 35 C -2.280934 -1.154936 2.470384 0
M  V30 36 N 0.872081 1.615119 4.072717 0
M  V30 37 C 2.187737 1.749495 3.838351 0
M  V30 38 N 2.787253 1.222031 2.746024 0
M  V30 39 C 4.353786 -1.653990 0.631631 0
M  V30 40 O 5.192806 -0.573934 0.931966 0
M  V30 41 C 6.572382 -0.854162 1.076094 0
M  V30 42 C 4.836642 -2.948581 0.479077 0
M  V30 43 H 2.984369 -6.087712 -1.105410 0
M  V30 44 H 3.053904 -6.608757 0.622159 0
M  V30 45 H 4.246594 -7.206340 -0.557960 0
M  V30 46 H 1.961163 -4.495407 -0.186126 0
M  V30 47 H 1.017505 -2.220391 0.070622 0
M  V30 48 H 3.132376 -0.325128 -2.022320 0
M  V30 49 H 5.693383 2.929617 -2.519179 0
M  V30 50 H 4.858351 2.720307 -0.930099 0
M  V30 51 H 5.082032 1.263987 -1.986726 0
M  V30 52 H 4.319607 4.472779 -3.559103 0
M  V30 53 H 2.130195 4.918509 -4.708856 0
M  V30 54 H 0.337535 3.353213 -4.417205 0
M  V30 55 H 0.039788 0.706079 -1.972879 0
M  V30 56 H -0.707601 1.578634 -3.398515 0
M  V30 57 H 0.361204 0.202774 -3.689407 0
M  V30 58 H 0.085198 -0.111504 1.431114 0
M  V30 59 H -1.654652 1.406295 4.410917 0
M  V30 60 H -3.770598 1.620564 3.427857 0
M  V30 61 H -5.678439 0.489008 2.548997 0
M  V30 62 H -7.813679 -2.307458 1.635380 0
M  V30 63 H -7.230176 -0.637158 1.987111 0
M  V30 64 H -6.813176 -0.047995 -0.141705 0
M  V30 65 H -8.332789 -0.993503 -0.257008 0
M  V30 66 H -5.348288 -0.290060 -1.257934 0
M  V30 67 H -4.470493 -1.809413 -0.987362 0
M  V30 68 H -5.254898 -1.585156 -2.576409 0
M  V30 69 H -7.330335 -3.835694 -0.543430 0
M  V30 70 H -5.702903 -3.789136 -1.250815 0
M  V30 71 H -6.331677 -3.962627 1.470598 0
M  V30 72 H -4.714124 -3.799692 0.772339 0
M  V30 73 H -3.129562 -2.850838 1.541821 0
M  V30 74 H -1.320749 -1.637307 2.456384 0
M  V30 75 H 2.821760 2.298128 4.534849 0
M  V30 76 H 7.113178 0.114285 1.188534 0
M  V30 77 H 6.767315 -1.419034 2.006461 0
M  V30 78 H 6.986251 -1.432158 0.223697 0
M  V30 79 H 5.906125 -3.120831 0.598591 0
M  V30 END ATOM
M  V30 BEGIN BOND
M  V30 1 1 1 2
M  V30 2 1 2 3
M  V30 3 2 3 4
M  V30 4 1 4 5
M  V30 5 2 5 6
M  V30 6 1 6 7
M  V30 7 1 7 8
M  V30 8 2 8 9
M  V30 9 1 8 10
M  V30 10 1 10 11
M  V30 11 2 11 12
M  V30 12 1 12 13
M  V30 13 1 12 14
M  V30 14 2 14 15
M  V30 15 1 15 16
M  V30 16 2 16 17
M  V30 17 1 17 18
M  V30 18 1 7 19
M  V30 19 2 19 20
M  V30 20 1 20 21
M  V30 21 1 21 22
M  V30 22 1 22 23
M  V30 23 2 23 24
M  V30 24 1 24 25
M  V30 25 2 25 26
M  V30 26 1 26 27
M  V30 27 1 27 28
M  V30 28 1 28 29
M  V30 29 1 29 30
M  V30 30 1 30 31
M  V30 31 1 30 32
M  V30 32 1 32 33
M  V30 33 1 26 34
M  V30 34 2 34 35
M  V30 35 2 21 36
M  V30 36 1 36 37
M  V30 37 2 37 38
M  V30 38 1 6 39
M  V30 39 1 39 40
M  V30 40 1 40 41
M  V30 41 2 39 42
M  V30 42 1 42 3
M  V30 43 1 17 11
M  V30 44 1 38 19
M  V30 45 1 35 23
M  V30 46 1 33 27
M  V30 47 1 1 43
M  V30 48 1 1 44
M  V30 49 1 1 45
M  V30 50 1 4 46
M  V30 51 1 5 47
M  V30 52 1 10 48
M  V30 53 1 13 49
M  V30 54 1 13 50
M  V30 55 1 13 51
M  V30 56 1 14 52
M  V30 57 1 15 53
M  V30 58 1 16 54
M  V30 59 1 18 55
M  V30 60 1 18 56
M  V30 61 1 18 57
M  V30 62 1 20 58
M  V30 63 1 22 59
M  V30 64 1 24 60
M  V30 65 1 25 61
M  V30 66 1 28 62
M  V30 67 1 28 63
M  V30 68 1 29 64
M  V30 69 1 29 65
M  V30 70 1 31 66
M  V30 71 1 31 67
M  V30 72 1 31 68
M  V30 73 1 32 69
M  V30 74 1 32 70
M  V30 75 1 33 71
M  V30 76 1 33 72
M  V30 77 1 34 73
M  V30 78 1 35 74
M  V30 79 1 37 75
M  V30 80 1 41 76
M  V30 81 1 41 77
M  V30 82 1 41 78
M  V30 83 1 42 79
M  V30 END BOND
M  V30 END CTAB
M  END
>  <Dataset>  (921) 
ChEMBL_Kinases

>  <Ligand_Instance>  (921) 
nan

>  <PDB_ID>  (921) 
nan

>  <Standardized_SMILES>  (921) 
COc1ccc(N(C(=O)Nc2c(C)cccc2C)c2cc(Nc3ccc(N4CCN(C)CC4)cc3)ncn2)c(OC)c1

>  <Name>  (921) 
nan

>  <Pocket>  (921) 
nan

>  <ATP_Site>  (921) 
nan

>  <Peripheral>  (921) 
nan

>  <Num_H_Atoms_ProtBoundConf>  (921) 
nan

>  <Num_Resolved_Atoms>  (921) 
nan

>  <Num_Not_Resolved_Atoms>  (921) 
nan

$$$$
CHEMBL2216824
     RDKit          3D

  0  0  0  0  0  0  0  0  0  0999 V3000
M  V30 BEGIN CTAB
M  V30 COUNTS 67 70 0 0 0
M  V30 BEGIN ATOM
M  V30 1 C 4.548245 -4.277873 2.813940 0
M  V30 2 C 3.444179 -3.332286 2.511428 0
M  V30 3 C 3.247250 -2.823576 1.247021 0
M  V30 4 C 2.247758 -1.944227 0.892450 0
M  V30 5 N 2.048981 -1.424583 -0.384325 0
M  V30 6 C 2.769210 -1.610895 -1.572252 0
M  V30 7 O 3.769080 -2.346698 -1.580095 0
M  V30 8 C 2.460956 -1.008717 -2.857865 0
M  V30 9 C 3.280716 -1.238103 -3.945729 0
M  V30 10 C 3.043348 -0.693262 -5.212126 0
M  V30 11 C 1.935043 0.120315 -5.406966 0
M  V30 12 C 1.078901 0.377896 -4.332006 0
M  V30 13 N -0.049559 1.209974 -4.553852 0
M  V30 14 C -0.332599 2.579991 -4.476554 0
M  V30 15 O 0.538570 3.419284 -4.133744 0
M  V30 16 C -1.672421 3.044041 -4.802824 0
M  V30 17 C -2.671412 2.267050 -5.177580 0
M  V30 18 C -4.054191 2.612423 -5.530017 0
M  V30 19 N -4.930634 1.896412 -4.589206 0
M  V30 20 C -6.324361 2.180206 -4.872740 0
M  V30 21 C -4.715982 0.470349 -4.790721 0
M  V30 22 C 1.383741 -0.193562 -3.128636 0
M  V30 23 C 1.410984 -1.579249 1.917514 0
M  V30 24 C 1.577077 -2.066536 3.190752 0
M  V30 25 C 2.576420 -2.943722 3.538677 0
M  V30 26 N 2.738982 -3.444416 4.857091 0
M  V30 27 C 1.994610 -3.168416 6.031105 0
M  V30 28 N 2.345283 -3.784549 7.165790 0
M  V30 29 C 1.714398 -3.594743 8.331662 0
M  V30 30 C 0.657842 -2.728681 8.368854 0
M  V30 31 C 0.253808 -2.068391 7.234269 0
M  V30 32 C -0.866510 -1.142403 7.258855 0
M  V30 33 C -1.577281 -0.882953 8.408348 0
M  V30 34 C -2.644942 0.015650 8.389422 0
M  V30 35 C -3.008384 0.654885 7.238496 0
M  V30 36 N -2.320503 0.415501 6.084263 0
M  V30 37 C -1.307075 -0.452908 6.156065 0
M  V30 38 N 0.954685 -2.340061 6.151902 0
M  V30 39 H 4.188466 -5.310821 2.828480 0
M  V30 40 H 5.137636 -4.011976 3.694792 0
M  V30 41 H 5.266259 -4.212547 1.945965 0
M  V30 42 H 3.958556 -3.174726 0.517139 0
M  V30 43 H 1.231556 -0.771875 -0.549736 0
M  V30 44 H 4.175625 -1.865521 -3.887613 0
M  V30 45 H 3.712325 -0.897023 -6.047810 0
M  V30 46 H 1.707440 0.565897 -6.365094 0
M  V30 47 H -0.702603 0.444408 -4.824191 0
M  V30 48 H -1.923538 4.075417 -4.753323 0
M  V30 49 H -2.519537 1.200382 -5.259334 0
M  V30 50 H -4.310553 3.682037 -5.382308 0
M  V30 51 H -4.354060 2.355912 -6.560819 0
M  V30 52 H -6.950265 1.316103 -4.609404 0
M  V30 53 H -6.653776 3.091520 -4.344267 0
M  V30 54 H -6.386978 2.344653 -5.972213 0
M  V30 55 H -5.619245 -0.132653 -4.635110 0
M  V30 56 H -3.856365 0.119958 -4.165404 0
M  V30 57 H -4.409377 0.343653 -5.854168 0
M  V30 58 H 0.697529 0.030146 -2.325777 0
M  V30 59 H 0.608979 -0.890410 1.694864 0
M  V30 60 H 0.858760 -1.709891 3.914446 0
M  V30 61 H 3.545296 -4.129757 4.957009 0
M  V30 62 H 2.081092 -4.147737 9.203228 0
M  V30 63 H 0.194440 -2.616103 9.322909 0
M  V30 64 H -1.355277 -1.341305 9.345880 0
M  V30 65 H -3.195008 0.211105 9.298109 0
M  V30 66 H -3.849751 1.349589 7.273137 0
M  V30 67 H -0.811078 -0.591816 5.204723 0
M  V30 END ATOM
M  V30 BEGIN BOND
M  V30 1 1 1 2
M  V30 2 2 2 3
M  V30 3 1 3 4
M  V30 4 1 4 5
M  V30 5 1 5 6
M  V30 6 2 6 7
M  V30 7 1 6 8
M  V30 8 2 8 9
M  V30 9 1 9 10
M  V30 10 2 10 11
M  V30 11 1 11 12
M  V30 12 1 12 13
M  V30 13 1 13 14
M  V30 14 2 14 15
M  V30 15 1 14 16
M  V30 16 2 16 17
M  V30 17 1 17 18
M  V30 18 1 18 19
M  V30 19 1 19 20
M  V30 20 1 19 21
M  V30 21 2 12 22
M  V30 22 2 4 23
M  V30 23 1 23 24
M  V30 24 2 24 25
M  V30 25 1 25 26
M  V30 26 1 26 27
M  V30 27 2 27 28
M  V30 28 1 28 29
M  V30 29 2 29 30
M  V30 30 1 30 31
M  V30 31 1 31 32
M  V30 32 2 32 33
M  V30 33 1 33 34
M  V30 34 2 34 35
M  V30 35 1 35 36
M  V30 36 2 36 37
M  V30 37 2 31 38
M  V30 38 1 25 2
M  V30 39 1 38 27
M  V30 40 1 22 8
M  V30 41 1 37 32
M  V30 42 1 1 39
M  V30 43 1 1 40
M  V30 44 1 1 41
M  V30 45 1 3 42
M  V30 46 1 5 43
M  V30 47 1 9 44
M  V30 48 1 10 45
M  V30 49 1 11 46
M  V30 50 1 13 47
M  V30 51 1 16 48
M  V30 52 1 17 49
M  V30 53 1 18 50
M  V30 54 1 18 51
M  V30 55 1 20 52
M  V30 56 1 20 53
M  V30 57 1 20 54
M  V30 58 1 21 55
M  V30 59 1 21 56
M  V30 60 1 21 57
M  V30 61 1 22 58
M  V30 62 1 23 59
M  V30 63 1 24 60
M  V30 64 1 26 61
M  V30 65 1 29 62
M  V30 66 1 30 63
M  V30 67 1 33 64
M  V30 68 1 34 65
M  V30 69 1 35 66
M  V30 70 1 37 67
M  V30 END BOND
M  V30 END CTAB
M  END
>  <Dataset>  (922) 
ChEMBL_Kinases

>  <Ligand_Instance>  (922) 
nan

>  <PDB_ID>  (922) 
nan

>  <Standardized_SMILES>  (922) 
Cc1cc(NC(=O)c2cccc(NC(=O)/C=C/CN(C)C)c2)ccc1Nc1nccc(-c2cccnc2)n1

>  <Name>  (922) 
nan

>  <Pocket>  (922) 
nan

>  <ATP_Site>  (922) 
nan

>  <Peripheral>  (922) 
nan

>  <Num_H_Atoms_ProtBoundConf>  (922) 
nan

>  <Num_Resolved_Atoms>  (922) 
nan

>  <Num_Not_Resolved_Atoms>  (922) 
nan

$$$$
CHEMBL4555990
     RDKit          3D

  0  0  0  0  0  0  0  0  0  0999 V3000
M  V30 BEGIN CTAB
M  V30 COUNTS 58 63 0 0 0
M  V30 BEGIN ATOM
M  V30 1 C 5.719858 -3.449034 1.190976 0
M  V30 2 N 5.770972 -2.433767 0.146009 0
M  V30 3 C 6.790417 -2.424406 -0.902183 0
M  V30 4 C 7.226408 -0.980977 -1.033026 0
M  V30 5 O 6.135457 -0.149811 -1.408404 0
M  V30 6 C 4.963134 -0.237107 -0.661574 0
M  V30 7 C 4.810288 -1.379826 0.098861 0
M  V30 8 C 3.646313 -1.468054 0.842273 0
M  V30 9 N 2.716729 -0.491700 0.822294 0
M  V30 10 N 2.867101 0.613508 0.085002 0
M  V30 11 C 2.112529 1.726351 -0.118237 0
M  V30 12 C 0.826761 1.875919 0.561816 0
M  V30 13 C 0.919910 2.694793 1.695183 0
M  V30 14 C -0.242658 2.902172 2.414037 0
M  V30 15 C -1.451045 2.339626 2.051884 0
M  V30 16 C -2.571578 2.590403 2.819776 0
M  V30 17 C -3.699669 1.966356 2.343003 0
M  V30 18 N -3.788365 1.183612 1.259219 0
M  V30 19 C -2.698203 0.937787 0.509259 0
M  V30 20 N -2.832520 0.116262 -0.644733 0
M  V30 21 C -3.995066 -0.518089 -1.108378 0
M  V30 22 C -4.607691 -1.627601 -0.389554 0
M  V30 23 C -5.092159 -1.479494 0.994208 0
M  V30 24 C -5.858815 -2.781494 1.306585 0
M  V30 25 N -5.694757 -3.760863 0.283438 0
M  V30 26 C -4.353010 -4.056093 -0.098692 0
M  V30 27 C -3.602755 -2.793544 -0.359885 0
M  V30 28 C -1.524825 1.535442 0.932219 0
M  V30 29 C -0.388532 1.323033 0.215762 0
M  V30 30 N 2.771038 2.534409 -0.983234 0
M  V30 31 N 3.927111 1.944356 -1.324626 0
M  V30 32 C 3.992431 0.768125 -0.674310 0
M  V30 33 H 6.502905 -4.196507 0.974366 0
M  V30 34 H 4.731965 -3.955693 1.252564 0
M  V30 35 H 5.912265 -2.918612 2.152525 0
M  V30 36 H 6.289846 -2.783924 -1.839458 0
M  V30 37 H 7.651494 -3.035012 -0.640688 0
M  V30 38 H 7.533378 -0.655136 -0.019440 0
M  V30 39 H 8.043733 -0.928661 -1.770302 0
M  V30 40 H 3.490842 -2.351247 1.451808 0
M  V30 41 H 1.832268 3.168018 2.037508 0
M  V30 42 H -0.234558 3.523089 3.297991 0
M  V30 43 H -2.540611 3.206270 3.686125 0
M  V30 44 H -4.643884 2.095447 2.871689 0
M  V30 45 H -1.990059 -0.058576 -1.236490 0
M  V30 46 H -4.790835 0.306525 -1.135058 0
M  V30 47 H -3.896624 -0.736299 -2.207313 0
M  V30 48 H -5.472939 -2.067659 -0.978676 0
M  V30 49 H -4.294128 -1.470803 1.765203 0
M  V30 50 H -5.834716 -0.684310 1.069317 0
M  V30 51 H -6.951835 -2.597051 1.408107 0
M  V30 52 H -5.536803 -3.237461 2.259443 0
M  V30 53 H -6.406353 -3.803135 -0.448797 0
M  V30 54 H -3.775417 -4.653321 0.650353 0
M  V30 55 H -4.359006 -4.624928 -1.068705 0
M  V30 56 H -2.893193 -2.547611 0.472893 0
M  V30 57 H -3.098323 -2.781319 -1.326904 0
M  V30 58 H -0.319612 0.729773 -0.655765 0
M  V30 END ATOM
M  V30 BEGIN BOND
M  V30 1 1 1 2
M  V30 2 1 2 3
M  V30 3 1 3 4
M  V30 4 1 4 5
M  V30 5 1 5 6
M  V30 6 2 6 7
M  V30 7 1 7 8
M  V30 8 2 8 9
M  V30 9 1 9 10
M  V30 10 1 10 11
M  V30 11 1 11 12
M  V30 12 2 12 13
M  V30 13 1 13 14
M  V30 14 2 14 15
M  V30 15 1 15 16
M  V30 16 2 16 17
M  V30 17 1 17 18
M  V30 18 2 18 19
M  V30 19 1 19 20
M  V30 20 1 20 21
M  V30 21 1 21 22
M  V30 22 1 22 23
M  V30 23 1 23 24
M  V30 24 1 24 25
M  V30 25 1 25 26
M  V30 26 1 26 27
M  V30 27 1 19 28
M  V30 28 2 28 29
M  V30 29 2 11 30
M  V30 30 1 30 31
M  V30 31 2 31 32
M  V30 32 1 7 2
M  V30 33 1 32 10
M  V30 34 1 32 6
M  V30 35 1 29 12
M  V30 36 1 28 15
M  V30 37 1 27 22
M  V30 38 1 1 33
M  V30 39 1 1 34
M  V30 40 1 1 35
M  V30 41 1 3 36
M  V30 42 1 3 37
M  V30 43 1 4 38
M  V30 44 1 4 39
M  V30 45 1 8 40
M  V30 46 1 13 41
M  V30 47 1 14 42
M  V30 48 1 16 43
M  V30 49 1 17 44
M  V30 50 1 20 45
M  V30 51 1 21 46
M  V30 52 1 21 47
M  V30 53 1 22 48
M  V30 54 1 23 49
M  V30 55 1 23 50
M  V30 56 1 24 51
M  V30 57 1 24 52
M  V30 58 1 25 53
M  V30 59 1 26 54
M  V30 60 1 26 55
M  V30 61 1 27 56
M  V30 62 1 27 57
M  V30 63 1 29 58
M  V30 END BOND
M  V30 END CTAB
M  END
>  <Dataset>  (923) 
ChEMBL_Kinases

>  <Ligand_Instance>  (923) 
nan

>  <PDB_ID>  (923) 
nan

>  <Standardized_SMILES>  (923) 
CN1CCOc2c1cnn1c(-c3ccc4ccnc(NCC5CCNCC5)c4c3)nnc21

>  <Name>  (923) 
nan

>  <Pocket>  (923) 
nan

>  <ATP_Site>  (923) 
nan

>  <Peripheral>  (923) 
nan

>  <Num_H_Atoms_ProtBoundConf>  (923) 
nan

>  <Num_Resolved_Atoms>  (923) 
nan

>  <Num_Not_Resolved_Atoms>  (923) 
nan

$$$$
CHEMBL4556293
     RDKit          3D

  0  0  0  0  0  0  0  0  0  0999 V3000
M  V30 BEGIN CTAB
M  V30 COUNTS 65 70 0 0 0
M  V30 BEGIN ATOM
M  V30 1 C 4.813423 -1.918022 4.285602 0
M  V30 2 O 4.843849 -0.662396 3.639277 0
M  V30 3 C 4.238267 -0.873068 2.412626 0
M  V30 4 C 4.185686 0.402958 1.572813 0
M  V30 5 N 3.440585 1.396341 2.277878 0
M  V30 6 C 3.957134 1.981355 3.483133 0
M  V30 7 C 3.547550 3.399875 3.704265 0
M  V30 8 O 2.456475 3.849650 2.945812 0
M  V30 9 C 1.672593 3.067769 2.142151 0
M  V30 10 C 2.175510 1.827780 1.807605 0
M  V30 11 C 1.413254 1.011131 0.998816 0
M  V30 12 N 0.218909 1.447681 0.568868 0
M  V30 13 N -0.250914 2.639248 0.897424 0
M  V30 14 C -1.429824 3.232617 0.550810 0
M  V30 15 C -2.441027 2.604752 -0.305524 0
M  V30 16 C -3.602135 3.275033 -0.620877 0
M  V30 17 C -4.495177 2.612365 -1.434553 0
M  V30 18 C -4.306910 1.340891 -1.946953 0
M  V30 19 C -5.214861 0.704514 -2.756374 0
M  V30 20 C -4.929838 -0.569395 -3.216699 0
M  V30 21 C -3.730778 -1.135520 -2.829552 0
M  V30 22 C -2.784851 -0.543638 -2.020354 0
M  V30 23 N -1.564653 -1.148223 -1.653219 0
M  V30 24 C -1.029017 -2.446159 -1.973520 0
M  V30 25 C -1.793454 -3.576420 -1.365250 0
M  V30 26 C -1.119170 -4.883410 -1.786369 0
M  V30 27 C -1.588952 -6.065425 -1.004454 0
M  V30 28 N -1.614015 -5.887428 0.417805 0
M  V30 29 C -2.408920 -4.686609 0.716116 0
M  V30 30 C -1.619194 -3.531623 0.160982 0
M  V30 31 C -3.128948 0.742214 -1.587273 0
M  V30 32 N -2.251525 1.374872 -0.796907 0
M  V30 33 N -1.425963 4.445726 1.144293 0
M  V30 34 N -0.282066 4.594106 1.833509 0
M  V30 35 C 0.440648 3.484574 1.682396 0
M  V30 36 H 5.280810 -1.869200 5.296979 0
M  V30 37 H 3.748271 -2.281565 4.358433 0
M  V30 38 H 5.319858 -2.656615 3.639727 0
M  V30 39 H 3.249701 -1.344336 2.486177 0
M  V30 40 H 4.880051 -1.585947 1.838373 0
M  V30 41 H 3.812785 0.098894 0.599260 0
M  V30 42 H 5.244265 0.707633 1.422724 0
M  V30 43 H 3.590399 1.373258 4.337926 0
M  V30 44 H 5.060815 1.862924 3.474114 0
M  V30 45 H 4.414385 4.046564 3.440719 0
M  V30 46 H 3.334809 3.636099 4.768316 0
M  V30 47 H 1.795106 0.039964 0.731008 0
M  V30 48 H -3.780811 4.269571 -0.237392 0
M  V30 49 H -5.427547 3.137362 -1.694534 0
M  V30 50 H -6.116655 1.248989 -2.990159 0
M  V30 51 H -5.642070 -1.065946 -3.850327 0
M  V30 52 H -3.575905 -2.110235 -3.226855 0
M  V30 53 H -0.933917 -0.554484 -1.039117 0
M  V30 54 H -1.143696 -2.555966 -3.097063 0
M  V30 55 H 0.043490 -2.500093 -1.755569 0
M  V30 56 H -2.857460 -3.578383 -1.546493 0
M  V30 57 H -0.026510 -4.737241 -1.618433 0
M  V30 58 H -1.377608 -5.034443 -2.846003 0
M  V30 59 H -2.592487 -6.364211 -1.374417 0
M  V30 60 H -0.873458 -6.892117 -1.210669 0
M  V30 61 H -2.079846 -6.701303 0.845398 0
M  V30 62 H -2.514976 -4.608015 1.815458 0
M  V30 63 H -3.350157 -4.788685 0.164463 0
M  V30 64 H -1.997003 -2.577634 0.581422 0
M  V30 65 H -0.557393 -3.730763 0.347025 0
M  V30 END ATOM
M  V30 BEGIN BOND
M  V30 1 1 1 2
M  V30 2 1 2 3
M  V30 3 1 3 4
M  V30 4 1 4 5
M  V30 5 1 5 6
M  V30 6 1 6 7
M  V30 7 1 7 8
M  V30 8 1 8 9
M  V30 9 2 9 10
M  V30 10 1 10 11
M  V30 11 2 11 12
M  V30 12 1 12 13
M  V30 13 1 13 14
M  V30 14 1 14 15
M  V30 15 2 15 16
M  V30 16 1 16 17
M  V30 17 2 17 18
M  V30 18 1 18 19
M  V30 19 2 19 20
M  V30 20 1 20 21
M  V30 21 2 21 22
M  V30 22 1 22 23
M  V30 23 1 23 24
M  V30 24 1 24 25
M  V30 25 1 25 26
M  V30 26 1 26 27
M  V30 27 1 27 28
M  V30 28 1 28 29
M  V30 29 1 29 30
M  V30 30 1 22 31
M  V30 31 2 31 32
M  V30 32 2 14 33
M  V30 33 1 33 34
M  V30 34 2 34 35
M  V30 35 1 10 5
M  V30 36 1 35 13
M  V30 37 1 35 9
M  V30 38 1 32 15
M  V30 39 1 31 18
M  V30 40 1 30 25
M  V30 41 1 1 36
M  V30 42 1 1 37
M  V30 43 1 1 38
M  V30 44 1 3 39
M  V30 45 1 3 40
M  V30 46 1 4 41
M  V30 47 1 4 42
M  V30 48 1 6 43
M  V30 49 1 6 44
M  V30 50 1 7 45
M  V30 51 1 7 46
M  V30 52 1 11 47
M  V30 53 1 16 48
M  V30 54 1 17 49
M  V30 55 1 19 50
M  V30 56 1 20 51
M  V30 57 1 21 52
M  V30 58 1 23 53
M  V30 59 1 24 54
M  V30 60 1 24 55
M  V30 61 1 25 56
M  V30 62 1 26 57
M  V30 63 1 26 58
M  V30 64 1 27 59
M  V30 65 1 27 60
M  V30 66 1 28 61
M  V30 67 1 29 62
M  V30 68 1 29 63
M  V30 69 1 30 64
M  V30 70 1 30 65
M  V30 END BOND
M  V30 END CTAB
M  END
>  <Dataset>  (924) 
ChEMBL_Kinases

>  <Ligand_Instance>  (924) 
nan

>  <PDB_ID>  (924) 
nan

>  <Standardized_SMILES>  (924) 
COCCN1CCOc2c1cnn1c(-c3ccc4cccc(NCC5CCNCC5)c4n3)nnc21

>  <Name>  (924) 
nan

>  <Pocket>  (924) 
nan

>  <ATP_Site>  (924) 
nan

>  <Peripheral>  (924) 
nan

>  <Num_H_Atoms_ProtBoundConf>  (924) 
nan

>  <Num_Resolved_Atoms>  (924) 
nan

>  <Num_Not_Resolved_Atoms>  (924) 
nan

$$$$
CHEMBL4637966
     RDKit          3D

  0  0  0  0  0  0  0  0  0  0999 V3000
M  V30 BEGIN CTAB
M  V30 COUNTS 41 44 0 0 0
M  V30 BEGIN ATOM
M  V30 1 O -0.080336 -2.356872 4.689125 0
M  V30 2 C -0.772946 -2.391163 3.639019 0
M  V30 3 O -0.141378 -2.181049 2.435854 0
M  V30 4 C 1.239370 -1.928076 2.298866 0
M  V30 5 C 1.636115 -1.739237 0.854818 0 CFG=1
M  V30 6 O 0.974174 -0.673875 0.256628 0
M  V30 7 C 1.627787 -0.551239 -0.966483 0 CFG=1
M  V30 8 N 1.336590 0.697939 -1.624727 0
M  V30 9 C 1.676890 0.929484 -2.909527 0
M  V30 10 N 1.255888 2.187822 -3.195930 0
M  V30 11 C 0.679348 2.698713 -2.115974 0
M  V30 12 C 0.062554 3.899867 -1.755523 0
M  V30 13 O -0.016564 4.804285 -2.620439 0
M  V30 14 N -0.438509 4.100392 -0.521303 0
M  V30 15 C -0.369598 3.152508 0.426514 0
M  V30 16 N 0.219953 1.954524 0.142562 0
M  V30 17 C 0.712110 1.767423 -1.081705 0
M  V30 18 C 3.085517 -0.786943 -0.712230 0 CFG=2
M  V30 19 O 3.618301 -1.839640 -1.477776 0
M  V30 20 C 3.068812 -1.269211 0.723814 0 CFG=2
M  V30 21 O 3.963510 -2.328688 0.913636 0
M  V30 22 C -2.208360 -2.647942 3.706358 0
M  V30 23 C -2.933249 -2.870250 4.859020 0
M  V30 24 C -4.243468 -3.063622 4.425660 0
M  V30 25 N -4.296526 -2.960485 3.068268 0
M  V30 26 C -3.055004 -2.705968 2.618216 0
M  V30 27 H 1.762864 -2.862911 2.638341 0
M  V30 28 H 1.617374 -1.109854 2.929980 0
M  V30 29 H 1.498387 -2.630447 0.244594 0
M  V30 30 H 1.262623 -1.388030 -1.611191 0
M  V30 31 H 2.183851 0.251267 -3.581097 0
M  V30 32 H -0.895176 5.006126 -0.274423 0
M  V30 33 H -0.747212 3.245432 1.427308 0
M  V30 34 H 3.684987 0.145512 -0.823803 0
M  V30 35 H 4.026349 -1.506537 -2.324460 0
M  V30 36 H 3.259044 -0.430742 1.419974 0
M  V30 37 H 4.758536 -1.942936 1.361777 0
M  V30 38 H -2.490375 -2.873478 5.833645 0
M  V30 39 H -5.029122 -3.260979 5.148552 0
M  V30 40 H -5.183148 -3.070238 2.520246 0
M  V30 41 H -2.757128 -2.566933 1.568898 0
M  V30 END ATOM
M  V30 BEGIN BOND
M  V30 1 2 1 2
M  V30 2 1 2 3
M  V30 3 1 3 4
M  V30 4 1 4 5
M  V30 5 1 5 6
M  V30 6 1 6 7
M  V30 7 1 7 8
M  V30 8 1 8 9
M  V30 9 2 9 10
M  V30 10 1 10 11
M  V30 11 1 11 12
M  V30 12 2 12 13
M  V30 13 1 12 14
M  V30 14 1 14 15
M  V30 15 2 15 16
M  V30 16 1 16 17
M  V30 17 1 7 18
M  V30 18 1 18 19
M  V30 19 1 18 20
M  V30 20 1 20 21
M  V30 21 1 2 22
M  V30 22 1 22 23
M  V30 23 2 23 24
M  V30 24 1 24 25
M  V30 25 1 25 26
M  V30 26 1 20 5
M  V30 27 2 26 22
M  V30 28 1 17 8
M  V30 29 2 17 11
M  V30 30 1 4 27
M  V30 31 1 4 28
M  V30 32 1 5 29 CFG=3
M  V30 33 1 7 30 CFG=3
M  V30 34 1 9 31
M  V30 35 1 14 32
M  V30 36 1 15 33
M  V30 37 1 18 34 CFG=1
M  V30 38 1 19 35
M  V30 39 1 20 36 CFG=1
M  V30 40 1 21 37
M  V30 41 1 23 38
M  V30 42 1 24 39
M  V30 43 1 25 40
M  V30 44 1 26 41
M  V30 END BOND
M  V30 END CTAB
M  END
>  <Dataset>  (925) 
ChEMBL_Kinases

>  <Ligand_Instance>  (925) 
nan

>  <PDB_ID>  (925) 
nan

>  <Standardized_SMILES>  (925) 
O=C(OC[C@H]1O[C@@H](n2cnc3c(=O)[nH]cnc32)[C@H](O)[C@@H]1O)c1cc[nH]c1

>  <Name>  (925) 
nan

>  <Pocket>  (925) 
nan

>  <ATP_Site>  (925) 
nan

>  <Peripheral>  (925) 
nan

>  <Num_H_Atoms_ProtBoundConf>  (925) 
nan

>  <Num_Resolved_Atoms>  (925) 
nan

>  <Num_Not_Resolved_Atoms>  (925) 
nan

$$$$
CHEMBL4558962
     RDKit          3D

  0  0  0  0  0  0  0  0  0  0999 V3000
M  V30 BEGIN CTAB
M  V30 COUNTS 47 49 0 0 0
M  V30 BEGIN ATOM
M  V30 1 C 3.536853 -5.539696 4.014547 0
M  V30 2 C 3.674277 -5.586261 2.503495 0
M  V30 3 C 3.074239 -6.894326 2.032757 0
M  V30 4 N 2.922924 -4.466262 1.980851 0
M  V30 5 C 3.485011 -3.370449 1.269058 0
M  V30 6 O 4.745198 -3.364448 1.070658 0
M  V30 7 C 2.702274 -2.254870 0.754009 0
M  V30 8 C 3.363235 -1.239432 0.089540 0
M  V30 9 C 2.666306 -0.143304 -0.427017 0
M  V30 10 C 1.283132 -0.088909 -0.260640 0
M  V30 11 C 0.425880 1.007947 -0.752404 0
M  V30 12 C 0.738815 1.708532 -1.913688 0
M  V30 13 N -0.102420 2.696189 -2.287871 0
M  V30 14 C -1.200316 2.995110 -1.571239 0
M  V30 15 N -1.936649 4.064696 -2.143380 0
M  V30 16 C -1.558950 2.325728 -0.403642 0
M  V30 17 C -2.776376 2.734878 0.288769 0
M  V30 18 C -2.855824 2.927163 1.659669 0
M  V30 19 C -4.039846 3.313751 2.272391 0
M  V30 20 C -5.175431 3.513550 1.490763 0
M  V30 21 C -6.416161 3.916909 2.115800 0
M  V30 22 N -7.417678 4.223403 2.616169 0
M  V30 23 C -5.061447 3.313721 0.131929 0
M  V30 24 C -3.893955 2.929119 -0.498768 0
M  V30 25 C -0.702884 1.318535 -0.019757 0
M  V30 26 C 0.642471 -1.126073 0.412777 0
M  V30 27 C 1.334900 -2.208070 0.921997 0
M  V30 28 H 4.524782 -5.329264 4.512815 0
M  V30 29 H 2.827574 -4.741050 4.347967 0
M  V30 30 H 3.120176 -6.487197 4.408920 0
M  V30 31 H 4.757583 -5.508373 2.273265 0
M  V30 32 H 3.849171 -7.655470 1.850295 0
M  V30 33 H 2.503774 -6.769355 1.097703 0
M  V30 34 H 2.404296 -7.329412 2.807025 0
M  V30 35 H 1.897563 -4.503909 2.160315 0
M  V30 36 H 4.446689 -1.263722 -0.052494 0
M  V30 37 H 3.121486 0.676517 -0.951421 0
M  V30 38 H 1.624518 1.426190 -2.439916 0
M  V30 39 H -2.625027 4.772624 -1.812318 0
M  V30 40 H -2.617250 4.803878 -1.932427 0
M  V30 41 H -1.965943 2.767892 2.253879 0
M  V30 42 H -4.101992 3.463096 3.343404 0
M  V30 43 H -5.989604 3.488351 -0.421048 0
M  V30 44 H -3.984173 2.819278 -1.558758 0
M  V30 45 H -1.007494 0.812555 0.896478 0
M  V30 46 H -0.435282 -1.112960 0.556740 0
M  V30 47 H 0.781663 -2.981068 1.434402 0
M  V30 END ATOM
M  V30 BEGIN BOND
M  V30 1 1 1 2
M  V30 2 1 2 3
M  V30 3 1 2 4
M  V30 4 1 4 5
M  V30 5 2 5 6
M  V30 6 1 5 7
M  V30 7 2 7 8
M  V30 8 1 8 9
M  V30 9 2 9 10
M  V30 10 1 10 11
M  V30 11 2 11 12
M  V30 12 1 12 13
M  V30 13 2 13 14
M  V30 14 1 14 15
M  V30 15 1 14 16
M  V30 16 1 16 17
M  V30 17 2 17 18
M  V30 18 1 18 19
M  V30 19 2 19 20
M  V30 20 1 20 21
M  V30 21 3 21 22
M  V30 22 1 20 23
M  V30 23 2 23 24
M  V30 24 2 16 25
M  V30 25 1 10 26
M  V30 26 2 26 27
M  V30 27 1 27 7
M  V30 28 1 25 11
M  V30 29 1 24 17
M  V30 30 1 1 28
M  V30 31 1 1 29
M  V30 32 1 1 30
M  V30 33 1 2 31
M  V30 34 1 3 32
M  V30 35 1 3 33
M  V30 36 1 3 34
M  V30 37 1 4 35
M  V30 38 1 8 36
M  V30 39 1 9 37
M  V30 40 1 12 38
M  V30 41 1 15 39
M  V30 42 1 15 40
M  V30 43 1 18 41
M  V30 44 1 19 42
M  V30 45 1 23 43
M  V30 46 1 24 44
M  V30 47 1 25 45
M  V30 48 1 26 46
M  V30 49 1 27 47
M  V30 END BOND
M  V30 END CTAB
M  END
>  <Dataset>  (926) 
ChEMBL_Kinases

>  <Ligand_Instance>  (926) 
nan

>  <PDB_ID>  (926) 
nan

>  <Standardized_SMILES>  (926) 
CC(C)NC(=O)c1ccc(-c2cnc(N)c(-c3ccc(C#N)cc3)c2)cc1

>  <Name>  (926) 
nan

>  <Pocket>  (926) 
nan

>  <ATP_Site>  (926) 
nan

>  <Peripheral>  (926) 
nan

>  <Num_H_Atoms_ProtBoundConf>  (926) 
nan

>  <Num_Resolved_Atoms>  (926) 
nan

>  <Num_Not_Resolved_Atoms>  (926) 
nan

$$$$
CHEMBL4558988
     RDKit          3D

  0  0  0  0  0  0  0  0  0  0999 V3000
M  V30 BEGIN CTAB
M  V30 COUNTS 25 27 0 0 0
M  V30 BEGIN ATOM
M  V30 1 F 1.153621 -4.106052 4.539557 0
M  V30 2 C 1.179228 -2.803392 4.165263 0
M  V30 3 C 0.770624 -2.487701 2.877632 0
M  V30 4 C 0.787771 -1.169529 2.473579 0
M  V30 5 C 0.387457 -0.692836 1.154478 0
M  V30 6 C -0.059203 -1.533125 0.154796 0
M  V30 7 C -0.446935 -1.125691 -1.104172 0
M  V30 8 C -0.391907 0.217833 -1.407679 0
M  V30 9 C -0.751828 0.751739 -2.629953 0
M  V30 10 C -0.633978 2.120495 -2.760910 0
M  V30 11 N -0.196565 2.922966 -1.774902 0
M  V30 12 C 0.164074 2.427658 -0.563831 0
M  V30 13 C 0.056392 1.047848 -0.399725 0
M  V30 14 N 0.428036 0.616194 0.821156 0
M  V30 15 C 1.217158 -0.232768 3.390262 0
M  V30 16 C 1.617644 -0.583211 4.666421 0
M  V30 17 N 1.600518 -1.879274 5.062926 0
M  V30 18 H 0.438198 -3.228225 2.173211 0
M  V30 19 H -0.126262 -2.588714 0.324527 0
M  V30 20 H -0.787224 -1.806245 -1.851887 0
M  V30 21 H -1.100590 0.083444 -3.406353 0
M  V30 22 H -0.926355 2.512458 -3.739426 0
M  V30 23 H 0.512197 3.090819 0.212465 0
M  V30 24 H 1.248353 0.824431 3.116534 0
M  V30 25 H 1.945021 0.216240 5.335994 0
M  V30 END ATOM
M  V30 BEGIN BOND
M  V30 1 1 1 2
M  V30 2 2 2 3
M  V30 3 1 3 4
M  V30 4 1 4 5
M  V30 5 2 5 6
M  V30 6 1 6 7
M  V30 7 2 7 8
M  V30 8 1 8 9
M  V30 9 2 9 10
M  V30 10 1 10 11
M  V30 11 2 11 12
M  V30 12 1 12 13
M  V30 13 2 13 14
M  V30 14 2 4 15
M  V30 15 1 15 16
M  V30 16 2 16 17
M  V30 17 1 17 2
M  V30 18 1 14 5
M  V30 19 1 13 8
M  V30 20 1 3 18
M  V30 21 1 6 19
M  V30 22 1 7 20
M  V30 23 1 9 21
M  V30 24 1 10 22
M  V30 25 1 12 23
M  V30 26 1 15 24
M  V30 27 1 16 25
M  V30 END BOND
M  V30 END CTAB
M  END
>  <Dataset>  (927) 
ChEMBL_Kinases

>  <Ligand_Instance>  (927) 
nan

>  <PDB_ID>  (927) 
nan

>  <Standardized_SMILES>  (927) 
Fc1cc(-c2ccc3ccncc3n2)ccn1

>  <Name>  (927) 
nan

>  <Pocket>  (927) 
nan

>  <ATP_Site>  (927) 
nan

>  <Peripheral>  (927) 
nan

>  <Num_H_Atoms_ProtBoundConf>  (927) 
nan

>  <Num_Resolved_Atoms>  (927) 
nan

>  <Num_Not_Resolved_Atoms>  (927) 
nan

$$$$
CHEMBL4562507
     RDKit          3D

  0  0  0  0  0  0  0  0  0  0999 V3000
M  V30 BEGIN CTAB
M  V30 COUNTS 58 63 0 0 0
M  V30 BEGIN ATOM
M  V30 1 C 4.681476 -3.732524 1.099763 0
M  V30 2 N 4.934712 -2.770839 0.021953 0
M  V30 3 C 5.938552 -2.890799 -1.024212 0
M  V30 4 C 6.634029 -1.570540 -1.272467 0
M  V30 5 O 5.761099 -0.487487 -1.384109 0
M  V30 6 C 4.555290 -0.503692 -0.697902 0
M  V30 7 C 4.118029 -1.616652 0.006883 0
M  V30 8 C 2.900993 -1.523102 0.654440 0
M  V30 9 N 2.152885 -0.393446 0.610887 0
M  V30 10 N 2.543737 0.679660 -0.051456 0
M  V30 11 C 2.029766 1.911085 -0.268973 0
M  V30 12 C 0.750159 2.405995 0.247308 0
M  V30 13 C 0.517798 3.756427 0.463694 0
M  V30 14 C -0.711182 4.200846 0.955984 0
M  V30 15 C -1.725639 3.283746 1.237296 0
M  V30 16 C -2.918954 3.775796 1.720952 0
M  V30 17 C -3.913463 2.840971 1.993076 0
M  V30 18 C -3.665032 1.513381 1.773179 0
M  V30 19 C -2.475619 1.016742 1.290481 0
M  V30 20 N -2.323970 -0.371068 1.101986 0
M  V30 21 C -3.408782 -1.271968 1.409881 0
M  V30 22 C -3.124968 -2.718219 1.173397 0
M  V30 23 C -4.328552 -3.576393 1.527929 0
M  V30 24 C -5.150649 -3.741037 0.262608 0
M  V30 25 O -5.155821 -2.599772 -0.527399 0
M  V30 26 C -3.930443 -2.462497 -1.166762 0
M  V30 27 C -2.830798 -2.975137 -0.291909 0
M  V30 28 C -1.478043 1.928644 1.014931 0
M  V30 29 C -0.271198 1.523846 0.534572 0
M  V30 30 N 2.898191 2.592935 -1.039149 0
M  V30 31 N 3.959052 1.824372 -1.320505 0
M  V30 32 C 3.734594 0.630639 -0.702499 0
M  V30 33 H 4.647879 -3.281154 2.090403 0
M  V30 34 H 3.641711 -4.104416 0.886875 0
M  V30 35 H 5.331904 -4.618282 1.014000 0
M  V30 36 H 5.429985 -3.240722 -1.954608 0
M  V30 37 H 6.713351 -3.636741 -0.763750 0
M  V30 38 H 7.372137 -1.438629 -0.427211 0
M  V30 39 H 7.242690 -1.709809 -2.202737 0
M  V30 40 H 2.536677 -2.390309 1.217200 0
M  V30 41 H 1.300672 4.470098 0.247100 0
M  V30 42 H -0.842241 5.281101 1.109103 0
M  V30 43 H -3.027167 4.843867 1.864336 0
M  V30 44 H -4.858480 3.199387 2.373612 0
M  V30 45 H -4.472418 0.833557 2.001797 0
M  V30 46 H -1.483631 -0.874367 0.748674 0
M  V30 47 H -3.650850 -1.130906 2.491634 0
M  V30 48 H -4.301253 -0.920405 0.854839 0
M  V30 49 H -2.277574 -3.078788 1.790794 0
M  V30 50 H -4.895603 -3.092984 2.336615 0
M  V30 51 H -3.953345 -4.592145 1.823466 0
M  V30 52 H -4.783420 -4.616592 -0.333280 0
M  V30 53 H -6.202800 -3.970934 0.560379 0
M  V30 54 H -3.932841 -3.072387 -2.113331 0
M  V30 55 H -3.790777 -1.382801 -1.453728 0
M  V30 56 H -2.795573 -4.088180 -0.405993 0
M  V30 57 H -1.828532 -2.602535 -0.584897 0
M  V30 58 H -0.073141 0.497311 0.362117 0
M  V30 END ATOM
M  V30 BEGIN BOND
M  V30 1 1 1 2
M  V30 2 1 2 3
M  V30 3 1 3 4
M  V30 4 1 4 5
M  V30 5 1 5 6
M  V30 6 2 6 7
M  V30 7 1 7 8
M  V30 8 2 8 9
M  V30 9 1 9 10
M  V30 10 1 10 11
M  V30 11 1 11 12
M  V30 12 2 12 13
M  V30 13 1 13 14
M  V30 14 2 14 15
M  V30 15 1 15 16
M  V30 16 2 16 17
M  V30 17 1 17 18
M  V30 18 2 18 19
M  V30 19 1 19 20
M  V30 20 1 20 21
M  V30 21 1 21 22
M  V30 22 1 22 23
M  V30 23 1 23 24
M  V30 24 1 24 25
M  V30 25 1 25 26
M  V30 26 1 26 27
M  V30 27 1 19 28
M  V30 28 2 28 29
M  V30 29 2 11 30
M  V30 30 1 30 31
M  V30 31 2 31 32
M  V30 32 1 7 2
M  V30 33 1 32 10
M  V30 34 1 32 6
M  V30 35 1 29 12
M  V30 36 1 28 15
M  V30 37 1 27 22
M  V30 38 1 1 33
M  V30 39 1 1 34
M  V30 40 1 1 35
M  V30 41 1 3 36
M  V30 42 1 3 37
M  V30 43 1 4 38
M  V30 44 1 4 39
M  V30 45 1 8 40
M  V30 46 1 13 41
M  V30 47 1 14 42
M  V30 48 1 16 43
M  V30 49 1 17 44
M  V30 50 1 18 45
M  V30 51 1 20 46
M  V30 52 1 21 47
M  V30 53 1 21 48
M  V30 54 1 22 49
M  V30 55 1 23 50
M  V30 56 1 23 51
M  V30 57 1 24 52
M  V30 58 1 24 53
M  V30 59 1 26 54
M  V30 60 1 26 55
M  V30 61 1 27 56
M  V30 62 1 27 57
M  V30 63 1 29 58
M  V30 END BOND
M  V30 END CTAB
M  END
>  <Dataset>  (928) 
ChEMBL_Kinases

>  <Ligand_Instance>  (928) 
nan

>  <PDB_ID>  (928) 
nan

>  <Standardized_SMILES>  (928) 
CN1CCOc2c1cnn1c(-c3ccc4cccc(NCC5CCOCC5)c4c3)nnc21

>  <Name>  (928) 
nan

>  <Pocket>  (928) 
nan

>  <ATP_Site>  (928) 
nan

>  <Peripheral>  (928) 
nan

>  <Num_H_Atoms_ProtBoundConf>  (928) 
nan

>  <Num_Resolved_Atoms>  (928) 
nan

>  <Num_Not_Resolved_Atoms>  (928) 
nan

$$$$
CHEMBL4564783
     RDKit          3D

  0  0  0  0  0  0  0  0  0  0999 V3000
M  V30 BEGIN CTAB
M  V30 COUNTS 58 63 0 0 0
M  V30 BEGIN ATOM
M  V30 1 C 4.240152 -2.457740 -0.927267 0
M  V30 2 N 4.549158 -1.236935 -0.223272 0
M  V30 3 C 5.936277 -1.034651 0.084400 0
M  V30 4 C 6.264688 0.374484 0.480981 0
M  V30 5 O 5.190790 1.280763 0.391332 0
M  V30 6 C 3.863961 0.968886 0.434745 0
M  V30 7 C 3.513597 -0.327175 0.120296 0
M  V30 8 C 2.191710 -0.714877 0.142883 0
M  V30 9 N 1.204063 0.167220 0.474403 0
M  V30 10 N 1.528692 1.415769 0.778552 0
M  V30 11 C 0.800705 2.492384 1.137346 0
M  V30 12 C -0.656177 2.508369 1.281130 0
M  V30 13 C -1.295551 3.674090 1.654984 0
M  V30 14 C -2.683469 3.741514 1.805836 0
M  V30 15 C -3.460563 2.607802 1.576054 0
M  V30 16 C -4.839990 2.607692 1.707915 0
M  V30 17 C -5.515025 1.426865 1.455707 0
M  V30 18 F -6.864489 1.494009 1.602743 0
M  V30 19 C -4.826269 0.287285 1.084167 0
M  V30 20 C -3.452585 0.282750 0.951607 0
M  V30 21 N -2.754902 -0.911305 0.564599 0
M  V30 22 C -3.515080 -2.108396 0.316031 0
M  V30 23 C -2.669485 -3.294720 -0.082043 0
M  V30 24 F -3.534395 -4.351432 -0.283494 0
M  V30 25 C -1.819592 -3.012063 -1.284085 0
M  V30 26 C -1.093253 -4.271416 -1.666831 0
M  V30 27 N -0.940126 -5.157908 -0.521574 0
M  V30 28 C -0.504025 -4.328174 0.587299 0
M  V30 29 C -1.728977 -3.575885 1.072215 0
M  V30 30 C -2.777591 1.462029 1.203389 0
M  V30 31 N -1.428308 1.427374 1.065026 0
M  V30 32 N 1.649810 3.543029 1.338052 0
M  V30 33 N 2.901068 3.114641 1.103144 0
M  V30 34 C 2.824022 1.816856 0.762110 0
M  V30 35 H 5.067607 -2.744555 -1.628587 0
M  V30 36 H 3.340498 -2.326692 -1.584773 0
M  V30 37 H 4.136138 -3.282562 -0.210155 0
M  V30 38 H 6.187012 -1.765026 0.887354 0
M  V30 39 H 6.614523 -1.312571 -0.764428 0
M  V30 40 H 7.152925 0.761631 -0.063731 0
M  V30 41 H 6.572282 0.364174 1.552539 0
M  V30 42 H 1.960663 -1.740995 -0.110494 0
M  V30 43 H -0.667194 4.538748 1.826776 0
M  V30 44 H -3.164161 4.663201 2.099062 0
M  V30 45 H -5.297129 3.546185 2.003355 0
M  V30 46 H -5.378268 -0.602772 0.898169 0
M  V30 47 H -1.716300 -0.854681 0.480511 0
M  V30 48 H -4.288221 -1.877897 -0.468050 0
M  V30 49 H -4.094702 -2.448802 1.216338 0
M  V30 50 H -1.052873 -2.269133 -0.979772 0
M  V30 51 H -2.470734 -2.634993 -2.100383 0
M  V30 52 H -0.051464 -4.047336 -2.019532 0
M  V30 53 H -1.589527 -4.792926 -2.514515 0
M  V30 54 H -0.214612 -5.873262 -0.742775 0
M  V30 55 H 0.212351 -3.563574 0.178259 0
M  V30 56 H -0.061452 -4.904153 1.416338 0
M  V30 57 H -1.469265 -2.597169 1.510377 0
M  V30 58 H -2.282328 -4.183825 1.817002 0
M  V30 END ATOM
M  V30 BEGIN BOND
M  V30 1 1 1 2
M  V30 2 1 2 3
M  V30 3 1 3 4
M  V30 4 1 4 5
M  V30 5 1 5 6
M  V30 6 2 6 7
M  V30 7 1 7 8
M  V30 8 2 8 9
M  V30 9 1 9 10
M  V30 10 1 10 11
M  V30 11 1 11 12
M  V30 12 2 12 13
M  V30 13 1 13 14
M  V30 14 2 14 15
M  V30 15 1 15 16
M  V30 16 2 16 17
M  V30 17 1 17 18
M  V30 18 1 17 19
M  V30 19 2 19 20
M  V30 20 1 20 21
M  V30 21 1 21 22
M  V30 22 1 22 23
M  V30 23 1 23 24
M  V30 24 1 23 25
M  V30 25 1 25 26
M  V30 26 1 26 27
M  V30 27 1 27 28
M  V30 28 1 28 29
M  V30 29 1 20 30
M  V30 30 2 30 31
M  V30 31 2 11 32
M  V30 32 1 32 33
M  V30 33 2 33 34
M  V30 34 1 7 2
M  V30 35 1 34 10
M  V30 36 1 34 6
M  V30 37 1 31 12
M  V30 38 1 30 15
M  V30 39 1 29 23
M  V30 40 1 1 35
M  V30 41 1 1 36
M  V30 42 1 1 37
M  V30 43 1 3 38
M  V30 44 1 3 39
M  V30 45 1 4 40
M  V30 46 1 4 41
M  V30 47 1 8 42
M  V30 48 1 13 43
M  V30 49 1 14 44
M  V30 50 1 16 45
M  V30 51 1 19 46
M  V30 52 1 21 47
M  V30 53 1 22 48
M  V30 54 1 22 49
M  V30 55 1 25 50
M  V30 56 1 25 51
M  V30 57 1 26 52
M  V30 58 1 26 53
M  V30 59 1 27 54
M  V30 60 1 28 55
M  V30 61 1 28 56
M  V30 62 1 29 57
M  V30 63 1 29 58
M  V30 END BOND
M  V30 END CTAB
M  END
>  <Dataset>  (929) 
ChEMBL_Kinases

>  <Ligand_Instance>  (929) 
nan

>  <PDB_ID>  (929) 
nan

>  <Standardized_SMILES>  (929) 
CN1CCOc2c1cnn1c(-c3ccc4cc(F)cc(NCC5(F)CCNCC5)c4n3)nnc21

>  <Name>  (929) 
nan

>  <Pocket>  (929) 
nan

>  <ATP_Site>  (929) 
nan

>  <Peripheral>  (929) 
nan

>  <Num_H_Atoms_ProtBoundConf>  (929) 
nan

>  <Num_Resolved_Atoms>  (929) 
nan

>  <Num_Not_Resolved_Atoms>  (929) 
nan

$$$$
CHEMBL4566834
     RDKit          3D

  0  0  0  0  0  0  0  0  0  0999 V3000
M  V30 BEGIN CTAB
M  V30 COUNTS 66 69 0 0 0
M  V30 BEGIN ATOM
M  V30 1 C 2.285429 -0.758486 5.746857 0
M  V30 2 C 3.353719 -0.097260 4.961974 0
M  V30 3 C 3.320353 -0.460494 3.528163 0 CFG=2
M  V30 4 C 4.516578 0.276063 2.897467 0
M  V30 5 O 5.275232 1.073054 3.547536 0
M  V30 6 N 4.764254 0.036623 1.519457 0
M  V30 7 C 6.123406 0.103106 0.983359 0
M  V30 8 C 3.596576 -0.255301 0.734929 0
M  V30 9 C 3.872024 -0.493988 -0.582454 0
M  V30 10 N 2.822193 -0.780899 -1.353359 0
M  V30 11 C 1.564486 -0.823953 -0.820024 0
M  V30 12 N 0.557767 -1.144108 -1.761225 0
M  V30 13 C -0.830430 -1.351598 -1.804841 0
M  V30 14 C -1.435661 -1.226929 -0.551233 0
M  V30 15 C -2.783161 -1.384864 -0.313534 0
M  V30 16 C -3.622529 -1.689951 -1.375656 0
M  V30 17 C -5.061776 -1.886307 -1.280393 0
M  V30 18 O -5.868742 -2.168462 -2.225786 0
M  V30 19 N -5.729047 -1.772967 -0.048539 0
M  V30 20 C -7.178527 -1.975306 0.025068 0
M  V30 21 C -3.005095 -1.808059 -2.599152 0
M  V30 22 C -1.668277 -1.659207 -2.883724 0
M  V30 23 O -1.006573 -1.762447 -4.052092 0
M  V30 24 C -1.446200 -2.038051 -5.341552 0
M  V30 25 C -2.400971 -1.067856 -5.945734 0
M  V30 26 O -2.722259 -1.527561 -7.245464 0
M  V30 27 N 1.372776 -0.578247 0.479281 0
M  V30 28 C 2.348965 -0.279440 1.349459 0
M  V30 29 N 2.157039 -0.018006 2.766388 0
M  V30 30 C 0.903988 0.584563 3.082858 0
M  V30 31 C -0.240810 -0.326327 3.410165 0
M  V30 32 C -1.385757 0.702643 3.478721 0
M  V30 33 C -1.123240 1.531983 2.248296 0
M  V30 34 C 0.393281 1.606290 2.127975 0
M  V30 35 H 1.426888 -0.123877 6.033123 0
M  V30 36 H 1.857428 -1.649162 5.211921 0
M  V30 37 H 2.688763 -1.227075 6.704601 0
M  V30 38 H 3.435080 0.998688 5.148499 0
M  V30 39 H 4.336802 -0.487118 5.369857 0
M  V30 40 H 3.531347 -1.524399 3.384557 0
M  V30 41 H 6.205396 0.999076 0.334147 0
M  V30 42 H 6.808573 0.204999 1.822394 0
M  V30 43 H 6.349992 -0.846120 0.451313 0
M  V30 44 H 4.858435 -0.460510 -1.001527 0
M  V30 45 H 0.859677 -1.289018 -2.771764 0
M  V30 46 H -0.900182 -0.996677 0.352051 0
M  V30 47 H -3.246385 -1.287394 0.656445 0
M  V30 48 H -5.250068 -1.547391 0.847431 0
M  V30 49 H -7.387738 -3.008558 0.372003 0
M  V30 50 H -7.666840 -1.825651 -0.969849 0
M  V30 51 H -7.591837 -1.274092 0.770489 0
M  V30 52 H -3.627790 -2.055017 -3.439169 0
M  V30 53 H -1.949821 -3.049677 -5.324567 0
M  V30 54 H -0.552900 -2.087726 -6.026458 0
M  V30 55 H -3.349677 -0.915425 -5.438021 0
M  V30 56 H -1.938017 -0.045717 -6.085542 0
M  V30 57 H -2.174042 -2.325725 -7.497406 0
M  V30 58 H 1.022151 1.187120 4.067935 0
M  V30 59 H -0.429916 -1.085347 2.621281 0
M  V30 60 H -0.159725 -0.753382 4.404237 0
M  V30 61 H -2.371438 0.241316 3.492892 0
M  V30 62 H -1.169574 1.303214 4.399839 0
M  V30 63 H -1.598858 1.001611 1.401424 0
M  V30 64 H -1.570227 2.558445 2.363926 0
M  V30 65 H 0.655442 2.662433 2.457777 0
M  V30 66 H 0.736830 1.555603 1.100208 0
M  V30 END ATOM
M  V30 BEGIN BOND
M  V30 1 1 1 2
M  V30 2 1 2 3
M  V30 3 1 3 4
M  V30 4 2 4 5
M  V30 5 1 4 6
M  V30 6 1 6 7
M  V30 7 1 6 8
M  V30 8 2 8 9
M  V30 9 1 9 10
M  V30 10 2 10 11
M  V30 11 1 11 12
M  V30 12 1 12 13
M  V30 13 2 13 14
M  V30 14 1 14 15
M  V30 15 2 15 16
M  V30 16 1 16 17
M  V30 17 2 17 18
M  V30 18 1 17 19
M  V30 19 1 19 20
M  V30 20 1 16 21
M  V30 21 2 21 22
M  V30 22 1 22 23
M  V30 23 1 23 24
M  V30 24 1 24 25
M  V30 25 1 25 26
M  V30 26 1 11 27
M  V30 27 2 27 28
M  V30 28 1 28 29
M  V30 29 1 29 30
M  V30 30 1 30 31
M  V30 31 1 31 32
M  V30 32 1 32 33
M  V30 33 1 33 34
M  V30 34 1 29 3
M  V30 35 1 34 30
M  V30 36 1 28 8
M  V30 37 1 22 13
M  V30 38 1 1 35
M  V30 39 1 1 36
M  V30 40 1 1 37
M  V30 41 1 2 38
M  V30 42 1 2 39
M  V30 43 1 3 40 CFG=1
M  V30 44 1 7 41
M  V30 45 1 7 42
M  V30 46 1 7 43
M  V30 47 1 9 44
M  V30 48 1 12 45
M  V30 49 1 14 46
M  V30 50 1 15 47
M  V30 51 1 19 48
M  V30 52 1 20 49
M  V30 53 1 20 50
M  V30 54 1 20 51
M  V30 55 1 21 52
M  V30 56 1 24 53
M  V30 57 1 24 54
M  V30 58 1 25 55
M  V30 59 1 25 56
M  V30 60 1 26 57
M  V30 61 1 30 58
M  V30 62 1 31 59
M  V30 63 1 31 60
M  V30 64 1 32 61
M  V30 65 1 32 62
M  V30 66 1 33 63
M  V30 67 1 33 64
M  V30 68 1 34 65
M  V30 69 1 34 66
M  V30 END BOND
M  V30 END CTAB
M  END
>  <Dataset>  (930) 
ChEMBL_Kinases

>  <Ligand_Instance>  (930) 
nan

>  <PDB_ID>  (930) 
nan

>  <Standardized_SMILES>  (930) 
CC[C@@H]1C(=O)N(C)c2cnc(Nc3ccc(C(=O)NC)cc3OCCO)nc2N1C1CCCC1

>  <Name>  (930) 
nan

>  <Pocket>  (930) 
nan

>  <ATP_Site>  (930) 
nan

>  <Peripheral>  (930) 
nan

>  <Num_H_Atoms_ProtBoundConf>  (930) 
nan

>  <Num_Resolved_Atoms>  (930) 
nan

>  <Num_Not_Resolved_Atoms>  (930) 
nan

$$$$
CHEMBL4636475
     RDKit          3D

  0  0  0  0  0  0  0  0  0  0999 V3000
M  V30 BEGIN CTAB
M  V30 COUNTS 54 57 0 0 0
M  V30 BEGIN ATOM
M  V30 1 C 2.437590 4.643444 0.853098 0
M  V30 2 O 1.829528 3.415814 0.633241 0
M  V30 3 C 2.379734 2.169164 0.615504 0
M  V30 4 C 3.707619 1.851541 0.823589 0
M  V30 5 C 4.226527 0.568303 0.796039 0
M  V30 6 N 5.621728 0.489514 1.043813 0
M  V30 7 S 6.677079 1.219502 2.194596 0
M  V30 8 C 6.179913 0.724798 3.809635 0
M  V30 9 O 8.069684 0.795206 1.863017 0
M  V30 10 O 6.514698 2.720779 2.045730 0
M  V30 11 C 3.336662 -0.451875 0.540636 0
M  V30 12 C 2.009778 -0.158087 0.330577 0
M  V30 13 C 1.490546 1.118996 0.357974 0
M  V30 14 N 0.105819 1.354292 0.153200 0
M  V30 15 C -0.921840 0.432047 -0.174166 0
M  V30 16 N -1.417219 0.681145 -1.415102 0
M  V30 17 C -2.399576 -0.049067 -1.976304 0
M  V30 18 C -2.920006 -1.100208 -1.242561 0
M  V30 19 C -2.423722 -1.369393 0.027874 0
M  V30 20 N -1.429056 -0.592028 0.537943 0
M  V30 21 N -2.758903 -2.380354 0.971515 0
M  V30 22 C -2.415355 -2.168140 2.357644 0
M  V30 23 C -3.408776 -3.595910 0.624298 0
M  V30 24 C -3.239760 -4.546017 1.600508 0
M  V30 25 C -3.787238 -5.785907 1.457831 0
M  V30 26 C -4.521388 -6.129428 0.343928 0
M  V30 27 C -4.720649 -5.204531 -0.670869 0
M  V30 28 C -4.158192 -3.978973 -0.490545 0
M  V30 29 C -4.485978 -3.159980 -1.672007 0
M  V30 30 O -5.241444 -3.576965 -2.573438 0
M  V30 31 N -3.978620 -1.825633 -1.901220 0
M  V30 32 C -4.604829 -1.028023 -2.957138 0
M  V30 33 H 1.958226 5.122255 1.752325 0
M  V30 34 H 2.194835 5.285634 -0.035718 0
M  V30 35 H 3.537070 4.598249 0.930898 0
M  V30 36 H 4.320563 2.726698 1.017072 0
M  V30 37 H 5.957127 -0.182361 0.303514 0
M  V30 38 H 5.144305 0.282125 3.844750 0
M  V30 39 H 6.842057 -0.024083 4.270923 0
M  V30 40 H 6.134249 1.619283 4.481104 0
M  V30 41 H 3.781053 -1.436849 0.526923 0
M  V30 42 H 1.340029 -1.004256 0.132310 0
M  V30 43 H -0.236338 2.337246 0.247772 0
M  V30 44 H -2.806616 0.134669 -2.965413 0
M  V30 45 H -1.424058 -2.624456 2.613181 0
M  V30 46 H -3.221512 -2.423961 3.059805 0
M  V30 47 H -2.242904 -1.065937 2.545355 0
M  V30 48 H -2.666962 -4.288952 2.473676 0
M  V30 49 H -3.624393 -6.497084 2.255488 0
M  V30 50 H -4.954377 -7.104435 0.230039 0
M  V30 51 H -5.289710 -5.449694 -1.549397 0
M  V30 52 H -5.647510 -1.461751 -3.044654 0
M  V30 53 H -4.801264 0.017055 -2.650121 0
M  V30 54 H -4.157265 -1.166875 -3.939972 0
M  V30 END ATOM
M  V30 BEGIN BOND
M  V30 1 1 1 2
M  V30 2 1 2 3
M  V30 3 2 3 4
M  V30 4 1 4 5
M  V30 5 1 5 6
M  V30 6 1 6 7
M  V30 7 1 7 8
M  V30 8 2 7 9
M  V30 9 2 7 10
M  V30 10 2 5 11
M  V30 11 1 11 12
M  V30 12 2 12 13
M  V30 13 1 13 14
M  V30 14 1 14 15
M  V30 15 2 15 16
M  V30 16 1 16 17
M  V30 17 2 17 18
M  V30 18 1 18 19
M  V30 19 2 19 20
M  V30 20 1 19 21
M  V30 21 1 21 22
M  V30 22 1 21 23
M  V30 23 2 23 24
M  V30 24 1 24 25
M  V30 25 2 25 26
M  V30 26 1 26 27
M  V30 27 2 27 28
M  V30 28 1 28 29
M  V30 29 2 29 30
M  V30 30 1 29 31
M  V30 31 1 31 32
M  V30 32 1 13 3
M  V30 33 1 20 15
M  V30 34 1 28 23
M  V30 35 1 31 18
M  V30 36 1 1 33
M  V30 37 1 1 34
M  V30 38 1 1 35
M  V30 39 1 4 36
M  V30 40 1 6 37
M  V30 41 1 8 38
M  V30 42 1 8 39
M  V30 43 1 8 40
M  V30 44 1 11 41
M  V30 45 1 12 42
M  V30 46 1 14 43
M  V30 47 1 17 44
M  V30 48 1 22 45
M  V30 49 1 22 46
M  V30 50 1 22 47
M  V30 51 1 24 48
M  V30 52 1 25 49
M  V30 53 1 26 50
M  V30 54 1 27 51
M  V30 55 1 32 52
M  V30 56 1 32 53
M  V30 57 1 32 54
M  V30 END BOND
M  V30 END CTAB
M  END
>  <Dataset>  (931) 
ChEMBL_Kinases

>  <Ligand_Instance>  (931) 
nan

>  <PDB_ID>  (931) 
nan

>  <Standardized_SMILES>  (931) 
COc1cc(NS(C)(=O)=O)ccc1Nc1ncc2c(n1)N(C)c1ccccc1C(=O)N2C

>  <Name>  (931) 
nan

>  <Pocket>  (931) 
nan

>  <ATP_Site>  (931) 
nan

>  <Peripheral>  (931) 
nan

>  <Num_H_Atoms_ProtBoundConf>  (931) 
nan

>  <Num_Resolved_Atoms>  (931) 
nan

>  <Num_Not_Resolved_Atoms>  (931) 
nan

$$$$
CHEMBL2035608
     RDKit          3D

  0  0  0  0  0  0  0  0  0  0999 V3000
M  V30 BEGIN CTAB
M  V30 COUNTS 40 44 0 0 0
M  V30 BEGIN ATOM
M  V30 1 O 1.384039 4.603329 -0.007953 0
M  V30 2 C 1.435567 3.350706 0.056007 0
M  V30 3 N 2.530130 2.656461 -0.258006 0
M  V30 4 C 2.717720 1.341271 -0.234800 0
M  V30 5 C 3.873816 0.549110 -0.564756 0
M  V30 6 C 3.789743 -0.827416 -0.440082 0
M  V30 7 C 4.801989 -1.695510 -0.717572 0
M  V30 8 C 6.008050 -1.220139 -1.154171 0
M  V30 9 C 6.153362 0.136473 -1.297934 0
M  V30 10 C 5.094370 0.955355 -1.001339 0
M  V30 11 Cl 5.432079 2.642782 -1.234106 0
M  V30 12 N 1.614182 0.718337 0.167148 0
M  V30 13 C 0.451307 1.278009 0.512324 0
M  V30 14 C 0.326237 2.646263 0.465080 0
M  V30 15 O -0.893377 2.927579 0.846727 0
M  V30 16 C -1.563918 1.820187 1.137949 0
M  V30 17 C -2.854916 1.574308 1.577041 0
M  V30 18 C -3.239770 0.263495 1.787816 0
M  V30 19 C -2.391068 -0.824400 1.579767 0
M  V30 20 C -2.934702 -2.155501 1.844424 0
M  V30 21 C -2.500149 -3.266658 1.122233 0
M  V30 22 C -3.023263 -4.517285 1.385018 0
M  V30 23 C -3.990894 -4.637423 2.385121 0
M  V30 24 C -4.439463 -3.554043 3.115734 0
M  V30 25 C -3.893612 -2.312295 2.826696 0
M  V30 26 C -1.103110 -0.584888 1.142049 0
M  V30 27 C -0.740715 0.731423 0.938329 0
M  V30 28 H 3.319480 3.249252 -0.554463 0
M  V30 29 H 2.855717 -1.294554 -0.095064 0
M  V30 30 H 4.669762 -2.749974 -0.599361 0
M  V30 31 H 6.789841 -1.927866 -1.365887 0
M  V30 32 H 7.112402 0.473727 -1.642188 0
M  V30 33 H -3.517663 2.405898 1.740619 0
M  V30 34 H -4.259973 0.156135 2.129275 0
M  V30 35 H -1.750422 -3.155821 0.351441 0
M  V30 36 H -2.721372 -5.419565 0.852603 0
M  V30 37 H -4.437806 -5.610844 2.631758 0
M  V30 38 H -5.191564 -3.689947 3.882680 0
M  V30 39 H -4.258110 -1.461524 3.413507 0
M  V30 40 H -0.450448 -1.422896 0.982164 0
M  V30 END ATOM
M  V30 BEGIN BOND
M  V30 1 2 1 2
M  V30 2 1 2 3
M  V30 3 1 3 4
M  V30 4 1 4 5
M  V30 5 2 5 6
M  V30 6 1 6 7
M  V30 7 2 7 8
M  V30 8 1 8 9
M  V30 9 2 9 10
M  V30 10 1 10 11
M  V30 11 2 4 12
M  V30 12 1 12 13
M  V30 13 2 13 14
M  V30 14 1 14 15
M  V30 15 1 15 16
M  V30 16 2 16 17
M  V30 17 1 17 18
M  V30 18 2 18 19
M  V30 19 1 19 20
M  V30 20 2 20 21
M  V30 21 1 21 22
M  V30 22 2 22 23
M  V30 23 1 23 24
M  V30 24 2 24 25
M  V30 25 1 19 26
M  V30 26 2 26 27
M  V30 27 1 14 2
M  V30 28 1 27 16
M  V30 29 1 10 5
M  V30 30 1 27 13
M  V30 31 1 25 20
M  V30 32 1 3 28
M  V30 33 1 6 29
M  V30 34 1 7 30
M  V30 35 1 8 31
M  V30 36 1 9 32
M  V30 37 1 17 33
M  V30 38 1 18 34
M  V30 39 1 21 35
M  V30 40 1 22 36
M  V30 41 1 23 37
M  V30 42 1 24 38
M  V30 43 1 25 39
M  V30 44 1 26 40
M  V30 END BOND
M  V30 END CTAB
M  END
>  <Dataset>  (932) 
ChEMBL_Kinases

>  <Ligand_Instance>  (932) 
nan

>  <PDB_ID>  (932) 
nan

>  <Standardized_SMILES>  (932) 
O=c1[nH]c(-c2ccccc2Cl)nc2c1oc1ccc(-c3ccccc3)cc12

>  <Name>  (932) 
nan

>  <Pocket>  (932) 
nan

>  <ATP_Site>  (932) 
nan

>  <Peripheral>  (932) 
nan

>  <Num_H_Atoms_ProtBoundConf>  (932) 
nan

>  <Num_Resolved_Atoms>  (932) 
nan

>  <Num_Not_Resolved_Atoms>  (932) 
nan

$$$$
CHEMBL4636072
     RDKit          3D

  0  0  0  0  0  0  0  0  0  0999 V3000
M  V30 BEGIN CTAB
M  V30 COUNTS 70 75 0 0 0
M  V30 BEGIN ATOM
M  V30 1 C 4.400102 -0.417691 -1.516058 0
M  V30 2 O 3.181808 -0.077950 -1.269547 0
M  V30 3 C 2.052023 0.546831 -1.465195 0
M  V30 4 C 1.900497 1.385868 -2.554122 0
M  V30 5 C 0.768838 2.094407 -2.885099 0
M  V30 6 N 0.657689 2.954827 -4.037169 0
M  V30 7 C -0.586401 3.732412 -4.150907 0
M  V30 8 C -0.676814 4.364772 -5.521631 0
M  V30 9 N -0.187044 3.454835 -6.544237 0
M  V30 10 C -0.932166 2.235804 -6.641490 0
M  V30 11 C 1.226691 3.227364 -6.415002 0
M  V30 12 C 1.713060 3.060470 -5.015842 0
M  V30 13 C -0.285086 1.919228 -2.018156 0
M  V30 14 C -0.193307 1.088799 -0.905769 0
M  V30 15 C 0.950097 0.395677 -0.607074 0
M  V30 16 N 1.153837 -0.464487 0.492715 0
M  V30 17 C 0.126949 -1.086878 1.253081 0
M  V30 18 N -1.089142 -0.991455 0.674658 0
M  V30 19 C -2.218440 -1.529107 1.148922 0
M  V30 20 C -2.194431 -2.241294 2.305474 0
M  V30 21 C -0.914931 -2.317902 2.878872 0
M  V30 22 N 0.205016 -1.771262 2.390159 0
M  V30 23 N -0.602819 -3.025525 4.107463 0
M  V30 24 C 0.398114 -2.522242 4.945407 0
M  V30 25 C 1.797996 -2.305757 4.658623 0
M  V30 26 C 1.740159 -1.158695 5.714721 0
M  V30 27 C 0.305593 -0.985480 5.201304 0
M  V30 28 C -1.273320 -4.245844 4.564807 0
M  V30 29 C -0.337465 -5.052418 5.240738 0
M  V30 30 C -0.879122 -6.259201 5.731995 0
M  V30 31 C -2.198230 -6.524851 5.520305 0
M  V30 32 C -3.113053 -5.751941 4.867077 0
M  V30 33 C -2.628464 -4.563996 4.369663 0
M  V30 34 C -3.621421 -3.752248 3.680178 0
M  V30 35 O -4.822186 -3.973460 4.037699 0
M  V30 36 N -3.469048 -2.757625 2.674166 0
M  V30 37 C -4.618730 -2.229109 1.991167 0
M  V30 38 H 4.592774 -1.510951 -1.749856 0
M  V30 39 H 4.861851 0.149688 -2.388804 0
M  V30 40 H 5.129236 -0.218222 -0.650217 0
M  V30 41 H 2.769735 1.477414 -3.183553 0
M  V30 42 H -0.564789 4.536386 -3.368902 0
M  V30 43 H -1.455336 3.090635 -3.988378 0
M  V30 44 H -0.046686 5.265935 -5.533772 0
M  V30 45 H -1.743024 4.624873 -5.685723 0
M  V30 46 H -1.571599 2.061065 -5.766872 0
M  V30 47 H -0.257917 1.359770 -6.823343 0
M  V30 48 H -1.557553 2.291906 -7.578744 0
M  V30 49 H 1.451762 2.306958 -7.000613 0
M  V30 50 H 1.764348 4.048797 -6.951461 0
M  V30 51 H 2.365826 2.156938 -4.962496 0
M  V30 52 H 2.345368 3.952317 -4.763595 0
M  V30 53 H -1.224755 2.413934 -2.150708 0
M  V30 54 H -1.044595 1.026251 -0.282548 0
M  V30 55 H 2.076166 -0.738818 0.872748 0
M  V30 56 H -3.179981 -1.438594 0.667181 0
M  V30 57 H 0.274351 -2.867675 6.016812 0
M  V30 58 H 2.160606 -1.827685 3.734145 0
M  V30 59 H 2.597689 -2.984915 5.012799 0
M  V30 60 H 1.702161 -1.599374 6.735264 0
M  V30 61 H 2.431521 -0.343122 5.526529 0
M  V30 62 H 0.326190 -0.391792 4.307700 0
M  V30 63 H -0.445456 -0.673115 5.910275 0
M  V30 64 H 0.670726 -4.666008 5.309600 0
M  V30 65 H -0.175321 -6.875058 6.243026 0
M  V30 66 H -2.582597 -7.477272 5.922921 0
M  V30 67 H -4.151448 -5.933985 4.687993 0
M  V30 68 H -4.670473 -1.117003 2.043561 0
M  V30 69 H -4.776011 -2.643534 0.972709 0
M  V30 70 H -5.527848 -2.544941 2.582933 0
M  V30 END ATOM
M  V30 BEGIN BOND
M  V30 1 1 1 2
M  V30 2 1 2 3
M  V30 3 2 3 4
M  V30 4 1 4 5
M  V30 5 1 5 6
M  V30 6 1 6 7
M  V30 7 1 7 8
M  V30 8 1 8 9
M  V30 9 1 9 10
M  V30 10 1 9 11
M  V30 11 1 11 12
M  V30 12 2 5 13
M  V30 13 1 13 14
M  V30 14 2 14 15
M  V30 15 1 15 16
M  V30 16 1 16 17
M  V30 17 2 17 18
M  V30 18 1 18 19
M  V30 19 2 19 20
M  V30 20 1 20 21
M  V30 21 2 21 22
M  V30 22 1 21 23
M  V30 23 1 23 24
M  V30 24 1 24 25
M  V30 25 1 25 26
M  V30 26 1 26 27
M  V30 27 1 23 28
M  V30 28 2 28 29
M  V30 29 1 29 30
M  V30 30 2 30 31
M  V30 31 1 31 32
M  V30 32 2 32 33
M  V30 33 1 33 34
M  V30 34 2 34 35
M  V30 35 1 34 36
M  V30 36 1 36 37
M  V30 37 1 15 3
M  V30 38 1 22 17
M  V30 39 1 27 24
M  V30 40 1 33 28
M  V30 41 1 12 6
M  V30 42 1 36 20
M  V30 43 1 1 38
M  V30 44 1 1 39
M  V30 45 1 1 40
M  V30 46 1 4 41
M  V30 47 1 7 42
M  V30 48 1 7 43
M  V30 49 1 8 44
M  V30 50 1 8 45
M  V30 51 1 10 46
M  V30 52 1 10 47
M  V30 53 1 10 48
M  V30 54 1 11 49
M  V30 55 1 11 50
M  V30 56 1 12 51
M  V30 57 1 12 52
M  V30 58 1 13 53
M  V30 59 1 14 54
M  V30 60 1 16 55
M  V30 61 1 19 56
M  V30 62 1 24 57
M  V30 63 1 25 58
M  V30 64 1 25 59
M  V30 65 1 26 60
M  V30 66 1 26 61
M  V30 67 1 27 62
M  V30 68 1 27 63
M  V30 69 1 29 64
M  V30 70 1 30 65
M  V30 71 1 31 66
M  V30 72 1 32 67
M  V30 73 1 37 68
M  V30 74 1 37 69
M  V30 75 1 37 70
M  V30 END BOND
M  V30 END CTAB
M  END
>  <Dataset>  (933) 
ChEMBL_Kinases

>  <Ligand_Instance>  (933) 
nan

>  <PDB_ID>  (933) 
nan

>  <Standardized_SMILES>  (933) 
COc1cc(N2CCN(C)CC2)ccc1Nc1ncc2c(n1)N(C1CCC1)c1ccccc1C(=O)N2C

>  <Name>  (933) 
nan

>  <Pocket>  (933) 
nan

>  <ATP_Site>  (933) 
nan

>  <Peripheral>  (933) 
nan

>  <Num_H_Atoms_ProtBoundConf>  (933) 
nan

>  <Num_Resolved_Atoms>  (933) 
nan

>  <Num_Not_Resolved_Atoms>  (933) 
nan

$$$$
CHEMBL4635988
     RDKit          3D

  0  0  0  0  0  0  0  0  0  0999 V3000
M  V30 BEGIN CTAB
M  V30 COUNTS 50 54 0 0 0
M  V30 BEGIN ATOM
M  V30 1 C 0.124586 -7.389181 1.129169 0
M  V30 2 C 0.631091 -6.676942 2.198484 0
M  V30 3 C 0.769983 -5.283399 2.182956 0
M  V30 4 C 0.372916 -4.639505 1.035098 0
M  V30 5 C 0.461818 -3.247690 0.896160 0
M  V30 6 C 0.064124 -2.568415 -0.262914 0
M  V30 7 C 0.276774 -1.137982 -0.119347 0
M  V30 8 N 1.567769 -0.755691 -0.155525 0
M  V30 9 N 1.964750 0.506222 -0.039415 0
M  V30 10 C 1.072086 1.515261 0.127283 0
M  V30 11 N 1.477516 2.874292 0.253731 0
M  V30 12 C 0.613960 3.994405 0.436084 0
M  V30 13 C 1.469608 5.126274 1.001856 0
M  V30 14 C 2.407768 4.614868 2.075298 0
M  V30 15 C 3.379079 3.596474 1.565118 0
M  V30 16 C 2.895705 3.173509 0.194317 0
M  V30 17 C -0.256023 1.136734 0.166138 0
M  V30 18 C -0.692419 -0.172583 0.047021 0
M  V30 19 C -2.074825 -0.575372 0.085191 0
M  V30 20 C -2.942214 -1.057901 -0.872423 0
M  V30 21 C -4.241897 -1.375770 -0.540394 0
M  V30 22 N -4.695645 -1.224287 0.719387 0
M  V30 23 C -3.893779 -0.754518 1.707007 0
M  V30 24 C -2.574976 -0.428221 1.386820 0
M  V30 25 C -0.435596 -3.316873 -1.306897 0
M  V30 26 C -0.537620 -4.687617 -1.205529 0
M  V30 27 C -0.136298 -5.322056 -0.048708 0
M  V30 28 C -0.271401 -6.706555 -0.026284 0
M  V30 29 H 0.033241 -8.466151 1.181128 0
M  V30 30 H 0.939528 -7.222616 3.101022 0
M  V30 31 H 1.164912 -4.717716 3.014311 0
M  V30 32 H 0.875930 -2.771160 1.798581 0
M  V30 33 H 0.252767 4.369929 -0.561549 0
M  V30 34 H -0.285051 3.825342 1.037421 0
M  V30 35 H 0.813204 5.876640 1.479518 0
M  V30 36 H 2.101076 5.527420 0.187187 0
M  V30 37 H 2.978204 5.461648 2.454106 0
M  V30 38 H 1.792431 4.211857 2.902087 0
M  V30 39 H 4.402484 3.989509 1.429633 0
M  V30 40 H 3.419388 2.729499 2.229131 0
M  V30 41 H 3.483580 2.274702 -0.081244 0
M  V30 42 H 3.110133 3.924082 -0.589806 0
M  V30 43 H -1.036654 1.884766 0.296965 0
M  V30 44 H -2.453022 -1.124784 -1.832050 0
M  V30 45 H -4.810377 -1.741770 -1.384030 0
M  V30 46 H -4.325797 -0.662387 2.678997 0
M  V30 47 H -2.038141 -0.061548 2.276121 0
M  V30 48 H -0.706366 -2.696861 -2.148615 0
M  V30 49 H -0.941629 -5.195782 -2.074551 0
M  V30 50 H -0.665157 -7.273534 -0.854780 0
M  V30 END ATOM
M  V30 BEGIN BOND
M  V30 1 2 1 2
M  V30 2 1 2 3
M  V30 3 2 3 4
M  V30 4 1 4 5
M  V30 5 2 5 6
M  V30 6 1 6 7
M  V30 7 2 7 8
M  V30 8 1 8 9
M  V30 9 2 9 10
M  V30 10 1 10 11
M  V30 11 1 11 12
M  V30 12 1 12 13
M  V30 13 1 13 14
M  V30 14 1 14 15
M  V30 15 1 15 16
M  V30 16 1 10 17
M  V30 17 2 17 18
M  V30 18 1 18 19
M  V30 19 2 19 20
M  V30 20 1 20 21
M  V30 21 2 21 22
M  V30 22 1 22 23
M  V30 23 2 23 24
M  V30 24 1 6 25
M  V30 25 2 25 26
M  V30 26 1 26 27
M  V30 27 2 27 28
M  V30 28 1 28 1
M  V30 29 1 27 4
M  V30 30 1 18 7
M  V30 31 1 24 19
M  V30 32 1 16 11
M  V30 33 1 1 29
M  V30 34 1 2 30
M  V30 35 1 3 31
M  V30 36 1 5 32
M  V30 37 1 12 33
M  V30 38 1 12 34
M  V30 39 1 13 35
M  V30 40 1 13 36
M  V30 41 1 14 37
M  V30 42 1 14 38
M  V30 43 1 15 39
M  V30 44 1 15 40
M  V30 45 1 16 41
M  V30 46 1 16 42
M  V30 47 1 17 43
M  V30 48 1 20 44
M  V30 49 1 21 45
M  V30 50 1 23 46
M  V30 51 1 24 47
M  V30 52 1 25 48
M  V30 53 1 26 49
M  V30 54 1 28 50
M  V30 END BOND
M  V30 END CTAB
M  END
>  <Dataset>  (934) 
ChEMBL_Kinases

>  <Ligand_Instance>  (934) 
nan

>  <PDB_ID>  (934) 
nan

>  <Standardized_SMILES>  (934) 
c1ccc2cc(-c3nnc(N4CCCCC4)cc3-c3ccncc3)ccc2c1

>  <Name>  (934) 
nan

>  <Pocket>  (934) 
nan

>  <ATP_Site>  (934) 
nan

>  <Peripheral>  (934) 
nan

>  <Num_H_Atoms_ProtBoundConf>  (934) 
nan

>  <Num_Resolved_Atoms>  (934) 
nan

>  <Num_Not_Resolved_Atoms>  (934) 
nan

$$$$
CHEMBL4635980
     RDKit          3D

  0  0  0  0  0  0  0  0  0  0999 V3000
M  V30 BEGIN CTAB
M  V30 COUNTS 50 54 0 0 0
M  V30 BEGIN ATOM
M  V30 1 C -0.310736 -2.369388 -4.580464 0
M  V30 2 N 0.801437 -3.164657 -4.125081 0
M  V30 3 C 1.973834 -2.441927 -3.829650 0
M  V30 4 C 2.506313 -2.604940 -2.435782 0
M  V30 5 N 1.399812 -2.933972 -1.562868 0
M  V30 6 C 0.831478 -2.155069 -0.521723 0
M  V30 7 C 1.283101 -0.898065 -0.189731 0
M  V30 8 C 0.678987 -0.198966 0.837266 0
M  V30 9 C 1.069342 1.123171 1.270083 0
M  V30 10 C 1.531785 1.172351 2.571883 0
M  V30 11 C 1.938845 2.398955 3.102492 0
M  V30 12 N 1.894689 3.536156 2.384481 0
M  V30 13 C 1.440242 3.471902 1.113501 0
M  V30 14 C 1.020751 2.300582 0.518445 0
M  V30 15 C -0.386505 -0.781345 1.526778 0
M  V30 16 C -1.071463 -0.087464 2.630065 0
M  V30 17 C -1.682421 1.078443 2.204896 0
M  V30 18 C -2.375607 1.865463 3.102173 0
M  V30 19 C -2.453274 1.481500 4.418541 0
M  V30 20 N -3.043838 2.029650 5.497785 0
M  V30 21 C -2.807738 1.232428 6.554526 0
M  V30 22 C -2.042262 0.125563 6.176174 0
M  V30 23 C -1.845275 0.328353 4.823391 0
M  V30 24 C -1.143427 -0.482222 3.950205 0
M  V30 25 N -0.773045 -2.013031 1.146368 0
M  V30 26 N -0.195867 -2.683398 0.163608 0
M  V30 27 C 0.890434 -4.250485 -1.891622 0
M  V30 28 C 0.452747 -4.256752 -3.303375 0
M  V30 29 H -0.264304 -1.309262 -4.276630 0
M  V30 30 H -1.215045 -2.818871 -4.076592 0
M  V30 31 H -0.465523 -2.519862 -5.668375 0
M  V30 32 H 2.777170 -2.741709 -4.533372 0
M  V30 33 H 1.792404 -1.358387 -3.994991 0
M  V30 34 H 3.318005 -3.381751 -2.401553 0
M  V30 35 H 2.986290 -1.690657 -2.036144 0
M  V30 36 H 2.091916 -0.446765 -0.707669 0
M  V30 37 H 1.603255 0.311685 3.224597 0
M  V30 38 H 2.305086 2.435806 4.134362 0
M  V30 39 H 1.394382 4.372211 0.513596 0
M  V30 40 H 0.653712 2.187485 -0.476247 0
M  V30 41 H -1.692782 1.486589 1.197975 0
M  V30 42 H -2.875243 2.788877 2.831343 0
M  V30 43 H -3.592083 2.921949 5.512695 0
M  V30 44 H -3.178115 1.454782 7.543964 0
M  V30 45 H -1.695645 -0.678074 6.783380 0
M  V30 46 H -0.627299 -1.409858 4.161832 0
M  V30 47 H 0.066656 -4.556272 -1.214359 0
M  V30 48 H 1.763811 -4.953853 -1.763194 0
M  V30 49 H -0.658059 -4.368123 -3.338135 0
M  V30 50 H 0.830590 -5.190213 -3.799581 0
M  V30 END ATOM
M  V30 BEGIN BOND
M  V30 1 1 1 2
M  V30 2 1 2 3
M  V30 3 1 3 4
M  V30 4 1 4 5
M  V30 5 1 5 6
M  V30 6 2 6 7
M  V30 7 1 7 8
M  V30 8 1 8 9
M  V30 9 2 9 10
M  V30 10 1 10 11
M  V30 11 2 11 12
M  V30 12 1 12 13
M  V30 13 2 13 14
M  V30 14 2 8 15
M  V30 15 1 15 16
M  V30 16 2 16 17
M  V30 17 1 17 18
M  V30 18 2 18 19
M  V30 19 1 19 20
M  V30 20 1 20 21
M  V30 21 2 21 22
M  V30 22 1 22 23
M  V30 23 2 23 24
M  V30 24 1 15 25
M  V30 25 2 25 26
M  V30 26 1 5 27
M  V30 27 1 27 28
M  V30 28 1 28 2
M  V30 29 1 26 6
M  V30 30 1 14 9
M  V30 31 1 24 16
M  V30 32 1 23 19
M  V30 33 1 1 29
M  V30 34 1 1 30
M  V30 35 1 1 31
M  V30 36 1 3 32
M  V30 37 1 3 33
M  V30 38 1 4 34
M  V30 39 1 4 35
M  V30 40 1 7 36
M  V30 41 1 10 37
M  V30 42 1 11 38
M  V30 43 1 13 39
M  V30 44 1 14 40
M  V30 45 1 17 41
M  V30 46 1 18 42
M  V30 47 1 20 43
M  V30 48 1 21 44
M  V30 49 1 22 45
M  V30 50 1 24 46
M  V30 51 1 27 47
M  V30 52 1 27 48
M  V30 53 1 28 49
M  V30 54 1 28 50
M  V30 END BOND
M  V30 END CTAB
M  END
>  <Dataset>  (935) 
ChEMBL_Kinases

>  <Ligand_Instance>  (935) 
nan

>  <PDB_ID>  (935) 
nan

>  <Standardized_SMILES>  (935) 
CN1CCN(c2cc(-c3ccncc3)c(-c3ccc4[nH]ccc4c3)nn2)CC1

>  <Name>  (935) 
nan

>  <Pocket>  (935) 
nan

>  <ATP_Site>  (935) 
nan

>  <Peripheral>  (935) 
nan

>  <Num_H_Atoms_ProtBoundConf>  (935) 
nan

>  <Num_Resolved_Atoms>  (935) 
nan

>  <Num_Not_Resolved_Atoms>  (935) 
nan

$$$$
CHEMBL4635959
     RDKit          3D

  0  0  0  0  0  0  0  0  0  0999 V3000
M  V30 BEGIN CTAB
M  V30 COUNTS 75 78 0 0 0
M  V30 BEGIN ATOM
M  V30 1 C 3.700307 -6.137219 2.957404 0
M  V30 2 C 3.570629 -4.922312 2.104531 0
M  V30 3 C 3.482999 -3.688050 2.703892 0
M  V30 4 C 3.359262 -2.504999 2.004994 0
M  V30 5 N 3.286238 -1.271145 2.688716 0
M  V30 6 C 3.123676 0.051549 2.122082 0
M  V30 7 C 1.749590 0.102123 1.489318 0
M  V30 8 C 0.922995 1.053208 2.373547 0
M  V30 9 N 1.480388 2.357925 2.056818 0
M  V30 10 C 0.901635 3.403270 1.282762 0
M  V30 11 O 1.576336 4.457888 1.140624 0
M  V30 12 O -0.342042 3.056607 0.810470 0
M  V30 13 C -1.100671 3.955138 0.011853 0 CFG=1
M  V30 14 C -1.364246 3.165068 -1.281385 0
M  V30 15 C -2.219644 2.051820 -0.659335 0
M  V30 16 N -3.215731 2.886286 0.027798 0
M  V30 17 C -4.615334 2.737433 0.259720 0
M  V30 18 O -5.462404 3.445514 0.842746 0
M  V30 19 C -5.157633 1.502827 -0.302779 0
M  V30 20 C -6.425827 1.141933 -0.216320 0
M  V30 21 C -7.222971 -0.004811 -0.672126 0
M  V30 22 N -6.427906 -0.988500 -1.383090 0
M  V30 23 C -7.280090 -2.087503 -1.851637 0
M  V30 24 C -5.473168 -1.622939 -0.472820 0
M  V30 25 C -2.514730 4.073299 0.531092 0
M  V30 26 C 2.792403 2.476578 2.666913 0
M  V30 27 C 3.312932 1.137153 3.129305 0
M  V30 28 N 3.327844 -2.622018 0.666897 0
M  V30 29 N 3.227797 -1.755672 -0.300787 0
M  V30 30 C 3.239658 -2.300640 -1.517281 0
M  V30 31 C 3.359636 -3.659860 -1.325695 0
M  V30 32 C 3.411749 -4.643298 -2.436863 0
M  V30 33 C 4.831840 -4.896100 -2.893949 0
M  V30 34 C 2.531381 -4.228423 -3.594020 0
M  V30 35 C 3.411057 -3.812533 0.042806 0
M  V30 36 N 3.532243 -4.960160 0.764772 0
M  V30 37 H 3.080410 -6.946563 2.512420 0
M  V30 38 H 3.334393 -5.901262 3.981068 0
M  V30 39 H 4.762462 -6.478063 2.990864 0
M  V30 40 H 3.511823 -3.628979 3.797465 0
M  V30 41 H 3.356325 -1.291617 3.738503 0
M  V30 42 H 3.913619 0.100652 1.307604 0
M  V30 43 H 1.248564 -0.883391 1.429655 0
M  V30 44 H 1.873046 0.544439 0.477222 0
M  V30 45 H 1.050761 0.741248 3.407455 0
M  V30 46 H -0.118264 0.949248 2.001423 0
M  V30 47 H -0.594894 4.902269 -0.166701 0
M  V30 48 H -0.407316 2.784662 -1.648894 0
M  V30 49 H -1.970334 3.717685 -1.998415 0
M  V30 50 H -1.648762 1.574527 0.167595 0
M  V30 51 H -2.645215 1.371004 -1.389006 0
M  V30 52 H -4.615041 0.725852 -0.860554 0
M  V30 53 H -7.106027 1.826553 0.317805 0
M  V30 54 H -7.626920 -0.523066 0.244507 0
M  V30 55 H -8.090724 0.329194 -1.265009 0
M  V30 56 H -7.829297 -1.825382 -2.781579 0
M  V30 57 H -6.581249 -2.910582 -2.099298 0
M  V30 58 H -8.024221 -2.399547 -1.095327 0
M  V30 59 H -4.491956 -1.654112 -0.967778 0
M  V30 60 H -5.746002 -2.682625 -0.261374 0
M  V30 61 H -5.445902 -1.054306 0.488767 0
M  V30 62 H -2.594864 4.178671 1.616297 0
M  V30 63 H -2.979749 4.948117 0.015886 0
M  V30 64 H 2.793173 3.142988 3.553237 0
M  V30 65 H 3.487162 2.873583 1.891373 0
M  V30 66 H 4.419425 1.279211 3.285680 0
M  V30 67 H 2.942238 0.857912 4.143157 0
M  V30 68 H 3.165304 -1.725420 -2.439737 0
M  V30 69 H 3.038153 -5.617803 -2.053138 0
M  V30 70 H 5.117086 -4.228066 -3.737934 0
M  V30 71 H 4.910518 -5.924362 -3.301655 0
M  V30 72 H 5.549717 -4.800562 -2.069244 0
M  V30 73 H 2.328530 -5.122545 -4.199145 0
M  V30 74 H 2.933103 -3.363992 -4.141785 0
M  V30 75 H 1.546841 -3.916124 -3.161537 0
M  V30 END ATOM
M  V30 BEGIN BOND
M  V30 1 1 1 2
M  V30 2 1 2 3
M  V30 3 2 3 4
M  V30 4 1 4 5
M  V30 5 1 5 6
M  V30 6 1 6 7
M  V30 7 1 7 8
M  V30 8 1 8 9
M  V30 9 1 9 10
M  V30 10 2 10 11
M  V30 11 1 10 12
M  V30 12 1 12 13
M  V30 13 1 13 14
M  V30 14 1 14 15
M  V30 15 1 15 16
M  V30 16 1 16 17
M  V30 17 2 17 18
M  V30 18 1 17 19
M  V30 19 2 19 20
M  V30 20 1 20 21
M  V30 21 1 21 22
M  V30 22 1 22 23
M  V30 23 1 22 24
M  V30 24 1 16 25
M  V30 25 1 9 26
M  V30 26 1 26 27
M  V30 27 1 4 28
M  V30 28 1 28 29
M  V30 29 2 29 30
M  V30 30 1 30 31
M  V30 31 1 31 32
M  V30 32 1 32 33
M  V30 33 1 32 34
M  V30 34 2 31 35
M  V30 35 1 35 36
M  V30 36 2 36 2
M  V30 37 1 27 6
M  V30 38 1 35 28
M  V30 39 1 25 13
M  V30 40 1 1 37
M  V30 41 1 1 38
M  V30 42 1 1 39
M  V30 43 1 3 40
M  V30 44 1 5 41
M  V30 45 1 6 42
M  V30 46 1 7 43
M  V30 47 1 7 44
M  V30 48 1 8 45
M  V30 49 1 8 46
M  V30 50 1 13 47 CFG=3
M  V30 51 1 14 48
M  V30 52 1 14 49
M  V30 53 1 15 50
M  V30 54 1 15 51
M  V30 55 1 19 52
M  V30 56 1 20 53
M  V30 57 1 21 54
M  V30 58 1 21 55
M  V30 59 1 23 56
M  V30 60 1 23 57
M  V30 61 1 23 58
M  V30 62 1 24 59
M  V30 63 1 24 60
M  V30 64 1 24 61
M  V30 65 1 25 62
M  V30 66 1 25 63
M  V30 67 1 26 64
M  V30 68 1 26 65
M  V30 69 1 27 66
M  V30 70 1 27 67
M  V30 71 1 30 68
M  V30 72 1 32 69
M  V30 73 1 33 70
M  V30 74 1 33 71
M  V30 75 1 33 72
M  V30 76 1 34 73
M  V30 77 1 34 74
M  V30 78 1 34 75
M  V30 END BOND
M  V30 END CTAB
M  END
>  <Dataset>  (936) 
ChEMBL_Kinases

>  <Ligand_Instance>  (936) 
nan

>  <PDB_ID>  (936) 
nan

>  <Standardized_SMILES>  (936) 
Cc1cc(NC2CCN(C(=O)O[C@H]3CCN(C(=O)/C=C/CN(C)C)C3)CC2)n2ncc(C(C)C)c2n1

>  <Name>  (936) 
nan

>  <Pocket>  (936) 
nan

>  <ATP_Site>  (936) 
nan

>  <Peripheral>  (936) 
nan

>  <Num_H_Atoms_ProtBoundConf>  (936) 
nan

>  <Num_Resolved_Atoms>  (936) 
nan

>  <Num_Not_Resolved_Atoms>  (936) 
nan

$$$$
CHEMBL4567516
     RDKit          3D

  0  0  0  0  0  0  0  0  0  0999 V3000
M  V30 BEGIN CTAB
M  V30 COUNTS 64 69 0 0 0
M  V30 BEGIN ATOM
M  V30 1 C 5.522932 -0.319932 -0.231554 0
M  V30 2 C 4.260175 -0.735831 0.539453 0
M  V30 3 C 4.603366 -1.823232 1.530039 0
M  V30 4 N 3.858389 0.427643 1.305413 0
M  V30 5 C 4.833848 0.946467 2.260869 0
M  V30 6 C 4.581311 2.374401 2.630055 0
M  V30 7 O 3.604635 3.009044 1.791295 0
M  V30 8 C 2.458988 2.367350 1.382075 0
M  V30 9 C 2.580860 1.019454 1.125825 0
M  V30 10 C 1.532882 0.231298 0.709033 0
M  V30 11 N 0.354933 0.858392 0.560745 0
M  V30 12 N 0.166071 2.142947 0.787554 0
M  V30 13 C -0.887117 2.993161 0.716220 0
M  V30 14 C -2.233621 2.587055 0.309023 0
M  V30 15 C -3.250595 3.519694 0.263410 0
M  V30 16 C -4.552742 3.189170 -0.117286 0
M  V30 17 C -4.788149 1.873155 -0.451643 0
M  V30 18 C -6.024874 1.394646 -0.847972 0
M  V30 19 C -6.230675 0.070859 -1.176866 0
M  V30 20 C -5.174894 -0.843452 -1.118093 0
M  V30 21 C -3.940751 -0.402054 -0.730241 0
M  V30 22 N -2.847492 -1.294470 -0.657786 0
M  V30 23 C -2.940305 -2.695317 -0.975957 0
M  V30 24 C -1.610250 -3.407577 -0.808872 0
M  V30 25 C -1.705863 -4.860171 -1.138662 0
M  V30 26 C -0.661333 -5.668499 -0.368850 0
M  V30 27 N -1.087301 -5.694870 1.004975 0
M  V30 28 C -1.526422 -4.419187 1.488768 0
M  V30 29 C -1.092984 -3.266942 0.600594 0
M  V30 30 C -3.772907 0.938968 -0.406765 0
M  V30 31 N -2.535484 1.319051 -0.031060 0
M  V30 32 N -0.481633 4.246970 1.078294 0
M  V30 33 N 0.826911 4.186628 1.377716 0
M  V30 34 C 1.199972 2.897162 1.193832 0
M  V30 35 H 5.392902 0.721465 -0.575062 0
M  V30 36 H 5.609494 -0.932047 -1.174621 0
M  V30 37 H 6.412776 -0.470148 0.392253 0
M  V30 38 H 3.556235 -1.048702 -0.230415 0
M  V30 39 H 4.001878 -1.748601 2.460883 0
M  V30 40 H 4.507515 -2.847644 1.127386 0
M  V30 41 H 5.660083 -1.669846 1.814597 0
M  V30 42 H 4.815031 0.293350 3.155056 0
M  V30 43 H 5.864321 0.920705 1.819183 0
M  V30 44 H 4.155307 2.384146 3.676127 0
M  V30 45 H 5.480681 2.991493 2.666142 0
M  V30 46 H 1.695301 -0.822128 0.525134 0
M  V30 47 H -3.102856 4.554935 0.517511 0
M  V30 48 H -5.375335 3.870014 -0.169690 0
M  V30 49 H -6.828673 2.117528 -0.887046 0
M  V30 50 H -7.203077 -0.294097 -1.486070 0
M  V30 51 H -5.312723 -1.886954 -1.371564 0
M  V30 52 H -1.896977 -0.932884 -0.354439 0
M  V30 53 H -3.255917 -2.867700 -2.039782 0
M  V30 54 H -3.676046 -3.256418 -0.362231 0
M  V30 55 H -0.874028 -2.934032 -1.482950 0
M  V30 56 H -2.674807 -5.285471 -0.882379 0
M  V30 57 H -1.511181 -5.101990 -2.210462 0
M  V30 58 H 0.354326 -5.219552 -0.489221 0
M  V30 59 H -0.639675 -6.687800 -0.762923 0
M  V30 60 H -1.855899 -6.401709 1.063387 0
M  V30 61 H -2.625742 -4.404054 1.665664 0
M  V30 62 H -1.042592 -4.205989 2.483653 0
M  V30 63 H -1.462641 -2.338944 1.069635 0
M  V30 64 H 0.002904 -3.244289 0.582382 0
M  V30 END ATOM
M  V30 BEGIN BOND
M  V30 1 1 1 2
M  V30 2 1 2 3
M  V30 3 1 2 4
M  V30 4 1 4 5
M  V30 5 1 5 6
M  V30 6 1 6 7
M  V30 7 1 7 8
M  V30 8 2 8 9
M  V30 9 1 9 10
M  V30 10 2 10 11
M  V30 11 1 11 12
M  V30 12 1 12 13
M  V30 13 1 13 14
M  V30 14 2 14 15
M  V30 15 1 15 16
M  V30 16 2 16 17
M  V30 17 1 17 18
M  V30 18 2 18 19
M  V30 19 1 19 20
M  V30 20 2 20 21
M  V30 21 1 21 22
M  V30 22 1 22 23
M  V30 23 1 23 24
M  V30 24 1 24 25
M  V30 25 1 25 26
M  V30 26 1 26 27
M  V30 27 1 27 28
M  V30 28 1 28 29
M  V30 29 1 21 30
M  V30 30 2 30 31
M  V30 31 2 13 32
M  V30 32 1 32 33
M  V30 33 2 33 34
M  V30 34 1 9 4
M  V30 35 1 34 12
M  V30 36 1 34 8
M  V30 37 1 31 14
M  V30 38 1 30 17
M  V30 39 1 29 24
M  V30 40 1 1 35
M  V30 41 1 1 36
M  V30 42 1 1 37
M  V30 43 1 2 38
M  V30 44 1 3 39
M  V30 45 1 3 40
M  V30 46 1 3 41
M  V30 47 1 5 42
M  V30 48 1 5 43
M  V30 49 1 6 44
M  V30 50 1 6 45
M  V30 51 1 10 46
M  V30 52 1 15 47
M  V30 53 1 16 48
M  V30 54 1 18 49
M  V30 55 1 19 50
M  V30 56 1 20 51
M  V30 57 1 22 52
M  V30 58 1 23 53
M  V30 59 1 23 54
M  V30 60 1 24 55
M  V30 61 1 25 56
M  V30 62 1 25 57
M  V30 63 1 26 58
M  V30 64 1 26 59
M  V30 65 1 27 60
M  V30 66 1 28 61
M  V30 67 1 28 62
M  V30 68 1 29 63
M  V30 69 1 29 64
M  V30 END BOND
M  V30 END CTAB
M  END
>  <Dataset>  (937) 
ChEMBL_Kinases

>  <Ligand_Instance>  (937) 
nan

>  <PDB_ID>  (937) 
nan

>  <Standardized_SMILES>  (937) 
CC(C)N1CCOc2c1cnn1c(-c3ccc4cccc(NCC5CCNCC5)c4n3)nnc21

>  <Name>  (937) 
nan

>  <Pocket>  (937) 
nan

>  <ATP_Site>  (937) 
nan

>  <Peripheral>  (937) 
nan

>  <Num_H_Atoms_ProtBoundConf>  (937) 
nan

>  <Num_Resolved_Atoms>  (937) 
nan

>  <Num_Not_Resolved_Atoms>  (937) 
nan

$$$$
CHEMBL220227
     RDKit          3D

  0  0  0  0  0  0  0  0  0  0999 V3000
M  V30 BEGIN CTAB
M  V30 COUNTS 36 38 0 0 0
M  V30 BEGIN ATOM
M  V30 1 C -0.685090 -2.667637 3.536458 0
M  V30 2 C 0.565570 -2.846841 2.667961 0
M  V30 3 C 0.284221 -3.769827 1.517735 0
M  V30 4 C 1.057498 -1.522125 2.227424 0
M  V30 5 O 1.939705 -0.788122 2.867583 0
M  V30 6 N 2.183750 0.321384 2.255542 0
M  V30 7 C 1.453087 0.403509 1.124707 0
M  V30 8 C 1.401217 1.474911 0.118840 0
M  V30 9 C 1.760563 1.323270 -1.216799 0
M  V30 10 C 1.667857 2.404367 -2.059975 0
M  V30 11 C 1.224081 3.618949 -1.581764 0
M  V30 12 F 1.154087 4.645409 -2.457156 0
M  V30 13 C 0.873154 3.755032 -0.263968 0
M  V30 14 C 0.951660 2.691402 0.618892 0
M  V30 15 C 0.733362 -0.796053 1.125333 0
M  V30 16 C -0.202003 -1.130551 0.067079 0
M  V30 17 C -1.474660 -0.659688 0.350955 0
M  V30 18 C -2.526877 -0.865819 -0.533479 0
M  V30 19 N -2.286762 -1.534628 -1.676877 0
M  V30 20 C -1.056903 -2.006868 -1.983392 0
M  V30 21 C -0.013006 -1.803641 -1.108635 0
M  V30 22 H -0.520299 -3.075107 4.548500 0
M  V30 23 H -1.559875 -3.097143 3.012006 0
M  V30 24 H -0.891308 -1.578745 3.661090 0
M  V30 25 H 1.375256 -3.312636 3.276708 0
M  V30 26 H -0.710655 -3.510668 1.113281 0
M  V30 27 H 1.100373 -3.690120 0.773449 0
M  V30 28 H 0.295405 -4.836746 1.887794 0
M  V30 29 H 2.077317 0.326990 -1.411887 0
M  V30 30 H 1.970559 2.187925 -3.083409 0
M  V30 31 H 0.520720 4.721484 0.114527 0
M  V30 32 H 0.662683 2.853943 1.647649 0
M  V30 33 H -1.781902 -0.113453 1.233207 0
M  V30 34 H -3.547677 -0.565578 -0.451922 0
M  V30 35 H -0.806650 -2.549337 -2.884441 0
M  V30 36 H 1.025205 -2.134115 -1.238033 0
M  V30 END ATOM
M  V30 BEGIN BOND
M  V30 1 1 1 2
M  V30 2 1 2 3
M  V30 3 1 2 4
M  V30 4 1 4 5
M  V30 5 1 5 6
M  V30 6 2 6 7
M  V30 7 1 7 8
M  V30 8 2 8 9
M  V30 9 1 9 10
M  V30 10 2 10 11
M  V30 11 1 11 12
M  V30 12 1 11 13
M  V30 13 2 13 14
M  V30 14 1 7 15
M  V30 15 1 15 16
M  V30 16 2 16 17
M  V30 17 1 17 18
M  V30 18 2 18 19
M  V30 19 1 19 20
M  V30 20 2 20 21
M  V30 21 2 15 4
M  V30 22 1 21 16
M  V30 23 1 14 8
M  V30 24 1 1 22
M  V30 25 1 1 23
M  V30 26 1 1 24
M  V30 27 1 2 25
M  V30 28 1 3 26
M  V30 29 1 3 27
M  V30 30 1 3 28
M  V30 31 1 9 29
M  V30 32 1 10 30
M  V30 33 1 13 31
M  V30 34 1 14 32
M  V30 35 1 17 33
M  V30 36 1 18 34
M  V30 37 1 20 35
M  V30 38 1 21 36
M  V30 END BOND
M  V30 END CTAB
M  END
>  <Dataset>  (938) 
ChEMBL_Kinases

>  <Ligand_Instance>  (938) 
nan

>  <PDB_ID>  (938) 
nan

>  <Standardized_SMILES>  (938) 
CC(C)c1onc(-c2ccc(F)cc2)c1-c1ccncc1

>  <Name>  (938) 
nan

>  <Pocket>  (938) 
nan

>  <ATP_Site>  (938) 
nan

>  <Peripheral>  (938) 
nan

>  <Num_H_Atoms_ProtBoundConf>  (938) 
nan

>  <Num_Resolved_Atoms>  (938) 
nan

>  <Num_Not_Resolved_Atoms>  (938) 
nan

$$$$
CHEMBL209849
     RDKit          3D

  0  0  0  0  0  0  0  0  0  0999 V3000
M  V30 BEGIN CTAB
M  V30 COUNTS 37 40 0 0 0
M  V30 BEGIN ATOM
M  V30 1 C 0.416541 -3.577770 -2.316063 0
M  V30 2 C 0.395222 -3.309228 -0.857547 0
M  V30 3 O -0.472260 -3.957012 -0.177486 0
M  V30 4 O 1.154716 -2.461456 -0.030594 0
M  V30 5 N 0.843258 -2.477886 1.309116 0
M  V30 6 C 0.637516 -1.406867 1.965942 0
M  V30 7 C 0.677752 -0.023969 1.501687 0
M  V30 8 C 0.979697 0.361260 0.125055 0
M  V30 9 C 2.202212 0.290040 -0.552170 0
M  V30 10 O 3.354179 -0.201215 0.083053 0
M  V30 11 N 2.033848 0.745984 -1.798291 0
M  V30 12 C 0.740650 1.108778 -1.944915 0
M  V30 13 C 0.093224 1.632362 -3.044957 0
M  V30 14 C -1.253044 1.919293 -2.925150 0
M  V30 15 C -1.944522 1.696491 -1.752256 0
M  V30 16 C -1.287690 1.166271 -0.639143 0
M  V30 17 C 0.054020 0.878710 -0.753737 0
M  V30 18 N 0.408623 0.760922 2.490769 0
M  V30 19 C 0.165265 0.019283 3.691230 0
M  V30 20 C -0.153550 0.359553 4.987220 0
M  V30 21 C -0.325633 -0.628546 5.933863 0
M  V30 22 C -0.191961 -1.988839 5.647290 0
M  V30 23 C 0.130452 -2.336082 4.337339 0
M  V30 24 C 0.303339 -1.338703 3.385261 0
M  V30 25 H -0.669026 -3.570771 -2.625106 0
M  V30 26 H 0.926868 -2.795829 -2.901929 0
M  V30 27 H 0.771840 -4.607436 -2.522711 0
M  V30 28 H 3.741831 -1.036761 -0.317848 0
M  V30 29 H 2.828962 0.782320 -2.486908 0
M  V30 30 H 0.617405 1.820017 -3.990376 0
M  V30 31 H -1.823034 2.338407 -3.768005 0
M  V30 32 H -3.001853 1.900605 -1.594418 0
M  V30 33 H -1.818983 0.986854 0.286719 0
M  V30 34 H -0.268891 1.412836 5.259940 0
M  V30 35 H -0.577439 -0.298747 6.944653 0
M  V30 36 H -0.334828 -2.732304 6.416978 0
M  V30 37 H 0.242938 -3.386991 4.076464 0
M  V30 END ATOM
M  V30 BEGIN BOND
M  V30 1 1 1 2
M  V30 2 2 2 3
M  V30 3 1 2 4
M  V30 4 1 4 5
M  V30 5 2 5 6
M  V30 6 1 6 7
M  V30 7 1 7 8
M  V30 8 2 8 9
M  V30 9 1 9 10
M  V30 10 1 9 11
M  V30 11 1 11 12
M  V30 12 2 12 13
M  V30 13 1 13 14
M  V30 14 2 14 15
M  V30 15 1 15 16
M  V30 16 2 16 17
M  V30 17 2 7 18
M  V30 18 1 18 19
M  V30 19 2 19 20
M  V30 20 1 20 21
M  V30 21 2 21 22
M  V30 22 1 22 23
M  V30 23 2 23 24
M  V30 24 1 24 6
M  V30 25 1 17 8
M  V30 26 1 24 19
M  V30 27 1 17 12
M  V30 28 1 1 25
M  V30 29 1 1 26
M  V30 30 1 1 27
M  V30 31 1 10 28
M  V30 32 1 11 29
M  V30 33 1 13 30
M  V30 34 1 14 31
M  V30 35 1 15 32
M  V30 36 1 16 33
M  V30 37 1 20 34
M  V30 38 1 21 35
M  V30 39 1 22 36
M  V30 40 1 23 37
M  V30 END BOND
M  V30 END CTAB
M  END
>  <Dataset>  (939) 
ChEMBL_Kinases

>  <Ligand_Instance>  (939) 
nan

>  <PDB_ID>  (939) 
nan

>  <Standardized_SMILES>  (939) 
CC(=O)O/N=C1\C(c2c(O)[nH]c3ccccc23)=Nc2ccccc21

>  <Name>  (939) 
nan

>  <Pocket>  (939) 
nan

>  <ATP_Site>  (939) 
nan

>  <Peripheral>  (939) 
nan

>  <Num_H_Atoms_ProtBoundConf>  (939) 
nan

>  <Num_Resolved_Atoms>  (939) 
nan

>  <Num_Not_Resolved_Atoms>  (939) 
nan

$$$$
CHEMBL4570557
     RDKit          3D

  0  0  0  0  0  0  0  0  0  0999 V3000
M  V30 BEGIN CTAB
M  V30 COUNTS 69 72 0 0 0
M  V30 BEGIN ATOM
M  V30 1 C 5.836033 3.649613 4.540862 0
M  V30 2 C 6.416015 2.871674 3.392948 0
M  V30 3 N 5.480074 2.031236 2.707959 0
M  V30 4 C 4.366877 2.686112 2.117944 0
M  V30 5 O 4.479354 3.937037 2.358428 0
M  V30 6 C 3.276255 2.081187 1.367967 0
M  V30 7 C 2.367523 3.017782 0.879912 0
M  V30 8 C 1.264654 2.677428 0.135214 0
M  V30 9 O 0.369742 3.616267 -0.342176 0
M  V30 10 C 0.452514 5.001904 -0.149113 0
M  V30 11 C -0.718993 5.715559 -0.816467 0
M  V30 12 O -0.711065 5.455693 -2.185092 0
M  V30 13 C 1.005046 1.362032 -0.168080 0
M  V30 14 N -0.095430 0.917916 -0.949772 0
M  V30 15 C -0.391767 -0.439591 -1.248603 0
M  V30 16 N 0.297807 -1.020605 -2.258447 0
M  V30 17 C 0.106548 -2.304326 -2.647863 0
M  V30 18 C -0.845326 -3.064894 -1.979049 0
M  V30 19 C -1.558232 -2.454532 -0.932954 0
M  V30 20 N -1.318826 -1.153015 -0.585145 0
M  V30 21 N -2.575733 -3.213968 -0.244029 0
M  V30 22 C -3.752072 -2.490685 0.195298 0
M  V30 23 C -4.969852 -3.027928 -0.546188 0
M  V30 24 C -5.663158 -4.000317 0.345773 0
M  V30 25 C -5.124756 -3.789927 1.736539 0
M  V30 26 C -4.114099 -2.680651 1.624031 0
M  V30 27 C -2.312096 -4.607392 -0.093720 0 CFG=2
M  V30 28 C -1.002564 -4.894530 0.605828 0
M  V30 29 C -0.909467 -4.330811 1.985761 0
M  V30 30 C -2.135587 -5.142858 -1.499766 0
M  V30 31 O -2.661476 -6.088849 -2.183504 0
M  V30 32 N -1.139561 -4.428109 -2.267157 0
M  V30 33 C -0.344205 -4.938897 -3.374880 0
M  V30 34 C 1.895037 0.425343 0.309016 0
M  V30 35 C 3.000151 0.763426 1.055203 0
M  V30 36 F 3.909093 -0.103908 1.554120 0
M  V30 37 H 4.905136 3.188716 4.922063 0
M  V30 38 H 5.573599 4.704706 4.279803 0
M  V30 39 H 6.564352 3.720032 5.395040 0
M  V30 40 H 7.204531 2.210708 3.842900 0
M  V30 41 H 6.941624 3.584899 2.722957 0
M  V30 42 H 5.536182 0.996703 2.600578 0
M  V30 43 H 2.460855 4.098884 1.053122 0
M  V30 44 H 0.521890 5.329530 0.896688 0
M  V30 45 H 1.377238 5.380033 -0.660831 0
M  V30 46 H -1.681955 5.459694 -0.351892 0
M  V30 47 H -0.564955 6.805910 -0.687913 0
M  V30 48 H -1.015948 4.545370 -2.422104 0
M  V30 49 H -0.774867 1.589885 -1.364060 0
M  V30 50 H 0.637447 -2.776427 -3.436999 0
M  V30 51 H -3.701941 -1.416259 -0.072261 0
M  V30 52 H -5.655099 -2.217059 -0.857144 0
M  V30 53 H -4.658264 -3.594995 -1.463546 0
M  V30 54 H -6.773287 -3.796031 0.298969 0
M  V30 55 H -5.549951 -5.058482 0.017997 0
M  V30 56 H -5.980317 -3.519092 2.394257 0
M  V30 57 H -4.717165 -4.726332 2.170885 0
M  V30 58 H -4.680648 -1.746950 1.926903 0
M  V30 59 H -3.299468 -2.752538 2.341317 0
M  V30 60 H -3.096144 -5.192328 0.382650 0
M  V30 61 H -0.132654 -4.498814 0.028467 0
M  V30 62 H -0.817166 -5.987142 0.681357 0
M  V30 63 H -1.660533 -4.685943 2.688789 0
M  V30 64 H -0.987573 -3.205298 1.955104 0
M  V30 65 H 0.078303 -4.522026 2.463761 0
M  V30 66 H -0.564965 -4.326180 -4.280724 0
M  V30 67 H 0.737616 -4.799771 -3.146817 0
M  V30 68 H -0.558579 -6.000226 -3.572441 0
M  V30 69 H 1.763090 -0.633370 0.116655 0
M  V30 END ATOM
M  V30 BEGIN BOND
M  V30 1 1 1 2
M  V30 2 1 2 3
M  V30 3 1 3 4
M  V30 4 2 4 5
M  V30 5 1 4 6
M  V30 6 2 6 7
M  V30 7 1 7 8
M  V30 8 1 8 9
M  V30 9 1 9 10
M  V30 10 1 10 11
M  V30 11 1 11 12
M  V30 12 2 8 13
M  V30 13 1 13 14
M  V30 14 1 14 15
M  V30 15 2 15 16
M  V30 16 1 16 17
M  V30 17 2 17 18
M  V30 18 1 18 19
M  V30 19 2 19 20
M  V30 20 1 19 21
M  V30 21 1 21 22
M  V30 22 1 22 23
M  V30 23 1 23 24
M  V30 24 1 24 25
M  V30 25 1 25 26
M  V30 26 1 21 27
M  V30 27 1 27 28
M  V30 28 1 28 29
M  V30 29 1 27 30
M  V30 30 2 30 31
M  V30 31 1 30 32
M  V30 32 1 32 33
M  V30 33 1 13 34
M  V30 34 2 34 35
M  V30 35 1 35 36
M  V30 36 1 35 6
M  V30 37 1 20 15
M  V30 38 1 26 22
M  V30 39 1 32 18
M  V30 40 1 1 37
M  V30 41 1 1 38
M  V30 42 1 1 39
M  V30 43 1 2 40
M  V30 44 1 2 41
M  V30 45 1 3 42
M  V30 46 1 7 43
M  V30 47 1 10 44
M  V30 48 1 10 45
M  V30 49 1 11 46
M  V30 50 1 11 47
M  V30 51 1 12 48
M  V30 52 1 14 49
M  V30 53 1 17 50
M  V30 54 1 22 51
M  V30 55 1 23 52
M  V30 56 1 23 53
M  V30 57 1 24 54
M  V30 58 1 24 55
M  V30 59 1 25 56
M  V30 60 1 25 57
M  V30 61 1 26 58
M  V30 62 1 26 59
M  V30 63 1 27 60 CFG=1
M  V30 64 1 28 61
M  V30 65 1 28 62
M  V30 66 1 29 63
M  V30 67 1 29 64
M  V30 68 1 29 65
M  V30 69 1 33 66
M  V30 70 1 33 67
M  V30 71 1 33 68
M  V30 72 1 34 69
M  V30 END BOND
M  V30 END CTAB
M  END
>  <Dataset>  (940) 
ChEMBL_Kinases

>  <Ligand_Instance>  (940) 
nan

>  <PDB_ID>  (940) 
nan

>  <Standardized_SMILES>  (940) 
CCNC(=O)c1cc(OCCO)c(Nc2ncc3c(n2)N(C2CCCC2)[C@H](CC)C(=O)N3C)cc1F

>  <Name>  (940) 
nan

>  <Pocket>  (940) 
nan

>  <ATP_Site>  (940) 
nan

>  <Peripheral>  (940) 
nan

>  <Num_H_Atoms_ProtBoundConf>  (940) 
nan

>  <Num_Resolved_Atoms>  (940) 
nan

>  <Num_Not_Resolved_Atoms>  (940) 
nan

$$$$
CHEMBL4635254
     RDKit          3D

  0  0  0  0  0  0  0  0  0  0999 V3000
M  V30 BEGIN CTAB
M  V30 COUNTS 52 57 0 0 0
M  V30 BEGIN ATOM
M  V30 1 N -3.504593 -2.572288 4.669633 0
M  V30 2 C -3.080282 -3.067388 3.399603 0
M  V30 3 C -2.023072 -2.294150 2.700366 0
M  V30 4 C -2.130933 -0.918833 2.766552 0
M  V30 5 C -1.198837 -0.078298 2.150529 0
M  V30 6 C -0.117707 -0.620615 1.441247 0
M  V30 7 C 0.842877 0.274397 0.805929 0
M  V30 8 N 1.581963 1.155877 1.506506 0
M  V30 9 C 2.477009 1.997811 0.954861 0
M  V30 10 C 3.230258 2.898308 1.680247 0
M  V30 11 C 4.137600 3.750121 1.108276 0
M  V30 12 N 4.258693 3.658697 -0.240750 0
M  V30 13 C 5.067115 4.364348 -1.081023 0
M  V30 14 O 5.898459 5.275904 -0.791449 0
M  V30 15 N 4.854178 3.938241 -2.350806 0
M  V30 16 N 3.934337 2.987810 -2.309962 0
M  V30 17 C 3.548763 2.794590 -1.019657 0
M  V30 18 C 2.630394 1.936517 -0.415748 0
M  V30 19 C 1.901878 1.052363 -1.200519 0
M  V30 20 C 1.002680 0.219730 -0.564291 0
M  V30 21 C 0.274414 -0.677201 -1.427726 0
M  V30 22 C 1.145180 -1.538458 -2.106082 0
M  V30 23 C 0.664503 -2.497676 -3.000719 0
M  V30 24 C -0.698553 -2.586172 -3.209750 0
M  V30 25 C -1.560957 -1.738088 -2.542227 0
M  V30 26 C -1.074493 -0.794702 -1.661042 0
M  V30 27 C -0.040413 -1.978091 1.395103 0
M  V30 28 C -0.955895 -2.819349 2.000231 0
M  V30 29 C -4.255463 -3.349562 2.488144 0
M  V30 30 C -3.603436 -4.672467 2.138102 0
M  V30 31 C -2.841141 -4.558843 3.436979 0
M  V30 32 H -4.507688 -2.816857 4.811215 0
M  V30 33 H -3.404354 -1.556752 4.825459 0
M  V30 34 H -2.908925 -0.331529 3.275852 0
M  V30 35 H -1.248615 1.006461 2.179489 0
M  V30 36 H 3.101915 2.939507 2.763829 0
M  V30 37 H 4.737640 4.461597 1.650071 0
M  V30 38 H 5.318190 4.277869 -3.238422 0
M  V30 39 H 2.056837 1.038177 -2.288147 0
M  V30 40 H 2.242532 -1.557269 -2.017436 0
M  V30 41 H 1.317778 -3.172126 -3.534841 0
M  V30 42 H -1.065142 -3.325277 -3.898671 0
M  V30 43 H -2.635368 -1.776735 -2.679442 0
M  V30 44 H -1.657210 -0.085273 -1.089287 0
M  V30 45 H 0.793807 -2.402810 0.847892 0
M  V30 46 H -0.884236 -3.875686 1.956984 0
M  V30 47 H -4.386018 -2.644473 1.645026 0
M  V30 48 H -5.212236 -3.557701 3.049970 0
M  V30 49 H -3.036828 -4.620184 1.209570 0
M  V30 50 H -4.329204 -5.511015 2.101056 0
M  V30 51 H -1.808148 -4.907155 3.452217 0
M  V30 52 H -3.484914 -5.021844 4.240748 0
M  V30 END ATOM
M  V30 BEGIN BOND
M  V30 1 1 1 2
M  V30 2 1 2 3
M  V30 3 2 3 4
M  V30 4 1 4 5
M  V30 5 2 5 6
M  V30 6 1 6 7
M  V30 7 2 7 8
M  V30 8 1 8 9
M  V30 9 1 9 10
M  V30 10 2 10 11
M  V30 11 1 11 12
M  V30 12 1 12 13
M  V30 13 2 13 14
M  V30 14 1 13 15
M  V30 15 1 15 16
M  V30 16 2 16 17
M  V30 17 1 17 18
M  V30 18 1 18 19
M  V30 19 2 19 20
M  V30 20 1 20 21
M  V30 21 2 21 22
M  V30 22 1 22 23
M  V30 23 2 23 24
M  V30 24 1 24 25
M  V30 25 2 25 26
M  V30 26 1 6 27
M  V30 27 2 27 28
M  V30 28 1 2 29
M  V30 29 1 29 30
M  V30 30 1 30 31
M  V30 31 1 31 2
M  V30 32 1 28 3
M  V30 33 1 20 7
M  V30 34 1 26 21
M  V30 35 2 18 9
M  V30 36 1 17 12
M  V30 37 1 1 32
M  V30 38 1 1 33
M  V30 39 1 4 34
M  V30 40 1 5 35
M  V30 41 1 10 36
M  V30 42 1 11 37
M  V30 43 1 15 38
M  V30 44 1 19 39
M  V30 45 1 22 40
M  V30 46 1 23 41
M  V30 47 1 24 42
M  V30 48 1 25 43
M  V30 49 1 26 44
M  V30 50 1 27 45
M  V30 51 1 28 46
M  V30 52 1 29 47
M  V30 53 1 29 48
M  V30 54 1 30 49
M  V30 55 1 30 50
M  V30 56 1 31 51
M  V30 57 1 31 52
M  V30 END BOND
M  V30 END CTAB
M  END
>  <Dataset>  (941) 
ChEMBL_Kinases

>  <Ligand_Instance>  (941) 
nan

>  <PDB_ID>  (941) 
nan

>  <Standardized_SMILES>  (941) 
NC1(c2ccc(-c3nc4ccn5c(=O)[nH]nc5c4cc3-c3ccccc3)cc2)CCC1

>  <Name>  (941) 
nan

>  <Pocket>  (941) 
nan

>  <ATP_Site>  (941) 
nan

>  <Peripheral>  (941) 
nan

>  <Num_H_Atoms_ProtBoundConf>  (941) 
nan

>  <Num_Resolved_Atoms>  (941) 
nan

>  <Num_Not_Resolved_Atoms>  (941) 
nan

$$$$
CHEMBL4573369
     RDKit          3D

  0  0  0  0  0  0  0  0  0  0999 V3000
M  V30 BEGIN CTAB
M  V30 COUNTS 57 62 0 0 0
M  V30 BEGIN ATOM
M  V30 1 C 3.369616 -4.335237 1.014750 0
M  V30 2 N 4.000481 -3.347886 0.178019 0
M  V30 3 C 5.300908 -3.646831 -0.373749 0
M  V30 4 C 5.851649 -2.565839 -1.241348 0
M  V30 5 O 5.289051 -1.294970 -0.996902 0
M  V30 6 C 3.961624 -1.096324 -0.650340 0
M  V30 7 C 3.303491 -2.144699 -0.050313 0
M  V30 8 C 1.972963 -1.916226 0.286098 0
M  V30 9 N 1.354719 -0.742432 0.043799 0
M  V30 10 N 1.997156 0.257884 -0.533291 0
M  V30 11 C 1.674643 1.512225 -0.899446 0
M  V30 12 C 0.374514 2.155853 -0.727571 0
M  V30 13 C 0.190596 3.455550 -1.154062 0
M  V30 14 C -0.990047 4.164826 -1.044579 0
M  V30 15 C -2.042271 3.491032 -0.459925 0
M  V30 16 C -3.270846 4.084994 -0.292496 0
M  V30 17 C -4.361767 3.448130 0.290450 0
M  V30 18 C -4.167403 2.134425 0.718946 0
M  V30 19 C -2.944773 1.535030 0.555425 0
M  V30 20 N -2.872710 0.196420 1.032041 0
M  V30 21 C -2.530560 -0.346912 2.277833 0
M  V30 22 O -2.224969 0.528426 3.150851 0
M  V30 23 C -2.541686 -1.808563 2.498181 0
M  V30 24 C -3.901047 -2.366463 2.260734 0
M  V30 25 C -3.922377 -3.459042 1.217317 0
M  V30 26 N -3.123637 -3.160024 0.074523 0
M  V30 27 C -1.749800 -2.921072 0.373349 0
M  V30 28 C -1.449801 -2.529139 1.780208 0
M  V30 29 C -1.881178 2.192952 -0.026765 0
M  V30 30 N -0.689405 1.540012 -0.160801 0
M  V30 31 N 2.773902 2.090327 -1.463740 0
M  V30 32 N 3.773069 1.207047 -1.450599 0
M  V30 33 C 3.299491 0.098398 -0.886515 0
M  V30 34 H 2.347293 -4.605180 0.689151 0
M  V30 35 H 3.303626 -3.876936 2.044168 0
M  V30 36 H 4.006759 -5.248053 1.144940 0
M  V30 37 H 5.181775 -4.583346 -0.959316 0
M  V30 38 H 5.966636 -3.904179 0.475982 0
M  V30 39 H 6.956884 -2.506924 -1.142584 0
M  V30 40 H 5.644011 -2.779218 -2.324169 0
M  V30 41 H 1.463730 -2.746389 0.757292 0
M  V30 42 H 1.023472 3.972084 -1.610425 0
M  V30 43 H -1.088900 5.175691 -1.390166 0
M  V30 44 H -3.387764 5.107323 -0.636735 0
M  V30 45 H -5.305855 3.967456 0.395740 0
M  V30 46 H -5.038918 1.676850 1.165514 0
M  V30 47 H -3.148481 -0.366331 0.203363 0
M  V30 48 H -2.315934 -1.931552 3.599462 0
M  V30 49 H -4.559176 -1.556039 1.873160 0
M  V30 50 H -4.369328 -2.708844 3.204597 0
M  V30 51 H -4.975731 -3.615404 0.860368 0
M  V30 52 H -3.541416 -4.387816 1.694033 0
M  V30 53 H -3.551612 -2.578230 -0.652382 0
M  V30 54 H -1.193340 -3.851205 0.063351 0
M  V30 55 H -1.373870 -2.120452 -0.310777 0
M  V30 56 H -1.290877 -3.497234 2.341070 0
M  V30 57 H -0.514571 -1.961692 1.865373 0
M  V30 END ATOM
M  V30 BEGIN BOND
M  V30 1 1 1 2
M  V30 2 1 2 3
M  V30 3 1 3 4
M  V30 4 1 4 5
M  V30 5 1 5 6
M  V30 6 2 6 7
M  V30 7 1 7 8
M  V30 8 2 8 9
M  V30 9 1 9 10
M  V30 10 1 10 11
M  V30 11 1 11 12
M  V30 12 2 12 13
M  V30 13 1 13 14
M  V30 14 2 14 15
M  V30 15 1 15 16
M  V30 16 2 16 17
M  V30 17 1 17 18
M  V30 18 2 18 19
M  V30 19 1 19 20
M  V30 20 1 20 21
M  V30 21 2 21 22
M  V30 22 1 21 23
M  V30 23 1 23 24
M  V30 24 1 24 25
M  V30 25 1 25 26
M  V30 26 1 26 27
M  V30 27 1 27 28
M  V30 28 1 19 29
M  V30 29 2 29 30
M  V30 30 2 11 31
M  V30 31 1 31 32
M  V30 32 2 32 33
M  V30 33 1 7 2
M  V30 34 1 33 10
M  V30 35 1 33 6
M  V30 36 1 30 12
M  V30 37 1 29 15
M  V30 38 1 28 23
M  V30 39 1 1 34
M  V30 40 1 1 35
M  V30 41 1 1 36
M  V30 42 1 3 37
M  V30 43 1 3 38
M  V30 44 1 4 39
M  V30 45 1 4 40
M  V30 46 1 8 41
M  V30 47 1 13 42
M  V30 48 1 14 43
M  V30 49 1 16 44
M  V30 50 1 17 45
M  V30 51 1 18 46
M  V30 52 1 20 47
M  V30 53 1 23 48
M  V30 54 1 24 49
M  V30 55 1 24 50
M  V30 56 1 25 51
M  V30 57 1 25 52
M  V30 58 1 26 53
M  V30 59 1 27 54
M  V30 60 1 27 55
M  V30 61 1 28 56
M  V30 62 1 28 57
M  V30 END BOND
M  V30 END CTAB
M  END
>  <Dataset>  (942) 
ChEMBL_Kinases

>  <Ligand_Instance>  (942) 
nan

>  <PDB_ID>  (942) 
nan

>  <Standardized_SMILES>  (942) 
CN1CCOc2c1cnn1c(-c3ccc4cccc(NC(=O)C5CCNCC5)c4n3)nnc21

>  <Name>  (942) 
nan

>  <Pocket>  (942) 
nan

>  <ATP_Site>  (942) 
nan

>  <Peripheral>  (942) 
nan

>  <Num_H_Atoms_ProtBoundConf>  (942) 
nan

>  <Num_Resolved_Atoms>  (942) 
nan

>  <Num_Not_Resolved_Atoms>  (942) 
nan

$$$$
CHEMBL218720
     RDKit          3D

  0  0  0  0  0  0  0  0  0  0999 V3000
M  V30 BEGIN CTAB
M  V30 COUNTS 50 53 0 0 0
M  V30 BEGIN ATOM
M  V30 1 C 0.267950 0.399712 -2.621183 0
M  V30 2 C -0.281323 -0.883834 -2.120063 0
M  V30 3 C 0.029807 -1.581370 -1.055620 0
M  V30 4 C 1.109960 -0.987605 -0.213529 0
M  V30 5 O 1.623633 0.141621 -0.603968 0
M  V30 6 N 1.796660 -1.361112 1.022049 0
M  V30 7 C 2.633383 -0.221152 1.050596 0
M  V30 8 C 3.865371 -0.292990 0.408360 0
M  V30 9 C 4.651184 0.834132 0.491099 0
M  V30 10 C 4.154144 1.910975 1.189765 0
M  V30 11 N 4.703372 3.117536 1.423211 0
M  V30 12 N 3.915258 3.904227 2.144676 0
M  V30 13 C 2.766557 3.227186 2.430751 0
M  V30 14 C 1.590888 3.683517 3.205496 0
M  V30 15 C 2.936704 1.997285 1.830538 0
M  V30 16 C 2.131561 0.853757 1.750073 0
M  V30 17 C -0.532409 -2.844089 -0.578123 0
M  V30 18 C -1.516650 -2.655632 0.545677 0
M  V30 19 C -2.633025 -1.851272 0.344706 0
M  V30 20 C -3.580011 -1.642014 1.360456 0
M  V30 21 C -3.406836 -2.242791 2.589402 0
M  V30 22 C -4.466937 -1.959718 3.602064 0
M  V30 23 F -5.682924 -2.519553 3.189527 0
M  V30 24 F -4.669559 -0.587083 3.574648 0
M  V30 25 F -4.176873 -2.443747 4.839178 0
M  V30 26 C -2.307221 -3.042526 2.808938 0
M  V30 27 C -1.399233 -3.226328 1.789042 0
M  V30 28 C -1.207043 -3.650075 -1.688389 0
M  V30 29 C -2.000587 -2.757056 -2.574839 0
M  V30 30 O -3.142311 -2.961357 -3.063387 0
M  V30 31 N -1.331638 -1.522274 -2.877265 0
M  V30 32 H -0.215596 0.683799 -3.587905 0
M  V30 33 H 1.343831 0.260315 -2.867973 0
M  V30 34 H 0.103645 1.227989 -1.917630 0
M  V30 35 H 1.199919 -2.239147 1.063585 0
M  V30 36 H 4.121439 -1.196789 -0.102187 0
M  V30 37 H 5.604552 0.817482 0.010265 0
M  V30 38 H 5.645019 3.406354 1.075211 0
M  V30 39 H 0.702786 3.274389 2.702607 0
M  V30 40 H 1.654674 3.481719 4.290461 0
M  V30 41 H 1.570817 4.797003 3.120646 0
M  V30 42 H 1.162005 0.830424 2.224730 0
M  V30 43 H 0.245385 -3.530515 -0.173884 0
M  V30 44 H -2.844088 -1.348545 -0.570844 0
M  V30 45 H -4.441463 -1.005345 1.166514 0
M  V30 46 H -2.199630 -3.497183 3.782917 0
M  V30 47 H -0.528571 -3.848119 1.940953 0
M  V30 48 H -1.918625 -4.311474 -1.159955 0
M  V30 49 H -0.500462 -4.262802 -2.260382 0
M  V30 50 H -1.645967 -1.017361 -3.761751 0
M  V30 END ATOM
M  V30 BEGIN BOND
M  V30 1 1 1 2
M  V30 2 2 2 3
M  V30 3 1 3 4
M  V30 4 2 4 5
M  V30 5 1 4 6
M  V30 6 1 6 7
M  V30 7 2 7 8
M  V30 8 1 8 9
M  V30 9 2 9 10
M  V30 10 1 10 11
M  V30 11 1 11 12
M  V30 12 2 12 13
M  V30 13 1 13 14
M  V30 14 1 13 15
M  V30 15 2 15 16
M  V30 16 1 3 17
M  V30 17 1 17 18
M  V30 18 2 18 19
M  V30 19 1 19 20
M  V30 20 2 20 21
M  V30 21 1 21 22
M  V30 22 1 22 23
M  V30 23 1 22 24
M  V30 24 1 22 25
M  V30 25 1 21 26
M  V30 26 2 26 27
M  V30 27 1 17 28
M  V30 28 1 28 29
M  V30 29 2 29 30
M  V30 30 1 29 31
M  V30 31 1 31 2
M  V30 32 1 16 7
M  V30 33 1 27 18
M  V30 34 1 15 10
M  V30 35 1 1 32
M  V30 36 1 1 33
M  V30 37 1 1 34
M  V30 38 1 6 35
M  V30 39 1 8 36
M  V30 40 1 9 37
M  V30 41 1 11 38
M  V30 42 1 14 39
M  V30 43 1 14 40
M  V30 44 1 14 41
M  V30 45 1 16 42
M  V30 46 1 17 43
M  V30 47 1 19 44
M  V30 48 1 20 45
M  V30 49 1 26 46
M  V30 50 1 27 47
M  V30 51 1 28 48
M  V30 52 1 28 49
M  V30 53 1 31 50
M  V30 END BOND
M  V30 END CTAB
M  END
>  <Dataset>  (943) 
ChEMBL_Kinases

>  <Ligand_Instance>  (943) 
nan

>  <PDB_ID>  (943) 
nan

>  <Standardized_SMILES>  (943) 
CC1=C(C(=O)Nc2ccc3[nH]nc(C)c3c2)C(c2ccc(C(F)(F)F)cc2)CC(=O)N1

>  <Name>  (943) 
GSK-466314A

>  <Pocket>  (943) 
nan

>  <ATP_Site>  (943) 
nan

>  <Peripheral>  (943) 
nan

>  <Num_H_Atoms_ProtBoundConf>  (943) 
nan

>  <Num_Resolved_Atoms>  (943) 
nan

>  <Num_Not_Resolved_Atoms>  (943) 
nan

$$$$
CHEMBL218654
     RDKit          3D

  0  0  0  0  0  0  0  0  0  0999 V3000
M  V30 BEGIN CTAB
M  V30 COUNTS 44 47 0 0 0
M  V30 BEGIN ATOM
M  V30 1 C 2.800560 -2.897440 0.302294 0
M  V30 2 C 1.634989 -3.007411 1.206275 0
M  V30 3 C 0.730465 -2.063583 1.522871 0
M  V30 4 C 1.033288 -0.815039 0.837229 0
M  V30 5 O 2.023444 -0.668625 0.041671 0
M  V30 6 N 0.442457 0.476774 0.808021 0
M  V30 7 C 1.056363 1.458040 -0.018334 0
M  V30 8 C 0.594167 1.524930 -1.329642 0
M  V30 9 C 1.205315 2.492938 -2.131555 0
M  V30 10 C 2.204966 3.347589 -1.694130 0
M  V30 11 N 2.888724 4.318393 -2.322096 0
M  V30 12 N 3.742223 4.831929 -1.429811 0
M  V30 13 C 3.609474 4.203578 -0.251988 0
M  V30 14 C 2.626394 3.238345 -0.382639 0
M  V30 15 C 2.051408 2.294374 0.451624 0
M  V30 16 C -0.429950 -2.228637 2.411364 0
M  V30 17 C -1.659732 -1.518319 1.936506 0
M  V30 18 C -2.387769 -0.773783 2.878428 0
M  V30 19 C -3.513069 -0.161176 2.365263 0
M  V30 20 C -3.877711 -0.279907 1.038238 0
M  V30 21 F -4.982042 0.323766 0.543464 0
M  V30 22 C -3.130728 -1.021226 0.154409 0
M  V30 23 C -2.000136 -1.657348 0.594513 0
M  V30 24 C -0.789934 -3.692792 2.672080 0
M  V30 25 C 0.389244 -4.565461 2.805887 0
M  V30 26 O 0.530798 -5.502058 3.637904 0
M  V30 27 N 1.424390 -4.271167 1.883196 0
M  V30 28 H 3.344322 -3.889019 0.349020 0
M  V30 29 H 3.588166 -2.187787 0.672535 0
M  V30 30 H 2.529493 -2.732792 -0.766595 0
M  V30 31 H -0.395373 0.553126 1.424659 0
M  V30 32 H -0.177871 0.887191 -1.721177 0
M  V30 33 H 0.840594 2.541146 -3.155293 0
M  V30 34 H 2.797733 4.635727 -3.310349 0
M  V30 35 H 4.144925 4.367427 0.687764 0
M  V30 36 H 2.395034 2.223385 1.477534 0
M  V30 37 H -0.205821 -1.821931 3.417804 0
M  V30 38 H -2.049690 -0.722174 3.894788 0
M  V30 39 H -4.121098 0.430141 3.040272 0
M  V30 40 H -3.370009 -1.145224 -0.885045 0
M  V30 41 H -1.363892 -2.256818 -0.041536 0
M  V30 42 H -1.521885 -4.073387 1.917304 0
M  V30 43 H -1.341242 -3.783009 3.642843 0
M  V30 44 H 2.086899 -5.083504 1.702019 0
M  V30 END ATOM
M  V30 BEGIN BOND
M  V30 1 1 1 2
M  V30 2 2 2 3
M  V30 3 1 3 4
M  V30 4 2 4 5
M  V30 5 1 4 6
M  V30 6 1 6 7
M  V30 7 2 7 8
M  V30 8 1 8 9
M  V30 9 2 9 10
M  V30 10 1 10 11
M  V30 11 1 11 12
M  V30 12 2 12 13
M  V30 13 1 13 14
M  V30 14 2 14 15
M  V30 15 1 3 16
M  V30 16 1 16 17
M  V30 17 2 17 18
M  V30 18 1 18 19
M  V30 19 2 19 20
M  V30 20 1 20 21
M  V30 21 1 20 22
M  V30 22 2 22 23
M  V30 23 1 16 24
M  V30 24 1 24 25
M  V30 25 2 25 26
M  V30 26 1 25 27
M  V30 27 1 27 2
M  V30 28 1 15 7
M  V30 29 1 23 17
M  V30 30 1 14 10
M  V30 31 1 1 28
M  V30 32 1 1 29
M  V30 33 1 1 30
M  V30 34 1 6 31
M  V30 35 1 8 32
M  V30 36 1 9 33
M  V30 37 1 11 34
M  V30 38 1 13 35
M  V30 39 1 15 36
M  V30 40 1 16 37
M  V30 41 1 18 38
M  V30 42 1 19 39
M  V30 43 1 22 40
M  V30 44 1 23 41
M  V30 45 1 24 42
M  V30 46 1 24 43
M  V30 47 1 27 44
M  V30 END BOND
M  V30 END CTAB
M  END
>  <Dataset>  (944) 
ChEMBL_Kinases

>  <Ligand_Instance>  (944) 
nan

>  <PDB_ID>  (944) 
nan

>  <Standardized_SMILES>  (944) 
CC1=C(C(=O)Nc2ccc3[nH]ncc3c2)C(c2ccc(F)cc2)CC(=O)N1

>  <Name>  (944) 
nan

>  <Pocket>  (944) 
nan

>  <ATP_Site>  (944) 
nan

>  <Peripheral>  (944) 
nan

>  <Num_H_Atoms_ProtBoundConf>  (944) 
nan

>  <Num_Resolved_Atoms>  (944) 
nan

>  <Num_Not_Resolved_Atoms>  (944) 
nan

$$$$
CHEMBL4634615
     RDKit          3D

  0  0  0  0  0  0  0  0  0  0999 V3000
M  V30 BEGIN CTAB
M  V30 COUNTS 43 46 0 0 0
M  V30 BEGIN ATOM
M  V30 1 N -0.552646 -3.612220 3.812542 0
M  V30 2 C 0.218387 -3.878488 2.640136 0
M  V30 3 N 0.845173 -2.866812 1.980819 0
M  V30 4 C 1.576445 -3.086350 0.876804 0
M  V30 5 C 1.704320 -4.388921 0.381405 0
M  V30 6 N 2.473100 -4.337415 -0.711727 0
M  V30 7 C 2.853495 -3.070371 -0.955686 0
M  V30 8 N 2.292357 -2.323794 0.029745 0
M  V30 9 C 2.410404 -0.892910 0.202216 0 CFG=2
M  V30 10 O 1.197076 -0.237667 0.033302 0
M  V30 11 C 1.596362 1.097547 0.088462 0 CFG=2
M  V30 12 C 0.529161 2.024467 -0.449993 0
M  V30 13 O -0.617922 1.821052 0.370652 0
M  V30 14 C -1.810792 2.508344 0.175569 0
M  V30 15 O -1.941855 3.355633 -0.746115 0
M  V30 16 C -2.860878 2.136610 1.143184 0
M  V30 17 C -2.902697 1.249463 2.199154 0
M  V30 18 C -4.154011 1.298521 2.778373 0
M  V30 19 N -4.851914 2.207611 2.073044 0
M  V30 20 C -4.121050 2.742778 1.077139 0
M  V30 21 C 2.888129 1.208264 -0.699786 0 CFG=1
M  V30 22 O 3.902565 1.828292 0.022026 0
M  V30 23 C 3.277125 -0.249085 -0.834792 0 CFG=1
M  V30 24 O 4.609174 -0.465536 -0.491661 0
M  V30 25 C 1.053156 -5.397562 1.076500 0
M  V30 26 O 1.147842 -6.571393 0.659614 0
M  V30 27 N 0.327897 -5.141854 2.180521 0
M  V30 28 H -0.314995 -3.748407 4.827262 0
M  V30 29 H -1.446049 -3.233649 3.389948 0
M  V30 30 H 3.477826 -2.704833 -1.766015 0
M  V30 31 H 2.797063 -0.619748 1.207380 0
M  V30 32 H 1.817724 1.294992 1.155500 0
M  V30 33 H 0.906054 3.053761 -0.380662 0
M  V30 34 H 0.343081 1.802096 -1.506415 0
M  V30 35 H -2.033337 0.651551 2.454336 0
M  V30 36 H -4.470751 0.707835 3.628397 0
M  V30 37 H -5.857147 2.447035 2.305079 0
M  V30 38 H -4.496117 3.495098 0.390459 0
M  V30 39 H 2.748906 1.694397 -1.690056 0
M  V30 40 H 3.607494 2.107661 0.920742 0
M  V30 41 H 3.037503 -0.550408 -1.855503 0
M  V30 42 H 4.937142 0.173656 0.186944 0
M  V30 43 H -0.167832 -5.908621 2.709948 0
M  V30 END ATOM
M  V30 BEGIN BOND
M  V30 1 1 1 2
M  V30 2 2 2 3
M  V30 3 1 3 4
M  V30 4 2 4 5
M  V30 5 1 5 6
M  V30 6 2 6 7
M  V30 7 1 7 8
M  V30 8 1 8 9
M  V30 9 1 9 10
M  V30 10 1 10 11
M  V30 11 1 11 12
M  V30 12 1 12 13
M  V30 13 1 13 14
M  V30 14 2 14 15
M  V30 15 1 14 16
M  V30 16 1 16 17
M  V30 17 2 17 18
M  V30 18 1 18 19
M  V30 19 1 19 20
M  V30 20 1 11 21
M  V30 21 1 21 22
M  V30 22 1 21 23
M  V30 23 1 23 24
M  V30 24 1 5 25
M  V30 25 2 25 26
M  V30 26 1 25 27
M  V30 27 1 27 2
M  V30 28 1 8 4
M  V30 29 1 23 9
M  V30 30 2 20 16
M  V30 31 1 1 28
M  V30 32 1 1 29
M  V30 33 1 7 30
M  V30 34 1 9 31 CFG=1
M  V30 35 1 11 32 CFG=1
M  V30 36 1 12 33
M  V30 37 1 12 34
M  V30 38 1 17 35
M  V30 39 1 18 36
M  V30 40 1 19 37
M  V30 41 1 20 38
M  V30 42 1 21 39 CFG=3
M  V30 43 1 22 40
M  V30 44 1 23 41 CFG=3
M  V30 45 1 24 42
M  V30 46 1 27 43
M  V30 END BOND
M  V30 END CTAB
M  END
>  <Dataset>  (945) 
ChEMBL_Kinases

>  <Ligand_Instance>  (945) 
nan

>  <PDB_ID>  (945) 
nan

>  <Standardized_SMILES>  (945) 
Nc1nc2c(ncn2[C@@H]2O[C@H](COC(=O)c3cc[nH]c3)[C@@H](O)[C@H]2O)c(=O)[nH]1

>  <Name>  (945) 
nan

>  <Pocket>  (945) 
nan

>  <ATP_Site>  (945) 
nan

>  <Peripheral>  (945) 
nan

>  <Num_H_Atoms_ProtBoundConf>  (945) 
nan

>  <Num_Resolved_Atoms>  (945) 
nan

>  <Num_Not_Resolved_Atoms>  (945) 
nan

$$$$
CHEMBL2105717
     RDKit          3D

  0  0  0  0  0  0  0  0  0  0999 V3000
M  V30 BEGIN CTAB
M  V30 COUNTS 61 65 0 0 0
M  V30 BEGIN ATOM
M  V30 1 C 5.551937 -3.771430 1.765213 0
M  V30 2 O 4.943657 -2.538010 1.504408 0
M  V30 3 C 4.320962 -2.177156 0.337224 0
M  V30 4 C 4.237674 -3.055141 -0.751037 0
M  V30 5 C 3.604851 -2.661283 -1.908895 0
M  V30 6 N 3.479101 -3.428424 -3.020442 0
M  V30 7 C 2.852133 -2.956502 -4.114818 0
M  V30 8 C 2.307810 -1.662482 -4.146893 0
M  V30 9 C 2.418911 -0.841718 -3.014908 0
M  V30 10 O 1.812012 0.337829 -3.321284 0
M  V30 11 C 0.705356 0.802044 -2.653804 0
M  V30 12 C 0.379015 1.728388 -1.683687 0
M  V30 13 C -0.896428 1.940142 -1.225138 0
M  V30 14 C -1.896540 1.190130 -1.761768 0
M  V30 15 N -3.205640 1.466170 -1.212585 0
M  V30 16 C -3.285014 0.552220 -0.106985 0
M  V30 17 O -2.186262 -0.056184 -0.132233 0
M  V30 18 C -4.445698 0.439072 0.789931 0
M  V30 19 C -4.227021 -0.177658 2.114029 0
M  V30 20 O -5.230916 -0.295829 2.897022 0
M  V30 21 N -3.010311 -0.661528 2.625993 0
M  V30 22 C -2.552941 -1.274415 3.816237 0
M  V30 23 C -2.629809 -2.660910 3.738238 0
M  V30 24 C -2.226246 -3.450641 4.804542 0
M  V30 25 C -1.754810 -2.795660 5.922642 0
M  V30 26 F -1.320693 -3.441159 7.052637 0
M  V30 27 C -1.672730 -1.419571 6.015702 0
M  V30 28 C -2.078326 -0.641827 4.944348 0
M  V30 29 C -5.578461 1.395503 0.698909 0
M  V30 30 C -5.795455 0.037839 0.156639 0
M  V30 31 C -1.662563 0.238180 -2.740144 0
M  V30 32 C -0.342234 0.055202 -3.179118 0
M  V30 33 C 3.071204 -1.406234 -1.956261 0
M  V30 34 C 3.146204 -0.534724 -0.896929 0
M  V30 35 C 3.770195 -0.891614 0.277177 0
M  V30 36 O 3.874690 -0.050791 1.383200 0
M  V30 37 C 3.283546 1.242497 1.245064 0
M  V30 38 H 6.409217 -3.627009 2.464167 0
M  V30 39 H 5.912338 -4.301943 0.863094 0
M  V30 40 H 4.878276 -4.490566 2.312587 0
M  V30 41 H 4.653553 -4.036595 -0.714533 0
M  V30 42 H 2.840975 -3.692133 -4.905528 0
M  V30 43 H 1.858593 -1.515972 -5.130893 0
M  V30 44 H 1.303850 2.230405 -1.390046 0
M  V30 45 H -0.924053 2.701029 -0.474820 0
M  V30 46 H -4.011587 2.123411 -1.435452 0
M  V30 47 H -2.151172 -0.606802 2.075822 0
M  V30 48 H -2.991268 -3.233512 2.886681 0
M  V30 49 H -2.258538 -4.546234 4.811493 0
M  V30 50 H -1.310463 -0.873196 6.871757 0
M  V30 51 H -2.063399 0.441890 4.892628 0
M  V30 52 H -6.162825 1.595735 1.644327 0
M  V30 53 H -5.623715 2.229826 -0.001269 0
M  V30 54 H -6.389107 -0.740776 0.659386 0
M  V30 55 H -5.730009 -0.066964 -0.964645 0
M  V30 56 H -2.576297 -0.251455 -3.041484 0
M  V30 57 H -0.406870 -0.736440 -3.941774 0
M  V30 58 H 2.750995 0.463026 -0.898483 0
M  V30 59 H 3.279892 1.785920 2.202293 0
M  V30 60 H 3.725910 1.823579 0.416195 0
M  V30 61 H 2.196729 1.089833 0.971701 0
M  V30 END ATOM
M  V30 BEGIN BOND
M  V30 1 1 1 2
M  V30 2 1 2 3
M  V30 3 2 3 4
M  V30 4 1 4 5
M  V30 5 2 5 6
M  V30 6 1 6 7
M  V30 7 2 7 8
M  V30 8 1 8 9
M  V30 9 1 9 10
M  V30 10 1 10 11
M  V30 11 2 11 12
M  V30 12 1 12 13
M  V30 13 2 13 14
M  V30 14 1 14 15
M  V30 15 1 15 16
M  V30 16 2 16 17
M  V30 17 1 16 18
M  V30 18 1 18 19
M  V30 19 2 19 20
M  V30 20 1 19 21
M  V30 21 1 21 22
M  V30 22 2 22 23
M  V30 23 1 23 24
M  V30 24 2 24 25
M  V30 25 1 25 26
M  V30 26 1 25 27
M  V30 27 2 27 28
M  V30 28 1 18 29
M  V30 29 1 29 30
M  V30 30 1 14 31
M  V30 31 2 31 32
M  V30 32 2 9 33
M  V30 33 1 33 34
M  V30 34 2 34 35
M  V30 35 1 35 36
M  V30 36 1 36 37
M  V30 37 1 35 3
M  V30 38 1 33 5
M  V30 39 1 32 11
M  V30 40 1 30 18
M  V30 41 1 28 22
M  V30 42 1 1 38
M  V30 43 1 1 39
M  V30 44 1 1 40
M  V30 45 1 4 41
M  V30 46 1 7 42
M  V30 47 1 8 43
M  V30 48 1 12 44
M  V30 49 1 13 45
M  V30 50 1 15 46
M  V30 51 1 21 47
M  V30 52 1 23 48
M  V30 53 1 24 49
M  V30 54 1 27 50
M  V30 55 1 28 51
M  V30 56 1 29 52
M  V30 57 1 29 53
M  V30 58 1 30 54
M  V30 59 1 30 55
M  V30 60 1 31 56
M  V30 61 1 32 57
M  V30 62 1 34 58
M  V30 63 1 37 59
M  V30 64 1 37 60
M  V30 65 1 37 61
M  V30 END BOND
M  V30 END CTAB
M  END
>  <Dataset>  (946) 
ChEMBL_Kinases

>  <Ligand_Instance>  (946) 
nan

>  <PDB_ID>  (946) 
nan

>  <Standardized_SMILES>  (946) 
COc1cc2nccc(Oc3ccc(NC(=O)C4(C(=O)Nc5ccc(F)cc5)CC4)cc3)c2cc1OC

>  <Name>  (946) 
CABOZANTINIB

>  <Pocket>  (946) 
nan

>  <ATP_Site>  (946) 
nan

>  <Peripheral>  (946) 
nan

>  <Num_H_Atoms_ProtBoundConf>  (946) 
nan

>  <Num_Resolved_Atoms>  (946) 
nan

>  <Num_Not_Resolved_Atoms>  (946) 
nan

$$$$
CHEMBL4573833
     RDKit          3D

  0  0  0  0  0  0  0  0  0  0999 V3000
M  V30 BEGIN CTAB
M  V30 COUNTS 82 86 0 0 0
M  V30 BEGIN ATOM
M  V30 1 C 6.397237 0.235289 3.856278 0
M  V30 2 C 5.731135 1.158877 2.841368 0
M  V30 3 C 5.220035 0.360578 1.686811 0 CFG=2
M  V30 4 C 6.316489 -0.360991 0.989359 0
M  V30 5 O 7.583763 -0.400473 1.108558 0
M  V30 6 N 5.884196 -1.231299 -0.081431 0
M  V30 7 C 6.577184 -2.415875 -0.560372 0
M  V30 8 C 4.652126 -0.920129 -0.770157 0
M  V30 9 C 4.199651 -1.734520 -1.807328 0
M  V30 10 N 3.047985 -1.378552 -2.397487 0
M  V30 11 C 2.347349 -0.292769 -2.022787 0
M  V30 12 N 1.122561 0.195534 -2.547220 0
M  V30 13 C -0.230480 -0.085077 -2.111666 0
M  V30 14 C -0.189041 -0.961155 -1.013663 0
M  V30 15 C -1.383920 -1.347456 -0.449361 0
M  V30 16 F -1.438880 -2.184429 0.601228 0
M  V30 17 C -2.601235 -0.910960 -0.916291 0
M  V30 18 C -3.951619 -1.193154 -0.457429 0
M  V30 19 O -5.015685 -0.781399 -1.015441 0
M  V30 20 N -4.279534 -1.962287 0.671146 0
M  V30 21 C -5.650658 -2.213996 1.085710 0
M  V30 22 C -5.698528 -3.064590 2.335972 0
M  V30 23 N -7.019641 -3.337979 2.782693 0
M  V30 24 C -7.822256 -4.177391 1.979440 0
M  V30 25 C -8.713156 -5.141424 2.686558 0
M  V30 26 O -8.209267 -5.578692 3.891282 0
M  V30 27 C -8.100008 -4.464452 4.709534 0
M  V30 28 C -7.172832 -3.424134 4.197838 0
M  V30 29 C -2.571188 -0.053837 -1.994653 0
M  V30 30 C -1.446109 0.398219 -2.638181 0
M  V30 31 O -1.105843 1.188444 -3.650901 0
M  V30 32 C -1.760320 1.946423 -4.582965 0
M  V30 33 C -2.644458 1.230840 -5.569915 0
M  V30 34 O -3.671376 0.521650 -5.036162 0
M  V30 35 N 2.807149 0.474873 -1.018964 0
M  V30 36 C 3.938648 0.215986 -0.362141 0
M  V30 37 N 4.432620 1.040348 0.714213 0
M  V30 38 C 4.126736 2.400293 0.726332 0
M  V30 39 C 5.449996 3.164964 0.564556 0
M  V30 40 C 5.297401 4.028034 -0.676316 0
M  V30 41 C 4.126901 3.389007 -1.443613 0
M  V30 42 C 3.266405 3.052610 -0.238515 0
M  V30 43 H 7.157805 0.799905 4.448100 0
M  V30 44 H 6.904440 -0.578690 3.313635 0
M  V30 45 H 5.630806 -0.201005 4.536242 0
M  V30 46 H 6.538680 1.874890 2.575882 0
M  V30 47 H 4.975011 1.702911 3.398897 0
M  V30 48 H 4.595708 -0.462193 2.170085 0
M  V30 49 H 5.903777 -3.285406 -0.588659 0
M  V30 50 H 7.154569 -2.246215 -1.475646 0
M  V30 51 H 7.333251 -2.655688 0.242676 0
M  V30 52 H 4.742450 -2.599564 -2.121085 0
M  V30 53 H 1.255889 0.845300 -3.359584 0
M  V30 54 H 0.685049 -1.381923 -0.542777 0
M  V30 55 H -3.529290 -2.377522 1.250538 0
M  V30 56 H -6.252264 -2.629545 0.269230 0
M  V30 57 H -6.092037 -1.228901 1.339735 0
M  V30 58 H -5.183206 -2.514513 3.166218 0
M  V30 59 H -5.137966 -4.000460 2.224621 0
M  V30 60 H -8.466415 -3.558935 1.297865 0
M  V30 61 H -7.128395 -4.723612 1.275070 0
M  V30 62 H -9.732384 -4.711300 2.771196 0
M  V30 63 H -8.834061 -6.033059 2.030819 0
M  V30 64 H -9.119436 -4.062929 4.958573 0
M  V30 65 H -7.689098 -4.830961 5.696442 0
M  V30 66 H -7.500604 -2.419439 4.590018 0
M  V30 67 H -6.141931 -3.588277 4.622733 0
M  V30 68 H -3.453483 0.370345 -2.440725 0
M  V30 69 H -2.368432 2.785375 -4.112468 0
M  V30 70 H -0.979711 2.528136 -5.177545 0
M  V30 71 H -2.030452 0.499139 -6.176219 0
M  V30 72 H -2.995292 2.007953 -6.319292 0
M  V30 73 H -3.811037 -0.390141 -5.345009 0
M  V30 74 H 3.693783 2.631741 1.748874 0
M  V30 75 H 5.694138 3.792173 1.417779 0
M  V30 76 H 6.291259 2.468746 0.292597 0
M  V30 77 H 5.072231 5.068291 -0.415066 0
M  V30 78 H 6.169939 4.009960 -1.341086 0
M  V30 79 H 3.621152 4.140767 -2.081099 0
M  V30 80 H 4.536284 2.523243 -1.956631 0
M  V30 81 H 3.061024 4.093313 0.179652 0
M  V30 82 H 2.272333 2.693982 -0.456779 0
M  V30 END ATOM
M  V30 BEGIN BOND
M  V30 1 1 1 2
M  V30 2 1 2 3
M  V30 3 1 3 4
M  V30 4 2 4 5
M  V30 5 1 4 6
M  V30 6 1 6 7
M  V30 7 1 6 8
M  V30 8 2 8 9
M  V30 9 1 9 10
M  V30 10 2 10 11
M  V30 11 1 11 12
M  V30 12 1 12 13
M  V30 13 2 13 14
M  V30 14 1 14 15
M  V30 15 1 15 16
M  V30 16 2 15 17
M  V30 17 1 17 18
M  V30 18 2 18 19
M  V30 19 1 18 20
M  V30 20 1 20 21
M  V30 21 1 21 22
M  V30 22 1 22 23
M  V30 23 1 23 24
M  V30 24 1 24 25
M  V30 25 1 25 26
M  V30 26 1 26 27
M  V30 27 1 27 28
M  V30 28 1 17 29
M  V30 29 2 29 30
M  V30 30 1 30 31
M  V30 31 1 31 32
M  V30 32 1 32 33
M  V30 33 1 33 34
M  V30 34 1 11 35
M  V30 35 2 35 36
M  V30 36 1 36 37
M  V30 37 1 37 38
M  V30 38 1 38 39
M  V30 39 1 39 40
M  V30 40 1 40 41
M  V30 41 1 41 42
M  V30 42 1 37 3
M  V30 43 1 42 38
M  V30 44 1 36 8
M  V30 45 1 30 13
M  V30 46 1 28 23
M  V30 47 1 1 43
M  V30 48 1 1 44
M  V30 49 1 1 45
M  V30 50 1 2 46
M  V30 51 1 2 47
M  V30 52 1 3 48 CFG=1
M  V30 53 1 7 49
M  V30 54 1 7 50
M  V30 55 1 7 51
M  V30 56 1 9 52
M  V30 57 1 12 53
M  V30 58 1 14 54
M  V30 59 1 20 55
M  V30 60 1 21 56
M  V30 61 1 21 57
M  V30 62 1 22 58
M  V30 63 1 22 59
M  V30 64 1 24 60
M  V30 65 1 24 61
M  V30 66 1 25 62
M  V30 67 1 25 63
M  V30 68 1 27 64
M  V30 69 1 27 65
M  V30 70 1 28 66
M  V30 71 1 28 67
M  V30 72 1 29 68
M  V30 73 1 32 69
M  V30 74 1 32 70
M  V30 75 1 33 71
M  V30 76 1 33 72
M  V30 77 1 34 73
M  V30 78 1 38 74
M  V30 79 1 39 75
M  V30 80 1 39 76
M  V30 81 1 40 77
M  V30 82 1 40 78
M  V30 83 1 41 79
M  V30 84 1 41 80
M  V30 85 1 42 81
M  V30 86 1 42 82
M  V30 END BOND
M  V30 END CTAB
M  END
>  <Dataset>  (947) 
ChEMBL_Kinases

>  <Ligand_Instance>  (947) 
nan

>  <PDB_ID>  (947) 
nan

>  <Standardized_SMILES>  (947) 
CC[C@@H]1C(=O)N(C)c2cnc(Nc3cc(F)c(C(=O)NCCN4CCOCC4)cc3OCCO)nc2N1C1CCCC1

>  <Name>  (947) 
nan

>  <Pocket>  (947) 
nan

>  <ATP_Site>  (947) 
nan

>  <Peripheral>  (947) 
nan

>  <Num_H_Atoms_ProtBoundConf>  (947) 
nan

>  <Num_Resolved_Atoms>  (947) 
nan

>  <Num_Not_Resolved_Atoms>  (947) 
nan

$$$$
CHEMBL4636133
     RDKit          3D

  0  0  0  0  0  0  0  0  0  0999 V3000
M  V30 BEGIN CTAB
M  V30 COUNTS 41 44 0 0 0
M  V30 BEGIN ATOM
M  V30 1 O 0.132454 -1.634836 3.690475 0
M  V30 2 C -0.668177 -2.248970 2.959032 0
M  V30 3 O -0.300362 -3.032049 1.931876 0
M  V30 4 C 0.922712 -3.378767 1.384375 0
M  V30 5 C 1.739970 -2.364103 0.710147 0 CFG=1
M  V30 6 O 1.114579 -1.767963 -0.396760 0
M  V30 7 C 2.092352 -0.890101 -0.866593 0 CFG=1
M  V30 8 N 1.502940 0.218470 -1.591621 0
M  V30 9 C 1.299582 0.281750 -2.924065 0
M  V30 10 N 0.727038 1.463560 -3.272351 0
M  V30 11 C 0.551207 2.192247 -2.139151 0
M  V30 12 C 0.029555 3.437277 -1.885894 0
M  V30 13 O -0.413873 4.163269 -2.797519 0
M  V30 14 N -0.021069 3.922397 -0.626070 0
M  V30 15 C 0.459947 3.127837 0.338991 0
M  V30 16 N 0.974205 1.904483 0.102982 0
M  V30 17 C 1.038120 1.399684 -1.122451 0
M  V30 18 C 2.928736 -0.436209 0.304194 0 CFG=2
M  V30 19 O 4.174869 -1.047343 0.314771 0
M  V30 20 C 2.138264 -1.128758 1.456713 0 CFG=2
M  V30 21 O 2.946983 -1.319692 2.541515 0
M  V30 22 C -2.109690 -2.123708 3.217423 0
M  V30 23 C -2.701566 -1.361711 4.232840 0
M  V30 24 C -4.076013 -1.475809 4.180351 0
M  V30 25 C -4.315065 -2.319698 3.116670 0
M  V30 26 N -3.158257 -2.695363 2.557210 0
M  V30 27 H 0.738849 -4.206619 0.626226 0
M  V30 28 H 1.553052 -3.928586 2.172597 0
M  V30 29 H 2.700462 -2.781650 0.296108 0
M  V30 30 H 2.732416 -1.483520 -1.555543 0
M  V30 31 H 1.561153 -0.512120 -3.626044 0
M  V30 32 H -0.396549 4.850957 -0.333926 0
M  V30 33 H 0.449059 3.456345 1.370113 0
M  V30 34 H 2.963795 0.645851 0.451958 0
M  V30 35 H 4.612912 -1.048924 -0.566243 0
M  V30 36 H 1.246102 -0.491371 1.610631 0
M  V30 37 H 3.716922 -0.694441 2.448470 0
M  V30 38 H -2.170534 -0.758302 4.968907 0
M  V30 39 H -4.836643 -1.031293 4.800964 0
M  V30 40 H -5.284419 -2.667204 2.737910 0
M  V30 41 H -3.043183 -3.331065 1.735865 0
M  V30 END ATOM
M  V30 BEGIN BOND
M  V30 1 2 1 2
M  V30 2 1 2 3
M  V30 3 1 3 4
M  V30 4 1 4 5
M  V30 5 1 5 6
M  V30 6 1 6 7
M  V30 7 1 7 8
M  V30 8 1 8 9
M  V30 9 2 9 10
M  V30 10 1 10 11
M  V30 11 1 11 12
M  V30 12 2 12 13
M  V30 13 1 12 14
M  V30 14 1 14 15
M  V30 15 2 15 16
M  V30 16 1 16 17
M  V30 17 1 7 18
M  V30 18 1 18 19
M  V30 19 1 18 20
M  V30 20 1 20 21
M  V30 21 1 2 22
M  V30 22 2 22 23
M  V30 23 1 23 24
M  V30 24 2 24 25
M  V30 25 1 25 26
M  V30 26 1 20 5
M  V30 27 1 26 22
M  V30 28 1 17 8
M  V30 29 2 17 11
M  V30 30 1 4 27
M  V30 31 1 4 28
M  V30 32 1 5 29 CFG=3
M  V30 33 1 7 30 CFG=3
M  V30 34 1 9 31
M  V30 35 1 14 32
M  V30 36 1 15 33
M  V30 37 1 18 34 CFG=1
M  V30 38 1 19 35
M  V30 39 1 20 36 CFG=1
M  V30 40 1 21 37
M  V30 41 1 23 38
M  V30 42 1 24 39
M  V30 43 1 25 40
M  V30 44 1 26 41
M  V30 END BOND
M  V30 END CTAB
M  END
>  <Dataset>  (948) 
ChEMBL_Kinases

>  <Ligand_Instance>  (948) 
nan

>  <PDB_ID>  (948) 
nan

>  <Standardized_SMILES>  (948) 
O=C(OC[C@H]1O[C@@H](n2cnc3c(=O)[nH]cnc32)[C@H](O)[C@@H]1O)c1ccc[nH]1

>  <Name>  (948) 
nan

>  <Pocket>  (948) 
nan

>  <ATP_Site>  (948) 
nan

>  <Peripheral>  (948) 
nan

>  <Num_H_Atoms_ProtBoundConf>  (948) 
nan

>  <Num_Resolved_Atoms>  (948) 
nan

>  <Num_Not_Resolved_Atoms>  (948) 
nan

$$$$
CHEMBL453510
     RDKit          3D

  0  0  0  0  0  0  0  0  0  0999 V3000
M  V30 BEGIN CTAB
M  V30 COUNTS 48 50 0 0 0
M  V30 BEGIN ATOM
M  V30 1 C -0.392410 -4.589309 1.215707 0
M  V30 2 C -0.367311 -3.859580 -0.114760 0
M  V30 3 N 0.098192 -2.488454 0.060378 0
M  V30 4 C 1.383048 -2.117705 -0.015150 0
M  V30 5 C 2.558897 -2.923056 -0.269989 0
M  V30 6 N 2.668982 -4.243301 -0.495366 0
M  V30 7 O 3.926469 -4.513088 -0.671146 0
M  V30 8 N 4.669527 -3.450452 -0.577117 0
M  V30 9 C 3.858622 -2.405715 -0.322746 0
M  V30 10 N 4.315979 -1.063377 -0.153426 0
M  V30 11 N 1.429057 -0.778352 0.198157 0
M  V30 12 C 0.170641 -0.388582 0.394886 0
M  V30 13 C -0.265246 0.890281 0.649475 0
M  V30 14 C 0.583304 2.042653 0.748249 0
M  V30 15 C 1.296568 3.009309 0.840476 0
M  V30 16 C 2.178982 4.173276 0.966676 0
M  V30 17 C 2.347670 4.611347 2.410895 0
M  V30 18 C 1.552789 5.263674 0.128326 0
M  V30 19 O 3.453058 3.880170 0.478096 0
M  V30 20 N -1.594371 1.080274 0.820938 0
M  V30 21 C -2.459420 0.051931 0.744819 0
M  V30 22 C -2.107139 -1.253349 0.495543 0
M  V30 23 O -2.768963 -2.385419 0.379882 0
M  V30 24 C -4.037750 -2.884942 0.445687 0
M  V30 25 C -4.771496 -2.807582 1.742973 0
M  V30 26 N -4.957262 -1.488845 2.222292 0
M  V30 27 C -0.747141 -1.444208 0.320105 0
M  V30 28 H 0.629663 -4.895594 1.519745 0
M  V30 29 H -0.724217 -3.842558 1.990132 0
M  V30 30 H -1.080850 -5.449662 1.154119 0
M  V30 31 H 0.327646 -4.456560 -0.754452 0
M  V30 32 H -1.348993 -3.953097 -0.567073 0
M  V30 33 H 3.921269 -0.642868 0.705079 0
M  V30 34 H 4.954727 -0.547484 -0.781622 0
M  V30 35 H 3.388685 4.915877 2.620075 0
M  V30 36 H 2.088954 3.723486 3.024310 0
M  V30 37 H 1.656060 5.435988 2.682088 0
M  V30 38 H 0.477210 5.355375 0.358969 0
M  V30 39 H 2.071073 6.217259 0.429991 0
M  V30 40 H 1.749324 5.014453 -0.933094 0
M  V30 41 H 3.419021 3.204049 -0.244997 0
M  V30 42 H -3.497483 0.278332 0.874038 0
M  V30 43 H -3.969146 -3.972412 0.093071 0
M  V30 44 H -4.707147 -2.419055 -0.339197 0
M  V30 45 H -5.729646 -3.370871 1.651193 0
M  V30 46 H -4.214646 -3.373571 2.552759 0
M  V30 47 H -5.148598 -1.399156 3.226817 0
M  V30 48 H -5.542155 -0.906744 1.588919 0
M  V30 END ATOM
M  V30 BEGIN BOND
M  V30 1 1 1 2
M  V30 2 1 2 3
M  V30 3 1 3 4
M  V30 4 1 4 5
M  V30 5 2 5 6
M  V30 6 1 6 7
M  V30 7 1 7 8
M  V30 8 2 8 9
M  V30 9 1 9 10
M  V30 10 2 4 11
M  V30 11 1 11 12
M  V30 12 2 12 13
M  V30 13 1 13 14
M  V30 14 3 14 15
M  V30 15 1 15 16
M  V30 16 1 16 17
M  V30 17 1 16 18
M  V30 18 1 16 19
M  V30 19 1 13 20
M  V30 20 2 20 21
M  V30 21 1 21 22
M  V30 22 1 22 23
M  V30 23 1 23 24
M  V30 24 1 24 25
M  V30 25 1 25 26
M  V30 26 2 22 27
M  V30 27 1 27 3
M  V30 28 1 9 5
M  V30 29 1 27 12
M  V30 30 1 1 28
M  V30 31 1 1 29
M  V30 32 1 1 30
M  V30 33 1 2 31
M  V30 34 1 2 32
M  V30 35 1 10 33
M  V30 36 1 10 34
M  V30 37 1 17 35
M  V30 38 1 17 36
M  V30 39 1 17 37
M  V30 40 1 18 38
M  V30 41 1 18 39
M  V30 42 1 18 40
M  V30 43 1 19 41
M  V30 44 1 21 42
M  V30 45 1 24 43
M  V30 46 1 24 44
M  V30 47 1 25 45
M  V30 48 1 25 46
M  V30 49 1 26 47
M  V30 50 1 26 48
M  V30 END BOND
M  V30 END CTAB
M  END
>  <Dataset>  (949) 
ChEMBL_Kinases

>  <Ligand_Instance>  (949) 
nan

>  <PDB_ID>  (949) 
nan

>  <Standardized_SMILES>  (949) 
CCn1c(-c2nonc2N)nc2c(C#CC(C)(C)O)ncc(OCCN)c21

>  <Name>  (949) 
nan

>  <Pocket>  (949) 
nan

>  <ATP_Site>  (949) 
nan

>  <Peripheral>  (949) 
nan

>  <Num_H_Atoms_ProtBoundConf>  (949) 
nan

>  <Num_Resolved_Atoms>  (949) 
nan

>  <Num_Not_Resolved_Atoms>  (949) 
nan

$$$$
CHEMBL4642101
     RDKit          3D

  0  0  0  0  0  0  0  0  0  0999 V3000
M  V30 BEGIN CTAB
M  V30 COUNTS 43 45 0 0 0
M  V30 BEGIN ATOM
M  V30 1 C -0.669380 -3.502143 4.639530 0
M  V30 2 C -1.245905 -2.207065 4.106444 0
M  V30 3 N -1.490727 -2.293871 2.682366 0
M  V30 4 C -2.553628 -3.219361 2.484278 0
M  V30 5 C -2.970527 -3.463094 1.075378 0
M  V30 6 C -0.824334 -1.610911 1.644212 0
M  V30 7 C 0.216232 -0.730384 1.818392 0
M  V30 8 C 0.862755 -0.066041 0.793520 0
M  V30 9 C 1.955910 0.850236 1.084351 0
M  V30 10 C 3.303589 0.793459 0.851699 0
M  V30 11 C 4.117572 1.837265 1.239020 0
M  V30 12 N 3.605805 2.928246 1.851219 0
M  V30 13 C 2.291568 3.030092 2.100937 0
M  V30 14 C 1.441650 1.989441 1.720519 0
M  V30 15 C 0.400789 -0.333791 -0.477324 0
M  V30 16 C 0.999828 0.297646 -1.643509 0
M  V30 17 C 2.215637 0.036292 -2.235760 0
M  V30 18 C 2.693856 0.700336 -3.338477 0
M  V30 19 C 1.930485 1.693247 -3.907014 0
M  V30 20 C 0.705858 1.986261 -3.344042 0
M  V30 21 C 0.228396 1.305355 -2.222592 0
M  V30 22 N -0.618834 -1.198508 -0.630040 0
M  V30 23 N -1.213887 -1.816395 0.377456 0
M  V30 24 H -1.465011 -4.165297 5.033544 0
M  V30 25 H -0.039212 -3.238910 5.511211 0
M  V30 26 H -0.033467 -3.946883 3.868489 0
M  V30 27 H -0.499538 -1.416238 4.273285 0
M  V30 28 H -2.177792 -2.039122 4.696956 0
M  V30 29 H -3.468110 -2.979082 3.071333 0
M  V30 30 H -2.224321 -4.223538 2.885045 0
M  V30 31 H -3.793597 -4.239648 1.129764 0
M  V30 32 H -3.440660 -2.611136 0.564666 0
M  V30 33 H -2.180881 -3.979599 0.468873 0
M  V30 34 H 0.575880 -0.523166 2.814726 0
M  V30 35 H 3.580820 -0.113488 0.370651 0
M  V30 36 H 5.159797 1.652309 0.991055 0
M  V30 37 H 1.964921 3.933897 2.592813 0
M  V30 38 H 0.414398 2.207826 1.983852 0
M  V30 39 H 2.781568 -0.752054 -1.764956 0
M  V30 40 H 3.668087 0.395296 -3.706339 0
M  V30 41 H 2.333467 2.198366 -4.775640 0
M  V30 42 H 0.182640 2.782959 -3.866152 0
M  V30 43 H -0.746733 1.671817 -1.924948 0
M  V30 END ATOM
M  V30 BEGIN BOND
M  V30 1 1 1 2
M  V30 2 1 2 3
M  V30 3 1 3 4
M  V30 4 1 4 5
M  V30 5 1 3 6
M  V30 6 2 6 7
M  V30 7 1 7 8
M  V30 8 1 8 9
M  V30 9 2 9 10
M  V30 10 1 10 11
M  V30 11 2 11 12
M  V30 12 1 12 13
M  V30 13 2 13 14
M  V30 14 2 8 15
M  V30 15 1 15 16
M  V30 16 2 16 17
M  V30 17 1 17 18
M  V30 18 2 18 19
M  V30 19 1 19 20
M  V30 20 2 20 21
M  V30 21 1 15 22
M  V30 22 2 22 23
M  V30 23 1 23 6
M  V30 24 1 14 9
M  V30 25 1 21 16
M  V30 26 1 1 24
M  V30 27 1 1 25
M  V30 28 1 1 26
M  V30 29 1 2 27
M  V30 30 1 2 28
M  V30 31 1 4 29
M  V30 32 1 4 30
M  V30 33 1 5 31
M  V30 34 1 5 32
M  V30 35 1 5 33
M  V30 36 1 7 34
M  V30 37 1 10 35
M  V30 38 1 11 36
M  V30 39 1 13 37
M  V30 40 1 14 38
M  V30 41 1 17 39
M  V30 42 1 18 40
M  V30 43 1 19 41
M  V30 44 1 20 42
M  V30 45 1 21 43
M  V30 END BOND
M  V30 END CTAB
M  END
>  <Dataset>  (950) 
ChEMBL_Kinases

>  <Ligand_Instance>  (950) 
nan

>  <PDB_ID>  (950) 
nan

>  <Standardized_SMILES>  (950) 
CCN(CC)c1cc(-c2ccncc2)c(-c2ccccc2)nn1

>  <Name>  (950) 
nan

>  <Pocket>  (950) 
nan

>  <ATP_Site>  (950) 
nan

>  <Peripheral>  (950) 
nan

>  <Num_H_Atoms_ProtBoundConf>  (950) 
nan

>  <Num_Resolved_Atoms>  (950) 
nan

>  <Num_Not_Resolved_Atoms>  (950) 
nan

$$$$
CHEMBL230806
     RDKit          3D

  0  0  0  0  0  0  0  0  0  0999 V3000
M  V30 BEGIN CTAB
M  V30 COUNTS 24 26 0 0 0
M  V30 BEGIN ATOM
M  V30 1 N 3.839255 2.347495 0.309870 0
M  V30 2 C 3.059339 1.284684 0.843384 0
M  V30 3 N 3.461541 0.450099 1.808750 0
M  V30 4 C 2.468019 -0.420884 2.055132 0
M  V30 5 C 2.377347 -1.459402 2.938040 0
M  V30 6 C 1.203425 -2.149315 2.924822 0
M  V30 7 N 0.211458 -1.835388 2.108967 0
M  V30 8 C 0.221194 -0.835470 1.217103 0
M  V30 9 C -0.921462 -0.578877 0.371530 0
M  V30 10 C -1.310787 0.282353 -0.610826 0
M  V30 11 C -2.579738 0.038708 -1.075614 0
M  V30 12 Br -3.477757 1.020928 -2.440475 0
M  V30 13 C -3.003057 -1.041985 -0.334001 0
M  V30 14 Br -4.731296 -1.819087 -0.567524 0
M  V30 15 N -2.006620 -1.370472 0.497339 0
M  V30 16 C 1.400772 -0.141794 1.229991 0
M  V30 17 N 1.817895 0.907605 0.513132 0
M  V30 18 H 4.730593 2.018026 -0.153057 0
M  V30 19 H 3.510354 3.338506 0.398024 0
M  V30 20 H 3.156845 -1.738252 3.607998 0
M  V30 21 H 1.012003 -2.987330 3.573585 0
M  V30 22 H -0.698759 1.057907 -0.977045 0
M  V30 23 H -2.197372 -2.181944 1.122657 0
M  V30 24 H 1.308946 1.405635 -0.207772 0
M  V30 END ATOM
M  V30 BEGIN BOND
M  V30 1 1 1 2
M  V30 2 2 2 3
M  V30 3 1 3 4
M  V30 4 2 4 5
M  V30 5 1 5 6
M  V30 6 2 6 7
M  V30 7 1 7 8
M  V30 8 1 8 9
M  V30 9 2 9 10
M  V30 10 1 10 11
M  V30 11 1 11 12
M  V30 12 2 11 13
M  V30 13 1 13 14
M  V30 14 1 13 15
M  V30 15 2 8 16
M  V30 16 1 16 17
M  V30 17 1 17 2
M  V30 18 1 16 4
M  V30 19 1 15 9
M  V30 20 1 1 18
M  V30 21 1 1 19
M  V30 22 1 5 20
M  V30 23 1 6 21
M  V30 24 1 10 22
M  V30 25 1 15 23
M  V30 26 1 17 24
M  V30 END BOND
M  V30 END CTAB
M  END
>  <Dataset>  (951) 
ChEMBL_Kinases

>  <Ligand_Instance>  (951) 
nan

>  <PDB_ID>  (951) 
nan

>  <Standardized_SMILES>  (951) 
Nc1nc2ccnc(-c3cc(Br)c(Br)[nH]3)c2[nH]1

>  <Name>  (951) 
AGELADINE A

>  <Pocket>  (951) 
nan

>  <ATP_Site>  (951) 
nan

>  <Peripheral>  (951) 
nan

>  <Num_H_Atoms_ProtBoundConf>  (951) 
nan

>  <Num_Resolved_Atoms>  (951) 
nan

>  <Num_Not_Resolved_Atoms>  (951) 
nan

$$$$
CHEMBL4536012
     RDKit          3D

  0  0  0  0  0  0  0  0  0  0999 V3000
M  V30 BEGIN CTAB
M  V30 COUNTS 45 48 0 0 0
M  V30 BEGIN ATOM
M  V30 1 C -1.221111 -5.810762 -0.133261 0
M  V30 2 C -1.195707 -5.048919 -1.452825 0
M  V30 3 C -0.576474 -3.716225 -1.181884 0
M  V30 4 N -0.482225 -2.909715 -2.265550 0
M  V30 5 C 0.087294 -1.740795 -1.898780 0
M  V30 6 C 0.453695 -0.509018 -2.574658 0
M  V30 7 C -0.555280 0.351368 -2.932834 0
M  V30 8 C -0.342669 1.566480 -3.586147 0
M  V30 9 C 0.957163 1.931629 -3.893874 0
M  V30 10 F 1.234179 3.107376 -4.530260 0
M  V30 11 C 1.998667 1.083118 -3.544563 0
M  V30 12 C 1.741757 -0.112250 -2.897658 0
M  V30 13 C 0.352766 -1.838610 -0.526068 0
M  V30 14 C 0.942601 -0.951623 0.487873 0
M  V30 15 C 2.232474 -0.464628 0.532731 0
M  V30 16 C 2.654511 0.368097 1.547400 0
M  V30 17 N 1.826683 0.740197 2.536780 0
M  V30 18 C 0.559828 0.293390 2.539454 0
M  V30 19 N -0.285694 0.703441 3.596037 0
M  V30 20 C 0.205571 1.555934 4.607764 0
M  V30 21 O 1.411926 1.941041 4.546988 0
M  V30 22 C -0.590836 2.058071 5.775757 0
M  V30 23 C 0.132014 2.211888 7.067209 0
M  V30 24 C -0.218869 3.437705 6.285561 0
M  V30 25 C 0.101049 -0.544856 1.534549 0
M  V30 26 N -0.066088 -3.064105 -0.115324 0
M  V30 27 H -0.202495 -5.757912 0.303030 0
M  V30 28 H -1.536656 -6.863436 -0.272424 0
M  V30 29 H -1.885604 -5.263388 0.581603 0
M  V30 30 H -0.558266 -5.647645 -2.143675 0
M  V30 31 H -2.188117 -4.975745 -1.915134 0
M  V30 32 H -1.574267 0.121691 -2.721218 0
M  V30 33 H -1.171170 2.205815 -3.842242 0
M  V30 34 H 3.032853 1.316562 -3.758358 0
M  V30 35 H 2.542582 -0.763309 -2.633037 0
M  V30 36 H 2.867714 -0.787613 -0.278532 0
M  V30 37 H 3.694113 0.669051 1.443983 0
M  V30 38 H -1.261364 0.400154 3.661733 0
M  V30 39 H -1.646886 1.730259 5.841635 0
M  V30 40 H 1.206766 1.919373 7.131811 0
M  V30 41 H -0.377440 2.086319 8.037370 0
M  V30 42 H 0.604983 3.963012 5.751120 0
M  V30 43 H -1.043665 4.110657 6.635628 0
M  V30 44 H -0.942633 -0.876432 1.593227 0
M  V30 45 H -0.088839 -3.598647 0.779208 0
M  V30 END ATOM
M  V30 BEGIN BOND
M  V30 1 1 1 2
M  V30 2 1 2 3
M  V30 3 2 3 4
M  V30 4 1 4 5
M  V30 5 1 5 6
M  V30 6 2 6 7
M  V30 7 1 7 8
M  V30 8 2 8 9
M  V30 9 1 9 10
M  V30 10 1 9 11
M  V30 11 2 11 12
M  V30 12 2 5 13
M  V30 13 1 13 14
M  V30 14 2 14 15
M  V30 15 1 15 16
M  V30 16 2 16 17
M  V30 17 1 17 18
M  V30 18 1 18 19
M  V30 19 1 19 20
M  V30 20 2 20 21
M  V30 21 1 20 22
M  V30 22 1 22 23
M  V30 23 1 23 24
M  V30 24 2 18 25
M  V30 25 1 13 26
M  V30 26 1 26 3
M  V30 27 1 12 6
M  V30 28 1 25 14
M  V30 29 1 24 22
M  V30 30 1 1 27
M  V30 31 1 1 28
M  V30 32 1 1 29
M  V30 33 1 2 30
M  V30 34 1 2 31
M  V30 35 1 7 32
M  V30 36 1 8 33
M  V30 37 1 11 34
M  V30 38 1 12 35
M  V30 39 1 15 36
M  V30 40 1 16 37
M  V30 41 1 19 38
M  V30 42 1 22 39
M  V30 43 1 23 40
M  V30 44 1 23 41
M  V30 45 1 24 42
M  V30 46 1 24 43
M  V30 47 1 25 44
M  V30 48 1 26 45
M  V30 END BOND
M  V30 END CTAB
M  END
>  <Dataset>  (952) 
ChEMBL_Kinases

>  <Ligand_Instance>  (952) 
nan

>  <PDB_ID>  (952) 
nan

>  <Standardized_SMILES>  (952) 
CCc1nc(-c2ccc(F)cc2)c(-c2ccnc(NC(=O)C3CC3)c2)[nH]1

>  <Name>  (952) 
nan

>  <Pocket>  (952) 
nan

>  <ATP_Site>  (952) 
nan

>  <Peripheral>  (952) 
nan

>  <Num_H_Atoms_ProtBoundConf>  (952) 
nan

>  <Num_Resolved_Atoms>  (952) 
nan

>  <Num_Not_Resolved_Atoms>  (952) 
nan

$$$$
CHEMBL4536915
     RDKit          3D

  0  0  0  0  0  0  0  0  0  0999 V3000
M  V30 BEGIN CTAB
M  V30 COUNTS 35 38 0 0 0
M  V30 BEGIN ATOM
M  V30 1 O 0.121587 -5.937537 2.657492 0
M  V30 2 C 1.226966 -5.126521 2.637470 0
M  V30 3 C 0.929355 -3.668710 2.875268 0
M  V30 4 O 0.078715 -3.079666 1.962152 0
M  V30 5 N -0.374366 -1.807191 1.902900 0
M  V30 6 C -0.016407 -1.080334 0.895024 0
M  V30 7 C 0.823713 -1.344301 -0.271015 0
M  V30 8 C 1.475667 -2.520839 -0.584306 0
M  V30 9 C 2.233621 -2.554427 -1.760876 0
M  V30 10 C 2.292734 -1.405645 -2.553654 0
M  V30 11 C 1.625419 -0.243175 -2.207544 0
M  V30 12 C 0.874113 -0.203178 -1.045381 0
M  V30 13 C 0.074646 0.857081 -0.428362 0
M  V30 14 N -0.199201 2.140689 -0.777414 0
M  V30 15 C -0.989218 2.923386 -0.006337 0
M  V30 16 C -1.288142 4.230002 -0.329796 0
M  V30 17 C -2.101124 4.975539 0.500184 0
M  V30 18 C -2.648699 4.459523 1.679114 0
M  V30 19 C -2.333399 3.136849 1.986489 0
M  V30 20 C -1.523202 2.386306 1.163956 0
M  V30 21 N -1.252304 1.096731 1.521302 0
M  V30 22 C -0.454982 0.306892 0.743026 0
M  V30 23 H -0.421874 -5.769783 1.828649 0
M  V30 24 H 1.928805 -5.448262 3.442790 0
M  V30 25 H 1.762704 -5.274630 1.678773 0
M  V30 26 H 1.926373 -3.146179 2.804786 0
M  V30 27 H 0.542664 -3.517315 3.901709 0
M  V30 28 H 1.431030 -3.411327 0.028363 0
M  V30 29 H 2.758635 -3.470321 -2.032376 0
M  V30 30 H 2.900903 -1.521346 -3.443669 0
M  V30 31 H 1.706763 0.617955 -2.860306 0
M  V30 32 H -0.873993 4.649984 -1.239569 0
M  V30 33 H -2.293865 5.990646 0.186523 0
M  V30 34 H -3.275683 5.116542 2.269255 0
M  V30 35 H -2.773791 2.771110 2.904669 0
M  V30 END ATOM
M  V30 BEGIN BOND
M  V30 1 1 1 2
M  V30 2 1 2 3
M  V30 3 1 3 4
M  V30 4 1 4 5
M  V30 5 2 5 6
M  V30 6 1 6 7
M  V30 7 2 7 8
M  V30 8 1 8 9
M  V30 9 2 9 10
M  V30 10 1 10 11
M  V30 11 2 11 12
M  V30 12 1 12 13
M  V30 13 2 13 14
M  V30 14 1 14 15
M  V30 15 2 15 16
M  V30 16 1 16 17
M  V30 17 2 17 18
M  V30 18 1 18 19
M  V30 19 2 19 20
M  V30 20 1 20 21
M  V30 21 2 21 22
M  V30 22 1 22 6
M  V30 23 1 12 7
M  V30 24 1 22 13
M  V30 25 1 20 15
M  V30 26 1 1 23
M  V30 27 1 2 24
M  V30 28 1 2 25
M  V30 29 1 3 26
M  V30 30 1 3 27
M  V30 31 1 8 28
M  V30 32 1 9 29
M  V30 33 1 10 30
M  V30 34 1 11 31
M  V30 35 1 16 32
M  V30 36 1 17 33
M  V30 37 1 18 34
M  V30 38 1 19 35
M  V30 END BOND
M  V30 END CTAB
M  END
>  <Dataset>  (953) 
ChEMBL_Kinases

>  <Ligand_Instance>  (953) 
nan

>  <PDB_ID>  (953) 
nan

>  <Standardized_SMILES>  (953) 
OCCO/N=C1\c2ccccc2-c2nc3ccccc3nc21

>  <Name>  (953) 
nan

>  <Pocket>  (953) 
nan

>  <ATP_Site>  (953) 
nan

>  <Peripheral>  (953) 
nan

>  <Num_H_Atoms_ProtBoundConf>  (953) 
nan

>  <Num_Resolved_Atoms>  (953) 
nan

>  <Num_Not_Resolved_Atoms>  (953) 
nan

$$$$
CHEMBL4641226
     RDKit          3D

  0  0  0  0  0  0  0  0  0  0999 V3000
M  V30 BEGIN CTAB
M  V30 COUNTS 55 57 0 0 0
M  V30 BEGIN ATOM
M  V30 1 C 3.006558 -4.615213 2.297794 0
M  V30 2 C 3.778440 -3.815423 1.553658 0
M  V30 3 C 4.562208 -2.978317 2.442513 0
M  V30 4 O 4.310527 -3.224827 3.645824 0
M  V30 5 N 5.456765 -2.047321 1.843691 0
M  V30 6 C 5.725010 -1.786619 0.450136 0
M  V30 7 C 5.882533 -0.348995 0.108358 0
M  V30 8 C 5.442671 0.631216 1.143367 0
M  V30 9 C 4.043664 1.097232 0.933340 0
M  V30 10 O 3.014125 1.009212 1.688307 0
M  V30 11 N 3.685042 1.762802 -0.273578 0
M  V30 12 C 2.217407 2.110859 -0.198570 0
M  V30 13 N 1.636605 2.992076 0.172547 0
M  V30 14 C 0.350475 3.233341 0.209041 0
M  V30 15 C -0.425752 2.272381 -0.277120 0
M  V30 16 S -2.239620 2.042993 -0.486004 0
M  V30 17 C -2.543713 0.426099 -1.247893 0
M  V30 18 C -3.957406 0.129186 -1.461240 0
M  V30 19 N -4.764006 0.383850 -2.521356 0
M  V30 20 C -6.001713 -0.092223 -2.230112 0
M  V30 21 C -5.929691 -0.640127 -0.973307 0
M  V30 22 C -6.962275 -1.310556 -0.126219 0
M  V30 23 C -7.618039 -0.234553 0.701460 0
M  V30 24 C -7.962196 -1.977353 -1.035007 0
M  V30 25 C -6.285402 -2.288324 0.795003 0
M  V30 26 O -4.685750 -0.471956 -0.579225 0
M  V30 27 S 0.766529 1.023012 -0.781973 0
M  V30 28 C 5.589995 0.189016 2.550918 0
M  V30 29 C 6.275360 -1.174916 2.670086 0
M  V30 30 H 2.787578 -4.829526 3.335120 0
M  V30 31 H 2.294655 -5.357705 2.645267 0
M  V30 32 H 3.332266 -4.296812 0.704482 0
M  V30 33 H 6.631775 -2.372792 0.188219 0
M  V30 34 H 4.889421 -2.270995 -0.117138 0
M  V30 35 H 5.280107 -0.142228 -0.804436 0
M  V30 36 H 6.936396 -0.151863 -0.179219 0
M  V30 37 H 6.061755 1.558707 1.013337 0
M  V30 38 H 4.361347 1.952029 -1.046009 0
M  V30 39 H -0.177382 4.123241 0.586839 0
M  V30 40 H -2.001706 0.458976 -2.239376 0
M  V30 41 H -2.007391 -0.376030 -0.675336 0
M  V30 42 H -6.968550 -0.134365 -2.733383 0
M  V30 43 H -7.017090 -0.139627 1.631329 0
M  V30 44 H -7.568649 0.730120 0.156897 0
M  V30 45 H -8.658550 -0.538261 0.950353 0
M  V30 46 H -8.460785 -2.819082 -0.510159 0
M  V30 47 H -8.653194 -1.192811 -1.373716 0
M  V30 48 H -7.425787 -2.359924 -1.937761 0
M  V30 49 H -5.363810 -2.711037 0.370601 0
M  V30 50 H -6.943447 -3.077031 1.179400 0
M  V30 51 H -5.960742 -1.704617 1.701415 0
M  V30 52 H 6.109731 0.943281 3.171163 0
M  V30 53 H 4.586655 0.033873 2.995277 0
M  V30 54 H 7.312876 -1.113092 2.333688 0
M  V30 55 H 6.199256 -1.449916 3.745955 0
M  V30 END ATOM
M  V30 BEGIN BOND
M  V30 1 2 1 2
M  V30 2 1 2 3
M  V30 3 2 3 4
M  V30 4 1 3 5
M  V30 5 1 5 6
M  V30 6 1 6 7
M  V30 7 1 7 8
M  V30 8 1 8 9
M  V30 9 2 9 10
M  V30 10 1 9 11
M  V30 11 1 11 12
M  V30 12 2 12 13
M  V30 13 1 13 14
M  V30 14 2 14 15
M  V30 15 1 15 16
M  V30 16 1 16 17
M  V30 17 1 17 18
M  V30 18 2 18 19
M  V30 19 1 19 20
M  V30 20 2 20 21
M  V30 21 1 21 22
M  V30 22 1 22 23
M  V30 23 1 22 24
M  V30 24 1 22 25
M  V30 25 1 21 26
M  V30 26 1 15 27
M  V30 27 1 8 28
M  V30 28 1 28 29
M  V30 29 1 29 5
M  V30 30 1 27 12
M  V30 31 1 26 18
M  V30 32 1 1 30
M  V30 33 1 1 31
M  V30 34 1 2 32
M  V30 35 1 6 33
M  V30 36 1 6 34
M  V30 37 1 7 35
M  V30 38 1 7 36
M  V30 39 1 8 37
M  V30 40 1 11 38
M  V30 41 1 14 39
M  V30 42 1 17 40
M  V30 43 1 17 41
M  V30 44 1 20 42
M  V30 45 1 23 43
M  V30 46 1 23 44
M  V30 47 1 23 45
M  V30 48 1 24 46
M  V30 49 1 24 47
M  V30 50 1 24 48
M  V30 51 1 25 49
M  V30 52 1 25 50
M  V30 53 1 25 51
M  V30 54 1 28 52
M  V30 55 1 28 53
M  V30 56 1 29 54
M  V30 57 1 29 55
M  V30 END BOND
M  V30 END CTAB
M  END
>  <Dataset>  (954) 
ChEMBL_Kinases

>  <Ligand_Instance>  (954) 
nan

>  <PDB_ID>  (954) 
nan

>  <Standardized_SMILES>  (954) 
C=CC(=O)N1CCC(C(=O)Nc2ncc(SCc3ncc(C(C)(C)C)o3)s2)CC1

>  <Name>  (954) 
nan

>  <Pocket>  (954) 
nan

>  <ATP_Site>  (954) 
nan

>  <Peripheral>  (954) 
nan

>  <Num_H_Atoms_ProtBoundConf>  (954) 
nan

>  <Num_Resolved_Atoms>  (954) 
nan

>  <Num_Not_Resolved_Atoms>  (954) 
nan

$$$$
CHEMBL230011
     RDKit          3D

  0  0  0  0  0  0  0  0  0  0999 V3000
M  V30 BEGIN CTAB
M  V30 COUNTS 40 43 0 0 0
M  V30 BEGIN ATOM
M  V30 1 N 2.657547 -5.184893 4.145904 0
M  V30 2 C 2.593335 -3.980659 3.388416 0
M  V30 3 N 3.617326 -3.118013 3.258056 0
M  V30 4 C 3.502468 -1.993764 2.531251 0
M  V30 5 N 4.600726 -1.100503 2.408031 0
M  V30 6 C 2.338518 -1.658756 1.880599 0
M  V30 7 N 2.180173 -0.535384 1.142199 0
M  V30 8 C 0.996939 -0.282017 0.537167 0
M  V30 9 C 0.735746 0.887809 -0.270083 0
M  V30 10 C 0.400691 0.812528 -1.604609 0
M  V30 11 C 0.148780 1.935631 -2.400048 0
M  V30 12 C 0.244651 3.170501 -1.807209 0
M  V30 13 C 0.576107 3.316977 -0.478150 0
M  V30 14 O 0.653139 4.595962 0.044241 0
M  V30 15 C 0.809084 2.168367 0.241120 0
M  V30 16 C -0.031174 -1.179871 0.686979 0
M  V30 17 C -1.397947 -1.090984 0.134455 0
M  V30 18 C -1.977977 -1.707912 -0.966124 0
M  V30 19 C -3.304357 -1.457270 -1.229990 0
M  V30 20 C -4.084331 -0.625671 -0.457883 0
M  V30 21 C -3.532234 -0.002766 0.637558 0
M  V30 22 O -4.315515 0.843654 1.431014 0
M  V30 23 C -2.184919 -0.244109 0.924068 0
M  V30 24 N 0.092399 -2.328878 1.429133 0
M  V30 25 C 1.304708 -2.557526 2.029166 0
M  V30 26 N 1.408082 -3.707968 2.767333 0
M  V30 27 H 3.261975 -5.738196 3.517153 0
M  V30 28 H 2.217887 -5.443260 5.079679 0
M  V30 29 H 4.490229 -0.110006 2.105310 0
M  V30 30 H 5.627431 -1.085861 2.533614 0
M  V30 31 H 0.327179 -0.173573 -2.070523 0
M  V30 32 H -0.106929 1.814480 -3.438392 0
M  V30 33 H 0.052400 4.062157 -2.407997 0
M  V30 34 H 1.003432 4.742171 0.988137 0
M  V30 35 H 1.067996 2.335458 1.282178 0
M  V30 36 H -1.254656 -2.323580 -1.472840 0
M  V30 37 H -3.653736 -1.993590 -2.116133 0
M  V30 38 H -5.123442 -0.498244 -0.753543 0
M  V30 39 H -3.896002 1.286046 2.237616 0
M  V30 40 H -1.842250 0.303068 1.818979 0
M  V30 END ATOM
M  V30 BEGIN BOND
M  V30 1 1 1 2
M  V30 2 2 2 3
M  V30 3 1 3 4
M  V30 4 1 4 5
M  V30 5 2 4 6
M  V30 6 1 6 7
M  V30 7 2 7 8
M  V30 8 1 8 9
M  V30 9 2 9 10
M  V30 10 1 10 11
M  V30 11 2 11 12
M  V30 12 1 12 13
M  V30 13 1 13 14
M  V30 14 2 13 15
M  V30 15 1 8 16
M  V30 16 1 16 17
M  V30 17 2 17 18
M  V30 18 1 18 19
M  V30 19 2 19 20
M  V30 20 1 20 21
M  V30 21 1 21 22
M  V30 22 2 21 23
M  V30 23 2 16 24
M  V30 24 1 24 25
M  V30 25 2 25 26
M  V30 26 1 26 2
M  V30 27 1 25 6
M  V30 28 1 15 9
M  V30 29 1 23 17
M  V30 30 1 1 27
M  V30 31 1 1 28
M  V30 32 1 5 29
M  V30 33 1 5 30
M  V30 34 1 10 31
M  V30 35 1 11 32
M  V30 36 1 12 33
M  V30 37 1 14 34
M  V30 38 1 15 35
M  V30 39 1 18 36
M  V30 40 1 19 37
M  V30 41 1 20 38
M  V30 42 1 22 39
M  V30 43 1 23 40
M  V30 END BOND
M  V30 END CTAB
M  END
>  <Dataset>  (955) 
ChEMBL_Kinases

>  <Ligand_Instance>  (955) 
nan

>  <PDB_ID>  (955) 
nan

>  <Standardized_SMILES>  (955) 
Nc1nc(N)c2nc(-c3cccc(O)c3)c(-c3cccc(O)c3)nc2n1

>  <Name>  (955) 
TG100-115

>  <Pocket>  (955) 
nan

>  <ATP_Site>  (955) 
nan

>  <Peripheral>  (955) 
nan

>  <Num_H_Atoms_ProtBoundConf>  (955) 
nan

>  <Num_Resolved_Atoms>  (955) 
nan

>  <Num_Not_Resolved_Atoms>  (955) 
nan

$$$$
CHEMBL4538591
     RDKit          3D

  0  0  0  0  0  0  0  0  0  0999 V3000
M  V30 BEGIN CTAB
M  V30 COUNTS 67 71 0 0 0
M  V30 BEGIN ATOM
M  V30 1 C 2.266795 -4.311489 6.176981 0
M  V30 2 N 2.002092 -3.495686 4.979011 0
M  V30 3 C 0.622600 -3.497953 4.565043 0
M  V30 4 C 3.071676 -2.796963 4.356784 0
M  V30 5 N 4.281303 -2.886273 4.976479 0
M  V30 6 C 5.307893 -2.231174 4.421346 0
M  V30 7 N 5.208721 -1.486508 3.280116 0
M  V30 8 C 4.031668 -1.371057 2.634835 0
M  V30 9 C 3.946135 -0.573011 1.420482 0
M  V30 10 C 4.806523 -0.593541 0.340674 0
M  V30 11 C 4.571622 0.244322 -0.735160 0
M  V30 12 C 3.508120 1.117854 -0.797315 0
M  V30 13 N 3.075461 2.009248 -1.716422 0
M  V30 14 C 1.944912 2.603501 -1.240779 0
M  V30 15 N 1.079759 3.609239 -1.742777 0
M  V30 16 C -0.337308 3.650719 -1.743464 0
M  V30 17 C -1.171624 2.662061 -1.291596 0
M  V30 18 C -2.537523 2.728548 -1.289688 0
M  V30 19 C -3.389265 1.618388 -0.791971 0
M  V30 20 N -3.741836 0.748820 -1.863513 0
M  V30 21 C -2.679228 0.122690 -2.565566 0
M  V30 22 C -2.142792 -1.117828 -1.922754 0
M  V30 23 N -3.144595 -1.825409 -1.149489 0
M  V30 24 C -2.817384 -3.127510 -0.672234 0
M  V30 25 O -3.583587 -3.859836 0.011611 0
M  V30 26 C -1.556085 -3.841302 -0.883114 0
M  V30 27 C -1.681099 -5.192096 -0.186816 0
M  V30 28 F -0.501424 -5.921410 -0.355267 0
M  V30 29 F -1.866397 -5.047948 1.160275 0
M  V30 30 F -2.728698 -5.922697 -0.707799 0
M  V30 31 C -4.470853 -1.358907 -0.795670 0
M  V30 32 C -4.842024 -0.132828 -1.556977 0
M  V30 33 C -3.094747 3.913819 -1.795362 0
M  V30 34 C -2.249833 4.928142 -2.259152 0
M  V30 35 N -0.921117 4.760241 -2.216364 0
M  V30 36 N 1.690070 2.067253 -0.020060 0
M  V30 37 C 2.637340 1.141866 0.290495 0
M  V30 38 C 2.874530 0.305202 1.362602 0
M  V30 39 C 2.974736 -2.046582 3.206515 0
M  V30 40 Cl 1.438030 -1.956382 2.409320 0
M  V30 41 H 1.653262 -5.224619 6.147773 0
M  V30 42 H 3.354138 -4.512274 6.182394 0
M  V30 43 H 2.052388 -3.694805 7.080071 0
M  V30 44 H 0.176490 -2.466700 4.515865 0
M  V30 45 H 0.484656 -3.960609 3.589499 0
M  V30 46 H -0.024087 -4.038203 5.287860 0
M  V30 47 H 6.269194 -2.296602 4.905919 0
M  V30 48 H 5.624265 -1.287668 0.424394 0
M  V30 49 H 5.251756 0.207029 -1.556106 0
M  V30 50 H 1.658478 4.354921 -2.132621 0
M  V30 51 H -0.755754 1.761604 -0.911227 0
M  V30 52 H -2.844909 1.103663 0.029546 0
M  V30 53 H -4.328014 1.983756 -0.333831 0
M  V30 54 H -3.091147 -0.209777 -3.564206 0
M  V30 55 H -1.864829 0.822469 -2.794295 0
M  V30 56 H -1.721886 -1.828461 -2.661784 0
M  V30 57 H -1.327351 -0.874021 -1.211514 0
M  V30 58 H -1.300918 -4.023519 -1.949689 0
M  V30 59 H -0.661897 -3.335814 -0.447762 0
M  V30 60 H -5.255359 -2.134037 -1.032134 0
M  V30 61 H -4.457660 -1.148200 0.290733 0
M  V30 62 H -5.522198 0.461228 -0.895904 0
M  V30 63 H -5.430591 -0.329755 -2.493314 0
M  V30 64 H -4.162688 4.006157 -1.811933 0
M  V30 65 H -2.708080 5.829143 -2.642841 0
M  V30 66 H 0.902814 2.286429 0.655279 0
M  V30 67 H 2.158119 0.410927 2.141350 0
M  V30 END ATOM
M  V30 BEGIN BOND
M  V30 1 1 1 2
M  V30 2 1 2 3
M  V30 3 1 2 4
M  V30 4 2 4 5
M  V30 5 1 5 6
M  V30 6 2 6 7
M  V30 7 1 7 8
M  V30 8 1 8 9
M  V30 9 2 9 10
M  V30 10 1 10 11
M  V30 11 2 11 12
M  V30 12 1 12 13
M  V30 13 2 13 14
M  V30 14 1 14 15
M  V30 15 1 15 16
M  V30 16 2 16 17
M  V30 17 1 17 18
M  V30 18 1 18 19
M  V30 19 1 19 20
M  V30 20 1 20 21
M  V30 21 1 21 22
M  V30 22 1 22 23
M  V30 23 1 23 24
M  V30 24 2 24 25
M  V30 25 1 24 26
M  V30 26 1 26 27
M  V30 27 1 27 28
M  V30 28 1 27 29
M  V30 29 1 27 30
M  V30 30 1 23 31
M  V30 31 1 31 32
M  V30 32 2 18 33
M  V30 33 1 33 34
M  V30 34 2 34 35
M  V30 35 1 14 36
M  V30 36 1 36 37
M  V30 37 2 37 38
M  V30 38 2 8 39
M  V30 39 1 39 40
M  V30 40 1 39 4
M  V30 41 1 38 9
M  V30 42 1 37 12
M  V30 43 1 35 16
M  V30 44 1 32 20
M  V30 45 1 1 41
M  V30 46 1 1 42
M  V30 47 1 1 43
M  V30 48 1 3 44
M  V30 49 1 3 45
M  V30 50 1 3 46
M  V30 51 1 6 47
M  V30 52 1 10 48
M  V30 53 1 11 49
M  V30 54 1 15 50
M  V30 55 1 17 51
M  V30 56 1 19 52
M  V30 57 1 19 53
M  V30 58 1 21 54
M  V30 59 1 21 55
M  V30 60 1 22 56
M  V30 61 1 22 57
M  V30 62 1 26 58
M  V30 63 1 26 59
M  V30 64 1 31 60
M  V30 65 1 31 61
M  V30 66 1 32 62
M  V30 67 1 32 63
M  V30 68 1 33 64
M  V30 69 1 34 65
M  V30 70 1 36 66
M  V30 71 1 38 67
M  V30 END BOND
M  V30 END CTAB
M  END
>  <Dataset>  (956) 
ChEMBL_Kinases

>  <Ligand_Instance>  (956) 
nan

>  <PDB_ID>  (956) 
nan

>  <Standardized_SMILES>  (956) 
CN(C)c1ncnc(-c2ccc3nc(Nc4cc(CN5CCN(C(=O)CC(F)(F)F)CC5)ccn4)[nH]c3c2)c1Cl

>  <Name>  (956) 
BAY-440

>  <Pocket>  (956) 
nan

>  <ATP_Site>  (956) 
nan

>  <Peripheral>  (956) 
nan

>  <Num_H_Atoms_ProtBoundConf>  (956) 
nan

>  <Num_Resolved_Atoms>  (956) 
nan

>  <Num_Not_Resolved_Atoms>  (956) 
nan

$$$$
CHEMBL22978
     RDKit          3D

  0  0  0  0  0  0  0  0  0  0999 V3000
M  V30 BEGIN CTAB
M  V30 COUNTS 46 49 0 0 0
M  V30 BEGIN ATOM
M  V30 1 C -0.974753 -3.495106 2.311306 0
M  V30 2 N -1.882893 -2.431728 2.060875 0
M  V30 3 C -2.714085 -2.582361 0.903564 0
M  V30 4 C -3.438245 -1.265406 0.715324 0
M  V30 5 C -2.703104 -0.109920 1.361128 0
M  V30 6 O -3.411338 1.048114 1.094861 0
M  V30 7 C -1.328384 -0.040003 0.801536 0
M  V30 8 N -0.468419 0.919844 1.221074 0
M  V30 9 C 0.710885 0.757553 0.554437 0
M  V30 10 C 1.906523 1.574694 0.701879 0
M  V30 11 C 2.518558 2.401288 -0.217470 0
M  V30 12 C 3.655012 3.109744 0.076450 0
M  V30 13 C 4.230928 3.005251 1.348893 0
M  V30 14 F 5.365877 3.732070 1.592299 0
M  V30 15 C 3.645722 2.187711 2.293247 0
M  V30 16 C 2.502551 1.487646 1.966803 0
M  V30 17 C 0.530489 -0.313896 -0.264356 0
M  V30 18 C 1.461649 -0.929763 -1.200225 0
M  V30 19 C 2.044716 -0.451845 -2.363009 0
M  V30 20 C 2.903397 -1.271202 -3.051894 0
M  V30 21 N 3.195378 -2.525517 -2.630570 0
M  V30 22 C 2.647284 -3.028648 -1.501390 0
M  V30 23 C 1.780913 -2.229214 -0.788120 0
M  V30 24 O -0.681142 -0.758622 -0.093074 0
M  V30 25 C -2.632611 -0.328620 2.878338 0
M  V30 26 C -2.492512 -1.824827 3.177832 0
M  V30 27 H -1.351388 -4.335059 2.889086 0
M  V30 28 H -0.093819 -3.061823 2.852496 0
M  V30 29 H -0.553588 -3.802000 1.311897 0
M  V30 30 H -2.097637 -2.880970 0.045977 0
M  V30 31 H -3.501177 -3.377083 1.040506 0
M  V30 32 H -4.479579 -1.290271 1.092414 0
M  V30 33 H -3.415631 -1.049471 -0.390966 0
M  V30 34 H -3.006869 1.828112 1.543098 0
M  V30 35 H 2.031789 2.437399 -1.161296 0
M  V30 36 H 4.070424 3.739968 -0.714602 0
M  V30 37 H 4.136045 2.147607 3.256046 0
M  V30 38 H 2.141908 0.876859 2.803812 0
M  V30 39 H 1.728329 0.539197 -2.576995 0
M  V30 40 H 3.307054 -0.800479 -3.947439 0
M  V30 41 H 2.924958 -4.035071 -1.225908 0
M  V30 42 H 1.403176 -2.743481 0.103214 0
M  V30 43 H -1.764707 0.229745 3.261806 0
M  V30 44 H -3.538883 0.097454 3.329470 0
M  V30 45 H -3.521244 -2.225471 3.339057 0
M  V30 46 H -1.903261 -1.978869 4.086492 0
M  V30 END ATOM
M  V30 BEGIN BOND
M  V30 1 1 1 2
M  V30 2 1 2 3
M  V30 3 1 3 4
M  V30 4 1 4 5
M  V30 5 1 5 6
M  V30 6 1 5 7
M  V30 7 2 7 8
M  V30 8 1 8 9
M  V30 9 1 9 10
M  V30 10 2 10 11
M  V30 11 1 11 12
M  V30 12 2 12 13
M  V30 13 1 13 14
M  V30 14 1 13 15
M  V30 15 2 15 16
M  V30 16 2 9 17
M  V30 17 1 17 18
M  V30 18 2 18 19
M  V30 19 1 19 20
M  V30 20 2 20 21
M  V30 21 1 21 22
M  V30 22 2 22 23
M  V30 23 1 17 24
M  V30 24 1 5 25
M  V30 25 1 25 26
M  V30 26 1 26 2
M  V30 27 1 24 7
M  V30 28 1 16 10
M  V30 29 1 23 18
M  V30 30 1 1 27
M  V30 31 1 1 28
M  V30 32 1 1 29
M  V30 33 1 3 30
M  V30 34 1 3 31
M  V30 35 1 4 32
M  V30 36 1 4 33
M  V30 37 1 6 34
M  V30 38 1 11 35
M  V30 39 1 12 36
M  V30 40 1 15 37
M  V30 41 1 16 38
M  V30 42 1 19 39
M  V30 43 1 20 40
M  V30 44 1 22 41
M  V30 45 1 23 42
M  V30 46 1 25 43
M  V30 47 1 25 44
M  V30 48 1 26 45
M  V30 49 1 26 46
M  V30 END BOND
M  V30 END CTAB
M  END
>  <Dataset>  (957) 
ChEMBL_Kinases

>  <Ligand_Instance>  (957) 
nan

>  <PDB_ID>  (957) 
nan

>  <Standardized_SMILES>  (957) 
CN1CCC(O)(c2nc(-c3ccc(F)cc3)c(-c3ccncc3)o2)CC1

>  <Name>  (957) 
nan

>  <Pocket>  (957) 
nan

>  <ATP_Site>  (957) 
nan

>  <Peripheral>  (957) 
nan

>  <Num_H_Atoms_ProtBoundConf>  (957) 
nan

>  <Num_Resolved_Atoms>  (957) 
nan

>  <Num_Not_Resolved_Atoms>  (957) 
nan

$$$$
CHEMBL4539521
     RDKit          3D

  0  0  0  0  0  0  0  0  0  0999 V3000
M  V30 BEGIN CTAB
M  V30 COUNTS 33 35 0 0 0
M  V30 BEGIN ATOM
M  V30 1 C -1.047256 -2.446951 2.517985 0
M  V30 2 C 0.366579 -2.839977 2.140900 0
M  V30 3 C 0.316402 -4.254698 1.621796 0
M  V30 4 C 1.166126 -2.773949 3.364413 0
M  V30 5 N 1.793144 -2.726641 4.336786 0
M  V30 6 C 0.937714 -1.896169 1.147582 0
M  V30 7 C 2.226970 -2.185507 0.751648 0
M  V30 8 C 2.791684 -1.312915 -0.184284 0
M  V30 9 C 2.023428 -0.241929 -0.633985 0
M  V30 10 C 0.739085 0.021231 -0.220431 0
M  V30 11 C -0.005389 1.163268 -0.735786 0
M  V30 12 C 0.503951 2.050596 -1.656134 0
M  V30 13 C -0.214214 3.126621 -2.133723 0
M  V30 14 N -1.467207 3.344540 -1.701075 0
M  V30 15 C -1.994896 2.503595 -0.807339 0
M  V30 16 N -3.222054 2.548670 -0.255207 0
M  V30 17 N -3.313922 1.505964 0.584114 0
M  V30 18 C -2.161875 0.814300 0.561122 0
M  V30 19 C -1.292352 1.422694 -0.318566 0
M  V30 20 N 0.254001 -0.854261 0.679628 0
M  V30 21 H -1.049064 -1.390460 2.918074 0
M  V30 22 H -1.459553 -3.118876 3.271747 0
M  V30 23 H -1.659361 -2.403975 1.588232 0
M  V30 24 H -0.270053 -4.839752 2.362064 0
M  V30 25 H -0.263982 -4.269086 0.676196 0
M  V30 26 H 1.331042 -4.691651 1.499494 0
M  V30 27 H 2.794448 -3.020518 1.117337 0
M  V30 28 H 3.796184 -1.512889 -0.512188 0
M  V30 29 H 2.541784 0.356103 -1.338251 0
M  V30 30 H 1.485261 1.936094 -2.037818 0
M  V30 31 H 0.213115 3.802220 -2.853353 0
M  V30 32 H -3.973942 3.269586 -0.445789 0
M  V30 33 H -1.944819 -0.067350 1.129915 0
M  V30 END ATOM
M  V30 BEGIN BOND
M  V30 1 1 1 2
M  V30 2 1 2 3
M  V30 3 1 2 4
M  V30 4 3 4 5
M  V30 5 1 2 6
M  V30 6 2 6 7
M  V30 7 1 7 8
M  V30 8 2 8 9
M  V30 9 1 9 10
M  V30 10 1 10 11
M  V30 11 2 11 12
M  V30 12 1 12 13
M  V30 13 2 13 14
M  V30 14 1 14 15
M  V30 15 1 15 16
M  V30 16 1 16 17
M  V30 17 2 17 18
M  V30 18 1 18 19
M  V30 19 2 10 20
M  V30 20 1 20 6
M  V30 21 1 19 11
M  V30 22 2 19 15
M  V30 23 1 1 21
M  V30 24 1 1 22
M  V30 25 1 1 23
M  V30 26 1 3 24
M  V30 27 1 3 25
M  V30 28 1 3 26
M  V30 29 1 7 27
M  V30 30 1 8 28
M  V30 31 1 9 29
M  V30 32 1 12 30
M  V30 33 1 13 31
M  V30 34 1 16 32
M  V30 35 1 18 33
M  V30 END BOND
M  V30 END CTAB
M  END
>  <Dataset>  (958) 
ChEMBL_Kinases

>  <Ligand_Instance>  (958) 
nan

>  <PDB_ID>  (958) 
nan

>  <Standardized_SMILES>  (958) 
CC(C)(C#N)c1cccc(-c2ccnc3[nH]ncc23)n1

>  <Name>  (958) 
nan

>  <Pocket>  (958) 
nan

>  <ATP_Site>  (958) 
nan

>  <Peripheral>  (958) 
nan

>  <Num_H_Atoms_ProtBoundConf>  (958) 
nan

>  <Num_Resolved_Atoms>  (958) 
nan

>  <Num_Not_Resolved_Atoms>  (958) 
nan

$$$$
CHEMBL2071609
     RDKit          3D

  0  0  0  0  0  0  0  0  0  0999 V3000
M  V30 BEGIN CTAB
M  V30 COUNTS 38 41 0 0 0
M  V30 BEGIN ATOM
M  V30 1 N 2.584244 -6.076737 6.705895 0
M  V30 2 C 2.301578 -5.653291 5.655820 0
M  V30 3 C 1.967946 -5.123614 4.352674 0
M  V30 4 C 1.040701 -5.778685 3.566341 0
M  V30 5 C 0.692648 -5.312188 2.321667 0
M  V30 6 C 1.270963 -4.149645 1.807395 0
M  V30 7 N 1.192061 -3.414136 0.686850 0
M  V30 8 C 2.038645 -2.350189 0.784217 0
M  V30 9 N 2.010017 -1.520606 -0.372175 0
M  V30 10 C 1.117414 -0.420731 -0.519621 0
M  V30 11 C 0.245294 -0.165686 0.519509 0
M  V30 12 C -0.631921 0.910401 0.380606 0
M  V30 13 C -0.590817 1.668272 -0.780676 0
M  V30 14 C -1.505478 2.802348 -0.944298 0
M  V30 15 C -1.150017 3.925362 -1.680844 0
M  V30 16 C -1.976747 5.015939 -1.862725 0
M  V30 17 C -3.246456 4.995413 -1.274552 0
M  V30 18 C -3.583133 3.872998 -0.546838 0
M  V30 19 C -2.772897 2.774501 -0.353247 0
M  V30 20 C 0.312659 1.368326 -1.805520 0
M  V30 21 C 1.194090 0.305321 -1.692388 0
M  V30 22 N 2.638459 -2.445033 1.983789 0
M  V30 23 C 2.185596 -3.536220 2.626776 0
M  V30 24 C 2.573600 -3.958487 3.883706 0
M  V30 25 H 0.536977 -6.681810 3.869195 0
M  V30 26 H -0.034831 -5.786393 1.652174 0
M  V30 27 H 2.707854 -1.802746 -1.095636 0
M  V30 28 H 0.231677 -0.771533 1.417050 0
M  V30 29 H -1.345255 1.174007 1.151219 0
M  V30 30 H -0.161007 3.895968 -2.116223 0
M  V30 31 H -1.631140 5.854178 -2.448624 0
M  V30 32 H -3.918542 5.833493 -1.397769 0
M  V30 33 H -4.578542 3.907756 -0.111397 0
M  V30 34 H -3.098811 1.920316 0.232246 0
M  V30 35 H 0.334291 1.968584 -2.708667 0
M  V30 36 H 1.905672 0.042445 -2.461873 0
M  V30 37 H 3.318972 -1.679219 2.180813 0
M  V30 38 H 3.298953 -3.429809 4.477309 0
M  V30 END ATOM
M  V30 BEGIN BOND
M  V30 1 3 1 2
M  V30 2 1 2 3
M  V30 3 2 3 4
M  V30 4 1 4 5
M  V30 5 2 5 6
M  V30 6 1 6 7
M  V30 7 2 7 8
M  V30 8 1 8 9
M  V30 9 1 9 10
M  V30 10 2 10 11
M  V30 11 1 11 12
M  V30 12 2 12 13
M  V30 13 1 13 14
M  V30 14 2 14 15
M  V30 15 1 15 16
M  V30 16 2 16 17
M  V30 17 1 17 18
M  V30 18 2 18 19
M  V30 19 1 13 20
M  V30 20 2 20 21
M  V30 21 1 8 22
M  V30 22 1 22 23
M  V30 23 2 23 24
M  V30 24 1 24 3
M  V30 25 1 23 6
M  V30 26 1 21 10
M  V30 27 1 19 14
M  V30 28 1 4 25
M  V30 29 1 5 26
M  V30 30 1 9 27
M  V30 31 1 11 28
M  V30 32 1 12 29
M  V30 33 1 15 30
M  V30 34 1 16 31
M  V30 35 1 17 32
M  V30 36 1 18 33
M  V30 37 1 19 34
M  V30 38 1 20 35
M  V30 39 1 21 36
M  V30 40 1 22 37
M  V30 41 1 24 38
M  V30 END BOND
M  V30 END CTAB
M  END
>  <Dataset>  (959) 
ChEMBL_Kinases

>  <Ligand_Instance>  (959) 
nan

>  <PDB_ID>  (959) 
nan

>  <Standardized_SMILES>  (959) 
N#Cc1ccc2nc(Nc3ccc(-c4ccccc4)cc3)[nH]c2c1

>  <Name>  (959) 
nan

>  <Pocket>  (959) 
nan

>  <ATP_Site>  (959) 
nan

>  <Peripheral>  (959) 
nan

>  <Num_H_Atoms_ProtBoundConf>  (959) 
nan

>  <Num_Resolved_Atoms>  (959) 
nan

>  <Num_Not_Resolved_Atoms>  (959) 
nan

$$$$
CHEMBL2071610
     RDKit          3D

  0  0  0  0  0  0  0  0  0  0999 V3000
M  V30 BEGIN CTAB
M  V30 COUNTS 37 40 0 0 0
M  V30 BEGIN ATOM
M  V30 1 N 1.792939 -8.156080 4.001528 0
M  V30 2 C 2.164117 -7.158298 3.544625 0
M  V30 3 C 2.641693 -5.915201 2.993258 0
M  V30 4 C 3.978695 -5.586518 2.907983 0
M  V30 5 C 4.366257 -4.366555 2.362486 0
M  V30 6 C 3.353130 -3.538503 1.928336 0
M  V30 7 N 3.516273 -2.330910 1.377074 0
M  V30 8 C 2.325094 -1.790397 1.067284 0
M  V30 9 N 2.134196 -0.534483 0.453032 0
M  V30 10 C 0.996460 0.222341 0.169016 0
M  V30 11 C 1.052592 1.224418 -0.790342 0
M  V30 12 C -0.000139 2.032570 -1.133517 0
M  V30 13 C -1.207065 1.855371 -0.494651 0
M  V30 14 C -2.300893 2.735172 -0.890199 0
M  V30 15 C -2.249050 4.111406 -1.075974 0
M  V30 16 C -3.393845 4.780747 -1.453375 0
M  V30 17 C -4.608076 4.148199 -1.659980 0
M  V30 18 N -4.655424 2.814666 -1.479180 0
M  V30 19 C -3.545954 2.139224 -1.109747 0
M  V30 20 F -3.787771 0.795577 -0.976159 0
M  V30 21 C -1.349658 0.884188 0.470713 0
M  V30 22 C -0.244019 0.114557 0.757493 0
M  V30 23 N 1.448205 -2.722455 1.454617 0
M  V30 24 C 2.005200 -3.818107 1.990309 0
M  V30 25 C 1.655533 -5.033020 2.535372 0
M  V30 26 H 4.720402 -6.289026 3.269923 0
M  V30 27 H 5.407894 -4.118102 2.299905 0
M  V30 28 H 3.043346 -0.064957 0.145139 0
M  V30 29 H 1.984966 1.411257 -1.330236 0
M  V30 30 H 0.109104 2.804146 -1.899196 0
M  V30 31 H -1.290446 4.549989 -0.903838 0
M  V30 32 H -3.304061 5.851741 -1.585320 0
M  V30 33 H -5.432287 4.792897 -1.955783 0
M  V30 34 H -2.303235 0.757341 0.963557 0
M  V30 35 H -0.420383 -0.605251 1.521735 0
M  V30 36 H 0.412036 -2.724649 1.392853 0
M  V30 37 H 0.581823 -5.229717 2.574228 0
M  V30 END ATOM
M  V30 BEGIN BOND
M  V30 1 3 1 2
M  V30 2 1 2 3
M  V30 3 2 3 4
M  V30 4 1 4 5
M  V30 5 2 5 6
M  V30 6 1 6 7
M  V30 7 2 7 8
M  V30 8 1 8 9
M  V30 9 1 9 10
M  V30 10 2 10 11
M  V30 11 1 11 12
M  V30 12 2 12 13
M  V30 13 1 13 14
M  V30 14 2 14 15
M  V30 15 1 15 16
M  V30 16 2 16 17
M  V30 17 1 17 18
M  V30 18 2 18 19
M  V30 19 1 19 20
M  V30 20 1 13 21
M  V30 21 2 21 22
M  V30 22 1 8 23
M  V30 23 1 23 24
M  V30 24 2 24 25
M  V30 25 1 25 3
M  V30 26 1 24 6
M  V30 27 1 22 10
M  V30 28 1 19 14
M  V30 29 1 4 26
M  V30 30 1 5 27
M  V30 31 1 9 28
M  V30 32 1 11 29
M  V30 33 1 12 30
M  V30 34 1 15 31
M  V30 35 1 16 32
M  V30 36 1 17 33
M  V30 37 1 21 34
M  V30 38 1 22 35
M  V30 39 1 23 36
M  V30 40 1 25 37
M  V30 END BOND
M  V30 END CTAB
M  END
>  <Dataset>  (960) 
ChEMBL_Kinases

>  <Ligand_Instance>  (960) 
nan

>  <PDB_ID>  (960) 
nan

>  <Standardized_SMILES>  (960) 
N#Cc1ccc2nc(Nc3ccc(-c4cccnc4F)cc3)[nH]c2c1

>  <Name>  (960) 
nan

>  <Pocket>  (960) 
nan

>  <ATP_Site>  (960) 
nan

>  <Peripheral>  (960) 
nan

>  <Num_H_Atoms_ProtBoundConf>  (960) 
nan

>  <Num_Resolved_Atoms>  (960) 
nan

>  <Num_Not_Resolved_Atoms>  (960) 
nan

$$$$
CHEMBL2071611
     RDKit          3D

  0  0  0  0  0  0  0  0  0  0999 V3000
M  V30 BEGIN CTAB
M  V30 COUNTS 38 41 0 0 0
M  V30 BEGIN ATOM
M  V30 1 C 0.406553 -6.714308 4.487143 0
M  V30 2 N 1.117915 -5.665132 3.768183 0
M  V30 3 C 0.627287 -4.559524 3.161460 0
M  V30 4 C 1.728521 -3.901104 2.631409 0
M  V30 5 C 1.656776 -2.649525 1.884247 0
M  V30 6 C 0.571956 -2.334146 1.100130 0
M  V30 7 C 0.524363 -1.146247 0.401225 0
M  V30 8 C 1.550879 -0.224231 0.452840 0
M  V30 9 N 1.594304 1.033921 -0.191921 0
M  V30 10 C 0.553577 1.854297 -0.676240 0
M  V30 11 N 0.754644 2.976874 -1.402953 0
M  V30 12 C -0.405763 3.553206 -1.699888 0
M  V30 13 C -0.603927 4.707907 -2.423801 0
M  V30 14 C -1.930748 5.115332 -2.604164 0
M  V30 15 C -2.947012 4.357555 -2.060629 0
M  V30 16 C -4.327246 4.766805 -2.240939 0
M  V30 17 N -5.425166 5.103484 -2.388575 0
M  V30 18 C -2.734361 3.194586 -1.332445 0
M  V30 19 C -1.426911 2.803698 -1.161205 0
M  V30 20 N -0.782237 1.809594 -0.566736 0
M  V30 21 C 2.603310 -0.605123 1.255765 0
M  V30 22 C 2.713826 -1.768198 1.975577 0
M  V30 23 C 2.873536 -4.646020 2.941171 0
M  V30 24 N 2.452746 -5.735602 3.648533 0
M  V30 25 H 0.734514 -6.762458 5.545212 0
M  V30 26 H -0.691403 -6.587090 4.395900 0
M  V30 27 H 0.667760 -7.671520 3.975202 0
M  V30 28 H -0.423298 -4.291677 3.127620 0
M  V30 29 H -0.269560 -3.024520 1.021865 0
M  V30 30 H -0.337480 -0.964316 -0.203761 0
M  V30 31 H 2.583992 1.406796 -0.330314 0
M  V30 32 H 0.169201 5.320926 -2.860679 0
M  V30 33 H -2.193664 6.010617 -3.160053 0
M  V30 34 H -3.479517 2.577892 -0.894772 0
M  V30 35 H -1.336499 1.092862 -0.065218 0
M  V30 36 H 3.471552 0.058374 1.364264 0
M  V30 37 H 3.573797 -1.997543 2.585382 0
M  V30 38 H 3.858500 -4.317573 2.623345 0
M  V30 END ATOM
M  V30 BEGIN BOND
M  V30 1 1 1 2
M  V30 2 1 2 3
M  V30 3 2 3 4
M  V30 4 1 4 5
M  V30 5 2 5 6
M  V30 6 1 6 7
M  V30 7 2 7 8
M  V30 8 1 8 9
M  V30 9 1 9 10
M  V30 10 2 10 11
M  V30 11 1 11 12
M  V30 12 2 12 13
M  V30 13 1 13 14
M  V30 14 2 14 15
M  V30 15 1 15 16
M  V30 16 3 16 17
M  V30 17 1 15 18
M  V30 18 2 18 19
M  V30 19 1 19 20
M  V30 20 1 8 21
M  V30 21 2 21 22
M  V30 22 1 4 23
M  V30 23 2 23 24
M  V30 24 1 24 2
M  V30 25 1 22 5
M  V30 26 1 20 10
M  V30 27 1 19 12
M  V30 28 1 1 25
M  V30 29 1 1 26
M  V30 30 1 1 27
M  V30 31 1 3 28
M  V30 32 1 6 29
M  V30 33 1 7 30
M  V30 34 1 9 31
M  V30 35 1 13 32
M  V30 36 1 14 33
M  V30 37 1 18 34
M  V30 38 1 20 35
M  V30 39 1 21 36
M  V30 40 1 22 37
M  V30 41 1 23 38
M  V30 END BOND
M  V30 END CTAB
M  END
>  <Dataset>  (961) 
ChEMBL_Kinases

>  <Ligand_Instance>  (961) 
nan

>  <PDB_ID>  (961) 
nan

>  <Standardized_SMILES>  (961) 
Cn1cc(-c2ccc(Nc3nc4ccc(C#N)cc4[nH]3)cc2)cn1

>  <Name>  (961) 
nan

>  <Pocket>  (961) 
nan

>  <ATP_Site>  (961) 
nan

>  <Peripheral>  (961) 
nan

>  <Num_H_Atoms_ProtBoundConf>  (961) 
nan

>  <Num_Resolved_Atoms>  (961) 
nan

>  <Num_Not_Resolved_Atoms>  (961) 
nan

$$$$
CHEMBL2071612
     RDKit          3D

  0  0  0  0  0  0  0  0  0  0999 V3000
M  V30 BEGIN CTAB
M  V30 COUNTS 40 42 0 0 0
M  V30 BEGIN ATOM
M  V30 1 C -2.981860 -3.629982 3.174099 0
M  V30 2 C -2.097384 -3.798225 1.975660 0
M  V30 3 C -0.855770 -4.527598 2.436723 0
M  V30 4 C -2.770741 -4.698387 0.963351 0
M  V30 5 C -1.707660 -2.479637 1.374537 0
M  V30 6 C -0.551460 -1.914989 1.865178 0
M  V30 7 C -0.177924 -0.706343 1.324533 0
M  V30 8 C -0.838549 -0.002478 0.343745 0
M  V30 9 N -0.463102 1.221012 -0.254600 0
M  V30 10 C 0.780663 1.887425 -0.355544 0
M  V30 11 N 0.960231 3.120794 -0.841978 0
M  V30 12 C 2.261664 3.428247 -0.812507 0
M  V30 13 C 2.863506 4.598428 -1.222002 0
M  V30 14 C 4.231824 4.712630 -1.104694 0
M  V30 15 C 4.993977 3.669501 -0.583577 0
M  V30 16 C 6.414303 3.718896 -0.433049 0
M  V30 17 N 7.564270 3.742358 -0.318479 0
M  V30 18 C 4.333500 2.527807 -0.192951 0
M  V30 19 C 2.968951 2.373057 -0.293225 0
M  V30 20 N 2.012766 1.466670 -0.035156 0
M  V30 21 C -1.989892 -0.634850 -0.096168 0
M  V30 22 C -2.430109 -1.841365 0.392886 0
M  V30 23 H -3.606779 -4.552020 3.265122 0
M  V30 24 H -2.371275 -3.590875 4.088333 0
M  V30 25 H -3.643584 -2.735246 3.062058 0
M  V30 26 H -1.107320 -5.607930 2.471533 0
M  V30 27 H -0.027681 -4.437290 1.677999 0
M  V30 28 H -0.529606 -4.239474 3.456064 0
M  V30 29 H -2.623798 -4.258066 -0.063911 0
M  V30 30 H -2.336854 -5.726573 0.949802 0
M  V30 31 H -3.871827 -4.747374 1.117014 0
M  V30 32 H 0.034250 -2.393081 2.635461 0
M  V30 33 H 0.720315 -0.282816 1.740628 0
M  V30 34 H -1.274381 1.737795 -0.712920 0
M  V30 35 H 2.301813 5.447825 -1.638553 0
M  V30 36 H 4.777912 5.595984 -1.402148 0
M  V30 37 H 4.874562 1.669550 0.226308 0
M  V30 38 H 2.331700 0.561563 0.364991 0
M  V30 39 H -2.630137 -0.199126 -0.876468 0
M  V30 40 H -3.335035 -2.324260 0.037733 0
M  V30 END ATOM
M  V30 BEGIN BOND
M  V30 1 1 1 2
M  V30 2 1 2 3
M  V30 3 1 2 4
M  V30 4 1 2 5
M  V30 5 2 5 6
M  V30 6 1 6 7
M  V30 7 2 7 8
M  V30 8 1 8 9
M  V30 9 1 9 10
M  V30 10 2 10 11
M  V30 11 1 11 12
M  V30 12 2 12 13
M  V30 13 1 13 14
M  V30 14 2 14 15
M  V30 15 1 15 16
M  V30 16 3 16 17
M  V30 17 1 15 18
M  V30 18 2 18 19
M  V30 19 1 19 20
M  V30 20 1 8 21
M  V30 21 2 21 22
M  V30 22 1 22 5
M  V30 23 1 20 10
M  V30 24 1 19 12
M  V30 25 1 1 23
M  V30 26 1 1 24
M  V30 27 1 1 25
M  V30 28 1 3 26
M  V30 29 1 3 27
M  V30 30 1 3 28
M  V30 31 1 4 29
M  V30 32 1 4 30
M  V30 33 1 4 31
M  V30 34 1 6 32
M  V30 35 1 7 33
M  V30 36 1 9 34
M  V30 37 1 13 35
M  V30 38 1 14 36
M  V30 39 1 18 37
M  V30 40 1 20 38
M  V30 41 1 21 39
M  V30 42 1 22 40
M  V30 END BOND
M  V30 END CTAB
M  END
>  <Dataset>  (962) 
ChEMBL_Kinases

>  <Ligand_Instance>  (962) 
nan

>  <PDB_ID>  (962) 
nan

>  <Standardized_SMILES>  (962) 
CC(C)(C)c1ccc(Nc2nc3ccc(C#N)cc3[nH]2)cc1

>  <Name>  (962) 
nan

>  <Pocket>  (962) 
nan

>  <ATP_Site>  (962) 
nan

>  <Peripheral>  (962) 
nan

>  <Num_H_Atoms_ProtBoundConf>  (962) 
nan

>  <Num_Resolved_Atoms>  (962) 
nan

>  <Num_Not_Resolved_Atoms>  (962) 
nan

$$$$
CHEMBL2071614
     RDKit          3D

  0  0  0  0  0  0  0  0  0  0999 V3000
M  V30 BEGIN CTAB
M  V30 COUNTS 38 40 0 0 0
M  V30 BEGIN ATOM
M  V30 1 C -0.110199 -5.497492 1.926476 0
M  V30 2 C 1.208291 -4.744165 2.129330 0
M  V30 3 C 1.355968 -4.538601 3.627596 0
M  V30 4 O 2.203367 -5.575290 1.635416 0
M  V30 5 C 1.175720 -3.461743 1.386661 0
M  V30 6 C 1.627822 -3.386795 0.096806 0
M  V30 7 C 1.596176 -2.211972 -0.591324 0
M  V30 8 C 1.113745 -1.019115 -0.053077 0
M  V30 9 N 1.124972 0.164186 -0.818331 0
M  V30 10 C 0.419708 1.382170 -0.692044 0
M  V30 11 N 0.659559 2.453110 -1.470364 0
M  V30 12 C -0.162947 3.453590 -1.149720 0
M  V30 13 C -0.227620 4.708250 -1.716081 0
M  V30 14 C -1.178551 5.567016 -1.196133 0
M  V30 15 C -2.020935 5.167517 -0.151811 0
M  V30 16 C -3.015072 6.057539 0.395240 0
M  V30 17 N -3.835545 6.767800 0.831387 0
M  V30 18 C -1.929657 3.899164 0.394725 0
M  V30 19 C -0.981754 3.040602 -0.122323 0
M  V30 20 N -0.579732 1.779754 0.108177 0
M  V30 21 C 0.676971 -1.159781 1.240229 0
M  V30 22 C 0.681928 -2.313945 1.986120 0
M  V30 23 H -0.152317 -6.014130 0.964868 0
M  V30 24 H -0.278365 -6.231945 2.745256 0
M  V30 25 H -0.949853 -4.751274 1.932057 0
M  V30 26 H 0.400575 -4.214575 4.090290 0
M  V30 27 H 2.139839 -3.803310 3.851480 0
M  V30 28 H 1.601928 -5.515425 4.092433 0
M  V30 29 H 3.060855 -5.134230 1.458743 0
M  V30 30 H 2.016724 -4.287960 -0.378474 0
M  V30 31 H 1.972531 -2.226579 -1.609637 0
M  V30 32 H 1.801723 0.104955 -1.636515 0
M  V30 33 H 0.399677 5.056083 -2.517907 0
M  V30 34 H -1.353122 6.577988 -1.530162 0
M  V30 35 H -2.556444 3.538236 1.202513 0
M  V30 36 H -1.055113 1.248616 0.837521 0
M  V30 37 H 0.297444 -0.324138 1.778605 0
M  V30 38 H 0.326422 -2.375246 3.004155 0
M  V30 END ATOM
M  V30 BEGIN BOND
M  V30 1 1 1 2
M  V30 2 1 2 3
M  V30 3 1 2 4
M  V30 4 1 2 5
M  V30 5 2 5 6
M  V30 6 1 6 7
M  V30 7 2 7 8
M  V30 8 1 8 9
M  V30 9 1 9 10
M  V30 10 2 10 11
M  V30 11 1 11 12
M  V30 12 2 12 13
M  V30 13 1 13 14
M  V30 14 2 14 15
M  V30 15 1 15 16
M  V30 16 3 16 17
M  V30 17 1 15 18
M  V30 18 2 18 19
M  V30 19 1 19 20
M  V30 20 1 8 21
M  V30 21 2 21 22
M  V30 22 1 22 5
M  V30 23 1 20 10
M  V30 24 1 19 12
M  V30 25 1 1 23
M  V30 26 1 1 24
M  V30 27 1 1 25
M  V30 28 1 3 26
M  V30 29 1 3 27
M  V30 30 1 3 28
M  V30 31 1 4 29
M  V30 32 1 6 30
M  V30 33 1 7 31
M  V30 34 1 9 32
M  V30 35 1 13 33
M  V30 36 1 14 34
M  V30 37 1 18 35
M  V30 38 1 20 36
M  V30 39 1 21 37
M  V30 40 1 22 38
M  V30 END BOND
M  V30 END CTAB
M  END
>  <Dataset>  (963) 
ChEMBL_Kinases

>  <Ligand_Instance>  (963) 
nan

>  <PDB_ID>  (963) 
nan

>  <Standardized_SMILES>  (963) 
CC(C)(O)c1ccc(Nc2nc3ccc(C#N)cc3[nH]2)cc1

>  <Name>  (963) 
nan

>  <Pocket>  (963) 
nan

>  <ATP_Site>  (963) 
nan

>  <Peripheral>  (963) 
nan

>  <Num_H_Atoms_ProtBoundConf>  (963) 
nan

>  <Num_Resolved_Atoms>  (963) 
nan

>  <Num_Not_Resolved_Atoms>  (963) 
nan

$$$$
CHEMBL4639028
     RDKit          3D

  0  0  0  0  0  0  0  0  0  0999 V3000
M  V30 BEGIN CTAB
M  V30 COUNTS 43 46 0 0 0
M  V30 BEGIN ATOM
M  V30 1 C 0.214242 -5.834561 2.423880 0
M  V30 2 C 0.344086 -4.837835 3.367481 0
M  V30 3 C 0.622447 -3.525903 3.022866 0
M  V30 4 C 0.768652 -3.241352 1.679398 0
M  V30 5 C 1.061033 -1.935899 1.102275 0
M  V30 6 N 2.154526 -1.612961 0.394372 0
M  V30 7 N 2.369131 -0.411132 -0.107376 0
M  V30 8 C 1.480629 0.582082 0.068042 0
M  V30 9 N 1.714376 1.875607 -0.471722 0
M  V30 10 C 0.862453 3.043923 -0.383458 0
M  V30 11 C 0.398246 3.366395 -1.798239 0
M  V30 12 N 1.491718 3.285580 -2.745011 0
M  V30 13 C 2.776310 3.303687 -2.098574 0
M  V30 14 C 2.953864 2.109015 -1.216054 0
M  V30 15 C 0.336721 0.308697 0.788141 0
M  V30 16 C 0.093117 -0.960660 1.327225 0
M  V30 17 C -1.122570 -1.235588 2.090308 0
M  V30 18 C -2.143659 -2.120919 1.814665 0
M  V30 19 C -3.192102 -2.194293 2.701603 0
M  V30 20 N -3.281182 -1.456286 3.819334 0
M  V30 21 C -2.270825 -0.578952 4.094050 0
M  V30 22 C -1.182629 -0.455102 3.240021 0
M  V30 23 C 0.642343 -4.226757 0.715364 0
M  V30 24 C 0.363700 -5.533842 1.078606 0
M  V30 25 H -0.002241 -6.819717 2.796328 0
M  V30 26 H 0.242442 -4.981814 4.452819 0
M  V30 27 H 0.737005 -2.699455 3.702166 0
M  V30 28 H 1.442611 3.952507 -0.052222 0
M  V30 29 H -0.034066 2.903861 0.240707 0
M  V30 30 H -0.399872 2.680552 -2.150893 0
M  V30 31 H -0.040585 4.384963 -1.850299 0
M  V30 32 H 1.440445 4.093573 -3.413339 0
M  V30 33 H 3.570390 3.381086 -2.857290 0
M  V30 34 H 2.837305 4.253963 -1.510381 0
M  V30 35 H 3.804566 2.254205 -0.521716 0
M  V30 36 H 3.118975 1.206985 -1.820385 0
M  V30 37 H -0.425053 1.048374 0.973819 0
M  V30 38 H -1.994896 -2.672890 0.901809 0
M  V30 39 H -3.973702 -2.902933 2.447562 0
M  V30 40 H -2.352333 0.018154 5.007637 0
M  V30 41 H -0.434317 0.281480 3.565046 0
M  V30 42 H 0.739448 -4.096332 -0.342636 0
M  V30 43 H 0.244217 -6.378888 0.412863 0
M  V30 END ATOM
M  V30 BEGIN BOND
M  V30 1 2 1 2
M  V30 2 1 2 3
M  V30 3 2 3 4
M  V30 4 1 4 5
M  V30 5 2 5 6
M  V30 6 1 6 7
M  V30 7 2 7 8
M  V30 8 1 8 9
M  V30 9 1 9 10
M  V30 10 1 10 11
M  V30 11 1 11 12
M  V30 12 1 12 13
M  V30 13 1 13 14
M  V30 14 1 8 15
M  V30 15 2 15 16
M  V30 16 1 16 17
M  V30 17 2 17 18
M  V30 18 1 18 19
M  V30 19 2 19 20
M  V30 20 1 20 21
M  V30 21 2 21 22
M  V30 22 1 4 23
M  V30 23 2 23 24
M  V30 24 1 24 1
M  V30 25 1 16 5
M  V30 26 1 22 17
M  V30 27 1 14 9
M  V30 28 1 1 25
M  V30 29 1 2 26
M  V30 30 1 3 27
M  V30 31 1 10 28
M  V30 32 1 10 29
M  V30 33 1 11 30
M  V30 34 1 11 31
M  V30 35 1 12 32
M  V30 36 1 13 33
M  V30 37 1 13 34
M  V30 38 1 14 35
M  V30 39 1 14 36
M  V30 40 1 15 37
M  V30 41 1 18 38
M  V30 42 1 19 39
M  V30 43 1 21 40
M  V30 44 1 22 41
M  V30 45 1 23 42
M  V30 46 1 24 43
M  V30 END BOND
M  V30 END CTAB
M  END
>  <Dataset>  (964) 
ChEMBL_Kinases

>  <Ligand_Instance>  (964) 
nan

>  <PDB_ID>  (964) 
nan

>  <Standardized_SMILES>  (964) 
c1ccc(-c2nnc(N3CCNCC3)cc2-c2ccncc2)cc1

>  <Name>  (964) 
nan

>  <Pocket>  (964) 
nan

>  <ATP_Site>  (964) 
nan

>  <Peripheral>  (964) 
nan

>  <Num_H_Atoms_ProtBoundConf>  (964) 
nan

>  <Num_Resolved_Atoms>  (964) 
nan

>  <Num_Not_Resolved_Atoms>  (964) 
nan

$$$$
CHEMBL4640712
     RDKit          3D

  0  0  0  0  0  0  0  0  0  0999 V3000
M  V30 BEGIN CTAB
M  V30 COUNTS 63 65 0 0 0
M  V30 BEGIN ATOM
M  V30 1 C 4.943017 -1.766784 3.000895 0
M  V30 2 C 4.039079 -0.563609 2.994613 0
M  V30 3 C 3.658709 -0.257031 4.446637 0
M  V30 4 C 4.677733 0.628498 2.438956 0
M  V30 5 N 5.167218 1.557683 1.993897 0
M  V30 6 C 2.807896 -0.902761 2.233342 0
M  V30 7 C 2.804871 -0.653129 0.879693 0
M  V30 8 C 1.707734 -0.927401 0.057637 0
M  V30 9 N 1.645652 -0.726957 -1.347228 0
M  V30 10 C 0.527745 -0.333694 -2.121780 0
M  V30 11 N -0.609254 0.043384 -1.517734 0
M  V30 12 C -1.707594 0.422691 -2.178712 0
M  V30 13 N -2.886237 0.841082 -1.506737 0
M  V30 14 C -2.829917 1.042402 -0.071229 0
M  V30 15 C -4.111805 1.632584 0.451916 0
M  V30 16 C -5.268096 0.766260 0.041686 0
M  V30 17 C -5.212541 0.342385 -1.400656 0 CFG=2
M  V30 18 N -4.852704 -1.070830 -1.514152 0
M  V30 19 C -4.144972 1.077343 -2.184134 0
M  V30 20 N -1.626966 0.411073 -3.519358 0
M  V30 21 C -0.513200 0.042017 -4.164152 0
M  V30 22 C 0.624280 -0.349994 -3.492146 0
M  V30 23 C 1.796052 -0.736342 -4.253268 0
M  V30 24 N 1.736595 -0.702340 -5.661642 0
M  V30 25 O 2.923631 -1.118704 -3.929785 0
M  V30 26 C 0.588011 -1.475942 0.666698 0
M  V30 27 C 0.535521 -1.747566 2.014689 0
M  V30 28 C -0.494535 -2.347362 2.868547 0
M  V30 29 C -0.123622 -3.830959 3.007090 0
M  V30 30 C -0.600941 -1.742707 4.227143 0
M  V30 31 C -1.812867 -2.335723 2.229001 0
M  V30 32 N -2.860824 -2.346224 1.724830 0
M  V30 33 C 1.658312 -1.453930 2.789838 0
M  V30 34 H 4.321522 -2.696907 2.922202 0
M  V30 35 H 5.611668 -1.714281 2.104471 0
M  V30 36 H 5.557859 -1.808577 3.925340 0
M  V30 37 H 3.693141 -1.179896 5.060316 0
M  V30 38 H 2.651343 0.190944 4.459404 0
M  V30 39 H 4.421562 0.443489 4.869467 0
M  V30 40 H 3.641291 -0.234152 0.369624 0
M  V30 41 H 2.600753 -0.930238 -1.697164 0
M  V30 42 H -2.016743 1.758666 0.190408 0
M  V30 43 H -2.649831 0.098498 0.460970 0
M  V30 44 H -4.224099 2.683056 0.171503 0
M  V30 45 H -4.042603 1.557908 1.572806 0
M  V30 46 H -6.242795 1.233867 0.316703 0
M  V30 47 H -5.184842 -0.166492 0.669441 0
M  V30 48 H -6.211867 0.418317 -1.877326 0
M  V30 49 H -5.599524 -1.703204 -1.163955 0
M  V30 50 H -3.923116 -1.206283 -1.113614 0
M  V30 51 H -4.375257 2.160701 -2.273141 0
M  V30 52 H -4.120624 0.578392 -3.186064 0
M  V30 53 H -0.600192 0.083372 -5.248816 0
M  V30 54 H 1.078183 -0.284366 -6.348111 0
M  V30 55 H 2.345696 -1.095312 -6.394204 0
M  V30 56 H -0.349224 -1.750188 0.181230 0
M  V30 57 H 0.364687 -4.157643 2.068241 0
M  V30 58 H 0.643475 -3.868231 3.813385 0
M  V30 59 H -1.031961 -4.393533 3.267004 0
M  V30 60 H -1.668734 -1.473874 4.456856 0
M  V30 61 H -0.311781 -2.482599 5.005231 0
M  V30 62 H -0.014484 -0.812385 4.368941 0
M  V30 63 H 1.795052 -1.599028 3.864751 0
M  V30 END ATOM
M  V30 BEGIN BOND
M  V30 1 1 1 2
M  V30 2 1 2 3
M  V30 3 1 2 4
M  V30 4 3 4 5
M  V30 5 1 2 6
M  V30 6 2 6 7
M  V30 7 1 7 8
M  V30 8 1 8 9
M  V30 9 1 9 10
M  V30 10 2 10 11
M  V30 11 1 11 12
M  V30 12 1 12 13
M  V30 13 1 13 14
M  V30 14 1 14 15
M  V30 15 1 15 16
M  V30 16 1 16 17
M  V30 17 1 17 18
M  V30 18 1 17 19
M  V30 19 2 12 20
M  V30 20 1 20 21
M  V30 21 2 21 22
M  V30 22 1 22 23
M  V30 23 1 23 24
M  V30 24 2 23 25
M  V30 25 2 8 26
M  V30 26 1 26 27
M  V30 27 1 27 28
M  V30 28 1 28 29
M  V30 29 1 28 30
M  V30 30 1 28 31
M  V30 31 3 31 32
M  V30 32 2 27 33
M  V30 33 1 33 6
M  V30 34 1 22 10
M  V30 35 1 19 13
M  V30 36 1 1 34
M  V30 37 1 1 35
M  V30 38 1 1 36
M  V30 39 1 3 37
M  V30 40 1 3 38
M  V30 41 1 3 39
M  V30 42 1 7 40
M  V30 43 1 9 41
M  V30 44 1 14 42
M  V30 45 1 14 43
M  V30 46 1 15 44
M  V30 47 1 15 45
M  V30 48 1 16 46
M  V30 49 1 16 47
M  V30 50 1 17 48 CFG=3
M  V30 51 1 18 49
M  V30 52 1 18 50
M  V30 53 1 19 51
M  V30 54 1 19 52
M  V30 55 1 21 53
M  V30 56 1 24 54
M  V30 57 1 24 55
M  V30 58 1 26 56
M  V30 59 1 29 57
M  V30 60 1 29 58
M  V30 61 1 29 59
M  V30 62 1 30 60
M  V30 63 1 30 61
M  V30 64 1 30 62
M  V30 65 1 33 63
M  V30 END BOND
M  V30 END CTAB
M  END
>  <Dataset>  (965) 
ChEMBL_Kinases

>  <Ligand_Instance>  (965) 
nan

>  <PDB_ID>  (965) 
nan

>  <Standardized_SMILES>  (965) 
CC(C)(C#N)c1cc(Nc2nc(N3CCC[C@H](N)C3)ncc2C(N)=O)cc(C(C)(C)C#N)c1

>  <Name>  (965) 
nan

>  <Pocket>  (965) 
nan

>  <ATP_Site>  (965) 
nan

>  <Peripheral>  (965) 
nan

>  <Num_H_Atoms_ProtBoundConf>  (965) 
nan

>  <Num_Resolved_Atoms>  (965) 
nan

>  <Num_Not_Resolved_Atoms>  (965) 
nan

$$$$
CHEMBL228654
     RDKit          3D

  0  0  0  0  0  0  0  0  0  0999 V3000
M  V30 BEGIN CTAB
M  V30 COUNTS 35 37 0 0 0
M  V30 BEGIN ATOM
M  V30 1 C -1.266443 0.484706 1.697275 0
M  V30 2 C -1.379851 -0.901229 1.181265 0
M  V30 3 C -0.456696 -1.467989 0.440319 0
M  V30 4 C -0.495713 -2.821310 -0.110810 0
M  V30 5 O -1.350830 -3.723133 -0.047668 0
M  V30 6 N 0.700491 -3.069478 -0.838844 0
M  V30 7 C 1.461598 -1.874740 -0.732152 0
M  V30 8 C 2.699980 -1.563610 -1.249708 0
M  V30 9 C 3.271681 -0.334381 -1.034112 0
M  V30 10 C 2.637065 0.637709 -0.294531 0
M  V30 11 N 3.388094 1.838013 -0.191065 0
M  V30 12 C 2.968025 2.986760 0.503448 0
M  V30 13 N 3.777500 4.186998 0.570042 0
M  V30 14 O 1.899799 3.114692 1.118246 0
M  V30 15 C 1.400900 0.317406 0.219426 0
M  V30 16 C 0.813926 -0.907686 0.013067 0
M  V30 17 C -2.551245 -1.680217 1.568111 0
M  V30 18 C -2.768173 -2.883933 2.145166 0
M  V30 19 C -4.098705 -3.166753 2.239874 0
M  V30 20 C -4.680224 -2.048317 1.680237 0
M  V30 21 N -3.776333 -1.140601 1.269849 0
M  V30 22 H -2.211122 0.662571 2.308871 0
M  V30 23 H -0.480554 0.573855 2.471856 0
M  V30 24 H -1.310107 1.268422 0.941711 0
M  V30 25 H 0.999760 -3.946052 -1.363206 0
M  V30 26 H 3.213475 -2.302757 -1.827287 0
M  V30 27 H 4.262252 -0.195877 -1.495272 0
M  V30 28 H 4.317748 1.968424 -0.623499 0
M  V30 29 H 4.704967 4.634368 0.830125 0
M  V30 30 H 3.512713 5.154794 0.271074 0
M  V30 31 H 0.962322 1.111443 0.781104 0
M  V30 32 H -1.958258 -3.530135 2.504879 0
M  V30 33 H -4.485538 -4.074573 2.665358 0
M  V30 34 H -5.774881 -1.939362 1.591875 0
M  V30 35 H -4.053461 -0.239484 0.824266 0
M  V30 END ATOM
M  V30 BEGIN BOND
M  V30 1 1 1 2
M  V30 2 2 2 3
M  V30 3 1 3 4
M  V30 4 2 4 5
M  V30 5 1 4 6
M  V30 6 1 6 7
M  V30 7 2 7 8
M  V30 8 1 8 9
M  V30 9 2 9 10
M  V30 10 1 10 11
M  V30 11 1 11 12
M  V30 12 1 12 13
M  V30 13 2 12 14
M  V30 14 1 10 15
M  V30 15 2 15 16
M  V30 16 1 2 17
M  V30 17 2 17 18
M  V30 18 1 18 19
M  V30 19 2 19 20
M  V30 20 1 20 21
M  V30 21 1 16 3
M  V30 22 1 21 17
M  V30 23 1 16 7
M  V30 24 1 1 22
M  V30 25 1 1 23
M  V30 26 1 1 24
M  V30 27 1 6 25
M  V30 28 1 8 26
M  V30 29 1 9 27
M  V30 30 1 11 28
M  V30 31 1 13 29
M  V30 32 1 13 30
M  V30 33 1 15 31
M  V30 34 1 18 32
M  V30 35 1 19 33
M  V30 36 1 20 34
M  V30 37 1 21 35
M  V30 END BOND
M  V30 END CTAB
M  END
>  <Dataset>  (966) 
ChEMBL_Kinases

>  <Ligand_Instance>  (966) 
nan

>  <PDB_ID>  (966) 
nan

>  <Standardized_SMILES>  (966) 
C/C(=C1/C(=O)Nc2ccc(NC(N)=O)cc21)c1ccc[nH]1

>  <Name>  (966) 
nan

>  <Pocket>  (966) 
nan

>  <ATP_Site>  (966) 
nan

>  <Peripheral>  (966) 
nan

>  <Num_H_Atoms_ProtBoundConf>  (966) 
nan

>  <Num_Resolved_Atoms>  (966) 
nan

>  <Num_Not_Resolved_Atoms>  (966) 
nan

$$$$
CHEMBL4541823
     RDKit          3D

  0  0  0  0  0  0  0  0  0  0999 V3000
M  V30 BEGIN CTAB
M  V30 COUNTS 73 76 0 0 0
M  V30 BEGIN ATOM
M  V30 1 C 6.322202 -4.339712 -0.657326 0
M  V30 2 C 6.168004 -2.816956 -0.740737 0
M  V30 3 C 4.742907 -2.560740 -1.082854 0 CFG=2
M  V30 4 C 4.459056 -3.207789 -2.401798 0
M  V30 5 O 5.259849 -3.854351 -3.166590 0
M  V30 6 N 3.103725 -3.091916 -2.883889 0
M  V30 7 C 2.518590 -4.068358 -3.801715 0
M  V30 8 C 2.385653 -1.959880 -2.401092 0
M  V30 9 C 1.076601 -1.840238 -2.860915 0
M  V30 10 N 0.352883 -0.776320 -2.427799 0
M  V30 11 C 0.893840 0.133385 -1.576239 0
M  V30 12 N 0.062721 1.223101 -1.170944 0
M  V30 13 C -1.074069 1.089144 -0.285335 0
M  V30 14 C -1.314572 -0.245198 0.071459 0
M  V30 15 C -2.369209 -0.578690 0.889141 0
M  V30 16 F -2.633839 -1.849053 1.256015 0
M  V30 17 C -3.220529 0.386329 1.382307 0
M  V30 18 C -4.388247 0.252421 2.229492 0
M  V30 19 O -5.056376 1.210794 2.709231 0
M  V30 20 N -4.964727 -0.958943 2.649376 0
M  V30 21 C -6.077412 -1.351049 3.455809 0
M  V30 22 C -7.136932 -1.991447 2.541323 0
M  V30 23 C -6.514504 -3.184740 1.901387 0
M  V30 24 O -6.009999 -4.032107 2.862692 0
M  V30 25 C -6.254780 -3.693391 4.165270 0
M  V30 26 C -5.733566 -2.324017 4.552626 0
M  V30 27 C -2.957688 1.674355 1.015794 0
M  V30 28 C -1.931622 2.092756 0.208704 0
M  V30 29 O -1.485767 3.275578 -0.277222 0
M  V30 30 C -2.051057 4.508351 -0.011228 0
M  V30 31 C -2.045468 4.967673 1.403429 0
M  V30 32 O -2.670840 6.236891 1.419930 0
M  V30 33 N 2.176634 0.016366 -1.125996 0
M  V30 34 C 2.944957 -1.041450 -1.538198 0
M  V30 35 N 4.310810 -1.193303 -1.082007 0
M  V30 36 C 5.030486 -0.019670 -0.717751 0
M  V30 37 C 4.269759 1.276261 -0.758086 0
M  V30 38 C 6.179464 0.154463 -1.719833 0
M  V30 39 H 7.218979 -4.631524 -1.199623 0
M  V30 40 H 6.373408 -4.645202 0.419424 0
M  V30 41 H 5.450087 -4.875677 -1.085946 0
M  V30 42 H 6.529911 -2.415922 0.201497 0
M  V30 43 H 6.860046 -2.482825 -1.562096 0
M  V30 44 H 4.110098 -3.125615 -0.331106 0
M  V30 45 H 2.169662 -3.601552 -4.726723 0
M  V30 46 H 1.643455 -4.597827 -3.335372 0
M  V30 47 H 3.294862 -4.845763 -4.008421 0
M  V30 48 H 0.637972 -2.557625 -3.537567 0
M  V30 49 H 0.336985 2.148448 -1.564917 0
M  V30 50 H -0.722642 -1.099131 -0.247625 0
M  V30 51 H -4.542660 -1.861075 2.352991 0
M  V30 52 H -6.526523 -0.412809 3.878810 0
M  V30 53 H -7.967948 -2.305569 3.173401 0
M  V30 54 H -7.473910 -1.236690 1.783010 0
M  V30 55 H -5.727604 -2.921383 1.138151 0
M  V30 56 H -7.304759 -3.744025 1.346920 0
M  V30 57 H -5.724651 -4.444348 4.821235 0
M  V30 58 H -7.323311 -3.784775 4.405707 0
M  V30 59 H -6.319211 -2.025630 5.463860 0
M  V30 60 H -4.687114 -2.329662 4.845670 0
M  V30 61 H -3.553851 2.494368 1.322580 0
M  V30 62 H -1.551210 5.333314 -0.607241 0
M  V30 63 H -3.133084 4.533593 -0.341038 0
M  V30 64 H -2.557702 4.371447 2.142371 0
M  V30 65 H -1.000995 5.109618 1.799451 0
M  V30 66 H -3.024129 6.423006 2.332222 0
M  V30 67 H 5.479206 -0.077511 0.306005 0
M  V30 68 H 3.878529 1.545654 -1.757964 0
M  V30 69 H 3.585963 1.445269 0.084456 0
M  V30 70 H 5.071938 2.065445 -0.595923 0
M  V30 71 H 5.984282 -0.523537 -2.572771 0
M  V30 72 H 6.234350 1.189203 -2.122668 0
M  V30 73 H 7.155364 -0.137867 -1.284060 0
M  V30 END ATOM
M  V30 BEGIN BOND
M  V30 1 1 1 2
M  V30 2 1 2 3
M  V30 3 1 3 4
M  V30 4 2 4 5
M  V30 5 1 4 6
M  V30 6 1 6 7
M  V30 7 1 6 8
M  V30 8 2 8 9
M  V30 9 1 9 10
M  V30 10 2 10 11
M  V30 11 1 11 12
M  V30 12 1 12 13
M  V30 13 2 13 14
M  V30 14 1 14 15
M  V30 15 1 15 16
M  V30 16 2 15 17
M  V30 17 1 17 18
M  V30 18 2 18 19
M  V30 19 1 18 20
M  V30 20 1 20 21
M  V30 21 1 21 22
M  V30 22 1 22 23
M  V30 23 1 23 24
M  V30 24 1 24 25
M  V30 25 1 25 26
M  V30 26 1 17 27
M  V30 27 2 27 28
M  V30 28 1 28 29
M  V30 29 1 29 30
M  V30 30 1 30 31
M  V30 31 1 31 32
M  V30 32 1 11 33
M  V30 33 2 33 34
M  V30 34 1 34 35
M  V30 35 1 35 36
M  V30 36 1 36 37
M  V30 37 1 36 38
M  V30 38 1 35 3
M  V30 39 1 34 8
M  V30 40 1 28 13
M  V30 41 1 26 21
M  V30 42 1 1 39
M  V30 43 1 1 40
M  V30 44 1 1 41
M  V30 45 1 2 42
M  V30 46 1 2 43
M  V30 47 1 3 44 CFG=1
M  V30 48 1 7 45
M  V30 49 1 7 46
M  V30 50 1 7 47
M  V30 51 1 9 48
M  V30 52 1 12 49
M  V30 53 1 14 50
M  V30 54 1 20 51
M  V30 55 1 21 52
M  V30 56 1 22 53
M  V30 57 1 22 54
M  V30 58 1 23 55
M  V30 59 1 23 56
M  V30 60 1 25 57
M  V30 61 1 25 58
M  V30 62 1 26 59
M  V30 63 1 26 60
M  V30 64 1 27 61
M  V30 65 1 30 62
M  V30 66 1 30 63
M  V30 67 1 31 64
M  V30 68 1 31 65
M  V30 69 1 32 66
M  V30 70 1 36 67
M  V30 71 1 37 68
M  V30 72 1 37 69
M  V30 73 1 37 70
M  V30 74 1 38 71
M  V30 75 1 38 72
M  V30 76 1 38 73
M  V30 END BOND
M  V30 END CTAB
M  END
>  <Dataset>  (967) 
ChEMBL_Kinases

>  <Ligand_Instance>  (967) 
nan

>  <PDB_ID>  (967) 
nan

>  <Standardized_SMILES>  (967) 
CC[C@@H]1C(=O)N(C)c2cnc(Nc3cc(F)c(C(=O)NC4CCOCC4)cc3OCCO)nc2N1C(C)C

>  <Name>  (967) 
nan

>  <Pocket>  (967) 
nan

>  <ATP_Site>  (967) 
nan

>  <Peripheral>  (967) 
nan

>  <Num_H_Atoms_ProtBoundConf>  (967) 
nan

>  <Num_Resolved_Atoms>  (967) 
nan

>  <Num_Not_Resolved_Atoms>  (967) 
nan

$$$$
CHEMBL4543342
     RDKit          3D

  0  0  0  0  0  0  0  0  0  0999 V3000
M  V30 BEGIN CTAB
M  V30 COUNTS 61 66 0 0 0
M  V30 BEGIN ATOM
M  V30 1 C 4.015233 -3.579712 0.846395 0
M  V30 2 N 3.943913 -2.444763 1.711618 0
M  V30 3 C 5.015669 -1.507987 1.597047 0
M  V30 4 C 4.800087 -0.396051 0.616642 0
M  V30 5 C 3.462401 0.294396 0.768309 0
M  V30 6 C 2.599262 0.167649 -0.442067 0
M  V30 7 N 1.323908 0.818165 -0.322811 0
M  V30 8 C 0.930017 2.155323 -0.252805 0
M  V30 9 C 1.840872 3.187695 -0.327514 0
M  V30 10 C 1.529521 4.530000 -0.281479 0
M  V30 11 C 0.212297 4.914795 -0.151137 0
M  V30 12 C -0.723208 3.906355 -0.074163 0
M  V30 13 C -2.079127 4.161241 0.058009 0
M  V30 14 C -3.060985 3.193287 0.139813 0
M  V30 15 C -2.653949 1.874647 0.085170 0
M  V30 16 C -3.632907 0.790290 0.165867 0
M  V30 17 N -4.980499 0.853450 0.294217 0
M  V30 18 N -5.491749 -0.378848 0.328816 0
M  V30 19 C -4.473480 -1.241209 0.222712 0
M  V30 20 C -4.453722 -2.621473 0.205280 0
M  V30 21 C -3.215732 -3.260734 0.080753 0
M  V30 22 C -2.080558 -2.482239 -0.018003 0
M  V30 23 N -2.162804 -1.136697 0.004960 0
M  V30 24 N -3.327056 -0.521278 0.122207 0
M  V30 25 N -3.221466 -4.678438 0.065032 0
M  V30 26 C -2.049260 -5.331956 -0.481882 0
M  V30 27 C -4.300146 -5.492635 0.549813 0
M  V30 28 C -5.567615 -4.737615 0.804894 0
M  V30 29 O -5.574856 -3.419468 0.302544 0
M  V30 30 N -1.339551 1.611696 -0.043150 0
M  V30 31 C -0.401502 2.571067 -0.120924 0
M  V30 32 C 2.820402 -0.349565 1.995841 0
M  V30 33 C 2.639114 -1.827165 1.742981 0
M  V30 34 H 5.059213 -3.814421 0.584673 0
M  V30 35 H 3.516300 -4.432275 1.388917 0
M  V30 36 H 3.385591 -3.389692 -0.056597 0
M  V30 37 H 5.901542 -2.093103 1.211390 0
M  V30 38 H 5.368968 -1.126843 2.584202 0
M  V30 39 H 5.585550 0.368284 0.821369 0
M  V30 40 H 4.988826 -0.724539 -0.441645 0
M  V30 41 H 3.569947 1.356731 1.032332 0
M  V30 42 H 3.159917 0.694277 -1.278897 0
M  V30 43 H 2.478197 -0.865797 -0.795765 0
M  V30 44 H 0.497771 0.147131 -0.275272 0
M  V30 45 H 2.905797 3.042345 -0.440509 0
M  V30 46 H 2.242932 5.339082 -0.339452 0
M  V30 47 H -0.202893 5.900557 -0.099533 0
M  V30 48 H -2.414311 5.197470 0.102386 0
M  V30 49 H -4.107471 3.464563 0.242650 0
M  V30 50 H -1.127348 -2.997478 -0.114067 0
M  V30 51 H -2.386864 -6.293393 -0.941107 0
M  V30 52 H -1.304693 -5.614719 0.287250 0
M  V30 53 H -1.534251 -4.696282 -1.240835 0
M  V30 54 H -4.437999 -6.304448 -0.202164 0
M  V30 55 H -3.930505 -6.016386 1.477436 0
M  V30 56 H -6.397110 -5.268373 0.286097 0
M  V30 57 H -5.786240 -4.800944 1.891158 0
M  V30 58 H 3.550405 -0.237221 2.823143 0
M  V30 59 H 1.908045 0.172521 2.290316 0
M  V30 60 H 2.055248 -2.046446 0.835668 0
M  V30 61 H 2.085097 -2.243436 2.609301 0
M  V30 END ATOM
M  V30 BEGIN BOND
M  V30 1 1 1 2
M  V30 2 1 2 3
M  V30 3 1 3 4
M  V30 4 1 4 5
M  V30 5 1 5 6
M  V30 6 1 6 7
M  V30 7 1 7 8
M  V30 8 2 8 9
M  V30 9 1 9 10
M  V30 10 2 10 11
M  V30 11 1 11 12
M  V30 12 2 12 13
M  V30 13 1 13 14
M  V30 14 2 14 15
M  V30 15 1 15 16
M  V30 16 2 16 17
M  V30 17 1 17 18
M  V30 18 2 18 19
M  V30 19 1 19 20
M  V30 20 2 20 21
M  V30 21 1 21 22
M  V30 22 2 22 23
M  V30 23 1 23 24
M  V30 24 1 21 25
M  V30 25 1 25 26
M  V30 26 1 25 27
M  V30 27 1 27 28
M  V30 28 1 28 29
M  V30 29 1 15 30
M  V30 30 2 30 31
M  V30 31 1 5 32
M  V30 32 1 32 33
M  V30 33 1 33 2
M  V30 34 1 31 8
M  V30 35 1 31 12
M  V30 36 1 24 16
M  V30 37 1 24 19
M  V30 38 1 29 20
M  V30 39 1 1 34
M  V30 40 1 1 35
M  V30 41 1 1 36
M  V30 42 1 3 37
M  V30 43 1 3 38
M  V30 44 1 4 39
M  V30 45 1 4 40
M  V30 46 1 5 41
M  V30 47 1 6 42
M  V30 48 1 6 43
M  V30 49 1 7 44
M  V30 50 1 9 45
M  V30 51 1 10 46
M  V30 52 1 11 47
M  V30 53 1 13 48
M  V30 54 1 14 49
M  V30 55 1 22 50
M  V30 56 1 26 51
M  V30 57 1 26 52
M  V30 58 1 26 53
M  V30 59 1 27 54
M  V30 60 1 27 55
M  V30 61 1 28 56
M  V30 62 1 28 57
M  V30 63 1 32 58
M  V30 64 1 32 59
M  V30 65 1 33 60
M  V30 66 1 33 61
M  V30 END BOND
M  V30 END CTAB
M  END
>  <Dataset>  (968) 
ChEMBL_Kinases

>  <Ligand_Instance>  (968) 
nan

>  <PDB_ID>  (968) 
nan

>  <Standardized_SMILES>  (968) 
CN1CCC(CNc2cccc3ccc(-c4nnc5c6c(cnn45)N(C)CCO6)nc23)CC1

>  <Name>  (968) 
nan

>  <Pocket>  (968) 
nan

>  <ATP_Site>  (968) 
nan

>  <Peripheral>  (968) 
nan

>  <Num_H_Atoms_ProtBoundConf>  (968) 
nan

>  <Num_Resolved_Atoms>  (968) 
nan

>  <Num_Not_Resolved_Atoms>  (968) 
nan

$$$$
CHEMBL4543618
     RDKit          3D

  0  0  0  0  0  0  0  0  0  0999 V3000
M  V30 BEGIN CTAB
M  V30 COUNTS 72 76 0 0 0
M  V30 BEGIN ATOM
M  V30 1 C 2.422152 -1.940263 4.499301 0
M  V30 2 C 3.531934 -2.005023 3.463835 0
M  V30 3 C 3.041844 -2.870437 2.317143 0
M  V30 4 O 3.891186 -0.727514 3.041434 0
M  V30 5 C 5.087399 -0.104798 3.174903 0
M  V30 6 C 6.232008 -0.581640 3.771209 0
M  V30 7 N 7.409755 0.077894 3.882549 0
M  V30 8 C 7.415303 1.320070 3.341813 0
M  V30 9 N 6.348882 1.874951 2.737769 0
M  V30 10 C 5.167938 1.188163 2.637159 0
M  V30 11 C 3.991386 1.766577 1.972990 0
M  V30 12 C 4.149970 2.381724 0.749419 0
M  V30 13 C 3.059487 2.932281 0.090022 0
M  V30 14 C 1.803650 2.842876 0.704116 0
M  V30 15 N 0.572897 3.246022 0.369309 0
M  V30 16 C -0.316593 2.910347 1.319007 0
M  V30 17 N -1.723547 3.109185 1.397913 0
M  V30 18 C -2.557491 2.022680 1.035887 0
M  V30 19 C -2.065608 0.777721 0.628813 0
M  V30 20 C -2.720948 -0.399282 0.242423 0
M  V30 21 C -1.889136 -1.534337 -0.129030 0 CFG=1
M  V30 22 C -1.433185 -2.281033 1.102558 0
M  V30 23 N -2.384009 -2.295965 -1.186121 0
M  V30 24 C -3.257825 -3.379044 -0.958473 0
M  V30 25 C -3.702931 -3.930938 -2.308889 0
M  V30 26 N -3.601926 -2.971291 -3.378663 0
M  V30 27 C -4.678064 -2.590313 -4.216925 0
M  V30 28 O -5.655680 -3.254232 -3.810139 0
M  V30 29 C -4.456209 -1.601634 -5.278103 0
M  V30 30 C -5.704251 -1.310723 -6.077623 0
M  V30 31 F -6.174516 -2.474737 -6.687588 0
M  V30 32 F -6.700858 -0.728114 -5.334797 0
M  V30 33 F -5.366411 -0.433856 -7.090826 0
M  V30 34 C -2.298793 -2.399447 -3.559077 0
M  V30 35 C -1.473124 -2.491342 -2.292768 0
M  V30 36 C -4.078012 -0.173330 0.314079 0
M  V30 37 C -4.660481 1.008935 0.700294 0
M  V30 38 N -3.921170 2.069442 1.049003 0
M  V30 39 N 0.350314 2.265620 2.312453 0
M  V30 40 C 1.652880 2.224592 1.932787 0
M  V30 41 C 2.741215 1.679341 2.582066 0
M  V30 42 H 2.019932 -2.966277 4.685284 0
M  V30 43 H 1.586484 -1.293983 4.220686 0
M  V30 44 H 2.890234 -1.610605 5.471923 0
M  V30 45 H 4.414243 -2.494021 3.920423 0
M  V30 46 H 2.653902 -2.251284 1.479688 0
M  V30 47 H 2.197532 -3.494070 2.672756 0
M  V30 48 H 3.829795 -3.525645 1.927708 0
M  V30 49 H 6.191744 -1.570205 4.188740 0
M  V30 50 H 8.237753 2.020775 3.315640 0
M  V30 51 H 5.154746 2.428755 0.301952 0
M  V30 52 H 3.151317 3.419737 -0.865873 0
M  V30 53 H -2.231238 3.969377 1.692574 0
M  V30 54 H -0.971080 0.774301 0.630246 0
M  V30 55 H -0.902166 -1.055240 -0.553474 0
M  V30 56 H -2.280783 -2.402270 1.831287 0
M  V30 57 H -1.039017 -3.279951 0.909760 0
M  V30 58 H -0.702053 -1.607887 1.627282 0
M  V30 59 H -4.086545 -3.136394 -0.310672 0
M  V30 60 H -2.694161 -4.263771 -0.495895 0
M  V30 61 H -4.804683 -4.152235 -2.194382 0
M  V30 62 H -3.217813 -4.891504 -2.567200 0
M  V30 63 H -3.720297 -2.010518 -6.030091 0
M  V30 64 H -4.110035 -0.647752 -4.832052 0
M  V30 65 H -2.425847 -1.295812 -3.764017 0
M  V30 66 H -1.759250 -2.809107 -4.437357 0
M  V30 67 H -0.933135 -3.455571 -2.263224 0
M  V30 68 H -0.720026 -1.672997 -2.223668 0
M  V30 69 H -4.706682 -0.992157 0.039490 0
M  V30 70 H -5.751468 1.047699 0.711815 0
M  V30 71 H -0.036491 1.871779 3.197007 0
M  V30 72 H 2.597929 1.209571 3.523048 0
M  V30 END ATOM
M  V30 BEGIN BOND
M  V30 1 1 1 2
M  V30 2 1 2 3
M  V30 3 1 2 4
M  V30 4 1 4 5
M  V30 5 2 5 6
M  V30 6 1 6 7
M  V30 7 2 7 8
M  V30 8 1 8 9
M  V30 9 2 9 10
M  V30 10 1 10 11
M  V30 11 2 11 12
M  V30 12 1 12 13
M  V30 13 2 13 14
M  V30 14 1 14 15
M  V30 15 2 15 16
M  V30 16 1 16 17
M  V30 17 1 17 18
M  V30 18 2 18 19
M  V30 19 1 19 20
M  V30 20 1 20 21
M  V30 21 1 21 22
M  V30 22 1 21 23
M  V30 23 1 23 24
M  V30 24 1 24 25
M  V30 25 1 25 26
M  V30 26 1 26 27
M  V30 27 2 27 28
M  V30 28 1 27 29
M  V30 29 1 29 30
M  V30 30 1 30 31
M  V30 31 1 30 32
M  V30 32 1 30 33
M  V30 33 1 26 34
M  V30 34 1 34 35
M  V30 35 2 20 36
M  V30 36 1 36 37
M  V30 37 2 37 38
M  V30 38 1 16 39
M  V30 39 1 39 40
M  V30 40 2 40 41
M  V30 41 1 10 5
M  V30 42 1 41 11
M  V30 43 1 40 14
M  V30 44 1 38 18
M  V30 45 1 35 23
M  V30 46 1 1 42
M  V30 47 1 1 43
M  V30 48 1 1 44
M  V30 49 1 2 45
M  V30 50 1 3 46
M  V30 51 1 3 47
M  V30 52 1 3 48
M  V30 53 1 6 49
M  V30 54 1 8 50
M  V30 55 1 12 51
M  V30 56 1 13 52
M  V30 57 1 17 53
M  V30 58 1 19 54
M  V30 59 1 21 55 CFG=3
M  V30 60 1 22 56
M  V30 61 1 22 57
M  V30 62 1 22 58
M  V30 63 1 24 59
M  V30 64 1 24 60
M  V30 65 1 25 61
M  V30 66 1 25 62
M  V30 67 1 29 63
M  V30 68 1 29 64
M  V30 69 1 34 65
M  V30 70 1 34 66
M  V30 71 1 35 67
M  V30 72 1 35 68
M  V30 73 1 36 69
M  V30 74 1 37 70
M  V30 75 1 39 71
M  V30 76 1 41 72
M  V30 END BOND
M  V30 END CTAB
M  END
>  <Dataset>  (969) 
ChEMBL_Kinases

>  <Ligand_Instance>  (969) 
nan

>  <PDB_ID>  (969) 
nan

>  <Standardized_SMILES>  (969) 
CC(C)Oc1cncnc1-c1ccc2nc(Nc3cc([C@@H](C)N4CCN(C(=O)CC(F)(F)F)CC4)ccn3)[nH]c2c1

>  <Name>  (969) 
nan

>  <Pocket>  (969) 
nan

>  <ATP_Site>  (969) 
nan

>  <Peripheral>  (969) 
nan

>  <Num_H_Atoms_ProtBoundConf>  (969) 
nan

>  <Num_Resolved_Atoms>  (969) 
nan

>  <Num_Not_Resolved_Atoms>  (969) 
nan

$$$$
CHEMBL4544109
     RDKit          3D

  0  0  0  0  0  0  0  0  0  0999 V3000
M  V30 BEGIN CTAB
M  V30 COUNTS 56 61 0 0 0
M  V30 BEGIN ATOM
M  V30 1 N 5.015065 -2.700602 1.552463 0
M  V30 2 C 3.868800 -3.501313 1.198424 0
M  V30 3 N 4.162244 -4.808868 1.129362 0
M  V30 4 C 3.216130 -5.701272 0.812741 0
M  V30 5 C 1.934350 -5.262897 0.557710 0
M  V30 6 C 1.685334 -3.913791 0.641602 0
M  V30 7 C 2.604775 -2.971149 0.957258 0
M  V30 8 C 2.426153 -1.536295 1.066792 0
M  V30 9 N 3.427997 -0.706348 1.389977 0
M  V30 10 C 2.993560 0.558084 1.421292 0
M  V30 11 C 3.623490 1.753464 1.695621 0
M  V30 12 C 2.859164 2.899945 1.636939 0
M  V30 13 C 1.526144 2.900804 1.323576 0
M  V30 14 C 0.693500 4.095295 1.254084 0
M  V30 15 C -0.636332 3.931461 0.924256 0
M  V30 16 C -1.514556 5.016567 0.832638 0
M  V30 17 C -0.959358 6.238860 1.092358 0
M  V30 18 N 0.334102 6.419095 1.415366 0
M  V30 19 C 1.188635 5.357970 1.503964 0
M  V30 20 N 0.957904 1.710412 1.064253 0
M  V30 21 C 1.650681 0.553703 1.105034 0
M  V30 22 N 1.370506 -0.746421 0.901903 0
M  V30 23 C 0.060528 -1.154199 0.550391 0
M  V30 24 C -0.936891 -1.490334 1.477353 0
M  V30 25 C -2.172407 -1.859170 0.963414 0
M  V30 26 C -2.431093 -1.900367 -0.403867 0
M  V30 27 C -3.809852 -2.320302 -0.679891 0
M  V30 28 N -4.807840 -1.814855 0.243140 0
M  V30 29 C -4.008423 -3.833121 -0.842377 0
M  V30 30 C -4.067810 -3.668524 -2.350864 0
M  V30 31 C -4.301451 -2.186372 -2.094638 0
M  V30 32 C -1.421477 -1.561900 -1.280874 0
M  V30 33 C -0.173215 -1.187238 -0.832262 0
M  V30 34 H 5.379092 -2.848559 2.511957 0
M  V30 35 H 5.201701 -2.130838 0.684715 0
M  V30 36 H 3.427415 -6.762799 0.750358 0
M  V30 37 H 1.151685 -5.960638 0.300067 0
M  V30 38 H 0.688587 -3.605996 0.439875 0
M  V30 39 H 4.658483 1.755861 1.939145 0
M  V30 40 H 3.345249 3.821998 1.848548 0
M  V30 41 H -1.065479 2.947402 0.719297 0
M  V30 42 H -2.569266 4.870805 0.569415 0
M  V30 43 H -1.634919 7.085921 1.023188 0
M  V30 44 H 2.207131 5.509719 1.759328 0
M  V30 45 H -0.686997 -1.442293 2.509552 0
M  V30 46 H -2.873709 -2.099855 1.769280 0
M  V30 47 H -5.429719 -1.104285 -0.200339 0
M  V30 48 H -5.324589 -2.548947 0.750936 0
M  V30 49 H -4.892728 -4.250728 -0.355695 0
M  V30 50 H -3.068408 -4.402407 -0.600024 0
M  V30 51 H -3.122961 -3.886057 -2.895715 0
M  V30 52 H -4.899160 -4.223503 -2.783221 0
M  V30 53 H -5.396565 -1.990677 -2.186350 0
M  V30 54 H -3.692878 -1.593228 -2.792297 0
M  V30 55 H -1.712877 -1.622977 -2.313881 0
M  V30 56 H 0.576060 -0.934109 -1.552431 0
M  V30 END ATOM
M  V30 BEGIN BOND
M  V30 1 1 1 2
M  V30 2 2 2 3
M  V30 3 1 3 4
M  V30 4 2 4 5
M  V30 5 1 5 6
M  V30 6 2 6 7
M  V30 7 1 7 8
M  V30 8 2 8 9
M  V30 9 1 9 10
M  V30 10 2 10 11
M  V30 11 1 11 12
M  V30 12 2 12 13
M  V30 13 1 13 14
M  V30 14 2 14 15
M  V30 15 1 15 16
M  V30 16 2 16 17
M  V30 17 1 17 18
M  V30 18 2 18 19
M  V30 19 1 13 20
M  V30 20 2 20 21
M  V30 21 1 21 22
M  V30 22 1 22 23
M  V30 23 2 23 24
M  V30 24 1 24 25
M  V30 25 2 25 26
M  V30 26 1 26 27
M  V30 27 1 27 28
M  V30 28 1 27 29
M  V30 29 1 29 30
M  V30 30 1 30 31
M  V30 31 1 26 32
M  V30 32 2 32 33
M  V30 33 1 7 2
M  V30 34 1 22 8
M  V30 35 1 33 23
M  V30 36 1 21 10
M  V30 37 1 31 27
M  V30 38 1 19 14
M  V30 39 1 1 34
M  V30 40 1 1 35
M  V30 41 1 4 36
M  V30 42 1 5 37
M  V30 43 1 6 38
M  V30 44 1 11 39
M  V30 45 1 12 40
M  V30 46 1 15 41
M  V30 47 1 16 42
M  V30 48 1 17 43
M  V30 49 1 19 44
M  V30 50 1 24 45
M  V30 51 1 25 46
M  V30 52 1 28 47
M  V30 53 1 28 48
M  V30 54 1 29 49
M  V30 55 1 29 50
M  V30 56 1 30 51
M  V30 57 1 30 52
M  V30 58 1 31 53
M  V30 59 1 31 54
M  V30 60 1 32 55
M  V30 61 1 33 56
M  V30 END BOND
M  V30 END CTAB
M  END
>  <Dataset>  (970) 
ChEMBL_Kinases

>  <Ligand_Instance>  (970) 
nan

>  <PDB_ID>  (970) 
nan

>  <Standardized_SMILES>  (970) 
Nc1ncccc1-c1nc2ccc(-c3cccnc3)nc2n1-c1ccc(C2(N)CCC2)cc1

>  <Name>  (970) 
nan

>  <Pocket>  (970) 
nan

>  <ATP_Site>  (970) 
nan

>  <Peripheral>  (970) 
nan

>  <Num_H_Atoms_ProtBoundConf>  (970) 
nan

>  <Num_Resolved_Atoms>  (970) 
nan

>  <Num_Not_Resolved_Atoms>  (970) 
nan

$$$$
CHEMBL4640019
     RDKit          3D

  0  0  0  0  0  0  0  0  0  0999 V3000
M  V30 BEGIN CTAB
M  V30 COUNTS 49 52 0 0 0
M  V30 BEGIN ATOM
M  V30 1 O 0.641880 -1.229720 1.329251 0
M  V30 2 C 1.073180 -0.379351 2.122815 0
M  V30 3 N 2.315409 -0.506076 2.798587 0
M  V30 4 C 3.200787 -1.641565 2.624325 0
M  V30 5 C 3.602254 -1.707171 1.164141 0
M  V30 6 C 4.536358 -2.881117 0.908740 0
M  V30 7 C 5.069466 -2.772678 -0.482154 0
M  V30 8 O 5.937970 -1.694840 -0.603755 0
M  V30 9 C 5.807392 -0.777986 0.437937 0
M  V30 10 C 4.370769 -0.469794 0.749043 0
M  V30 11 C 0.256776 0.805780 2.366509 0
M  V30 12 N 0.511038 1.847749 3.172086 0
M  V30 13 N -0.457521 2.746666 3.141634 0
M  V30 14 C -1.415779 2.342944 2.305014 0
M  V30 15 C -2.621765 2.920830 1.930189 0
M  V30 16 C -3.367894 2.192274 1.020256 0
M  V30 17 C -2.980100 0.984783 0.503483 0
M  V30 18 C -3.860483 0.319323 -0.448214 0
M  V30 19 C -4.697146 0.934226 -1.356009 0
M  V30 20 N -5.465342 0.173338 -2.180703 0
M  V30 21 C -5.430274 -1.165899 -2.133812 0
M  V30 22 C -4.617327 -1.847615 -1.251335 0
M  V30 23 C -4.567407 -3.347695 -1.185037 0
M  V30 24 O -5.504109 -3.820453 -0.278924 0
M  V30 25 C -3.833669 -1.079915 -0.410166 0
M  V30 26 C -1.782550 0.436382 0.892037 0
M  V30 27 C -0.979938 1.122330 1.809471 0
M  V30 28 H 2.593426 0.268929 3.454891 0
M  V30 29 H 2.690577 -2.591675 2.893996 0
M  V30 30 H 4.103535 -1.505279 3.230622 0
M  V30 31 H 2.724347 -1.847134 0.502954 0
M  V30 32 H 3.973906 -3.847694 1.000662 0
M  V30 33 H 5.330896 -2.904264 1.690587 0
M  V30 34 H 5.561638 -3.719861 -0.824505 0
M  V30 35 H 4.209675 -2.595702 -1.156581 0
M  V30 36 H 6.312038 -1.142916 1.351379 0
M  V30 37 H 6.302500 0.153190 0.136476 0
M  V30 38 H 4.400950 0.262340 1.608394 0
M  V30 39 H 3.881984 0.030208 -0.118167 0
M  V30 40 H -0.460236 3.649226 3.702628 0
M  V30 41 H -2.931851 3.873882 2.335584 0
M  V30 42 H -4.316676 2.624312 0.710602 0
M  V30 43 H -4.674329 2.011876 -1.338435 0
M  V30 44 H -6.045775 -1.769657 -2.793233 0
M  V30 45 H -3.550703 -3.612189 -0.804638 0
M  V30 46 H -4.663964 -3.754667 -2.202351 0
M  V30 47 H -5.946986 -3.043921 0.138263 0
M  V30 48 H -3.197120 -1.629705 0.281870 0
M  V30 49 H -1.446904 -0.521499 0.499192 0
M  V30 END ATOM
M  V30 BEGIN BOND
M  V30 1 2 1 2
M  V30 2 1 2 3
M  V30 3 1 3 4
M  V30 4 1 4 5
M  V30 5 1 5 6
M  V30 6 1 6 7
M  V30 7 1 7 8
M  V30 8 1 8 9
M  V30 9 1 9 10
M  V30 10 1 2 11
M  V30 11 2 11 12
M  V30 12 1 12 13
M  V30 13 1 13 14
M  V30 14 2 14 15
M  V30 15 1 15 16
M  V30 16 2 16 17
M  V30 17 1 17 18
M  V30 18 2 18 19
M  V30 19 1 19 20
M  V30 20 2 20 21
M  V30 21 1 21 22
M  V30 22 1 22 23
M  V30 23 1 23 24
M  V30 24 2 22 25
M  V30 25 1 17 26
M  V30 26 2 26 27
M  V30 27 1 10 5
M  V30 28 1 27 11
M  V30 29 1 27 14
M  V30 30 1 25 18
M  V30 31 1 3 28
M  V30 32 1 4 29
M  V30 33 1 4 30
M  V30 34 1 5 31
M  V30 35 1 6 32
M  V30 36 1 6 33
M  V30 37 1 7 34
M  V30 38 1 7 35
M  V30 39 1 9 36
M  V30 40 1 9 37
M  V30 41 1 10 38
M  V30 42 1 10 39
M  V30 43 1 13 40
M  V30 44 1 15 41
M  V30 45 1 16 42
M  V30 46 1 19 43
M  V30 47 1 21 44
M  V30 48 1 23 45
M  V30 49 1 23 46
M  V30 50 1 24 47
M  V30 51 1 25 48
M  V30 52 1 26 49
M  V30 END BOND
M  V30 END CTAB
M  END
>  <Dataset>  (971) 
ChEMBL_Kinases

>  <Ligand_Instance>  (971) 
nan

>  <PDB_ID>  (971) 
nan

>  <Standardized_SMILES>  (971) 
O=C(NCC1CCOCC1)c1n[nH]c2ccc(-c3cncc(CO)c3)cc12

>  <Name>  (971) 
nan

>  <Pocket>  (971) 
nan

>  <ATP_Site>  (971) 
nan

>  <Peripheral>  (971) 
nan

>  <Num_H_Atoms_ProtBoundConf>  (971) 
nan

>  <Num_Resolved_Atoms>  (971) 
nan

>  <Num_Not_Resolved_Atoms>  (971) 
nan

$$$$
CHEMBL4545250
     RDKit          3D

  0  0  0  0  0  0  0  0  0  0999 V3000
M  V30 BEGIN CTAB
M  V30 COUNTS 40 43 0 0 0
M  V30 BEGIN ATOM
M  V30 1 N 2.005228 -5.165107 2.906698 0
M  V30 2 C 2.726745 -4.192847 2.075243 0
M  V30 3 C 1.837904 -3.089695 1.649650 0
M  V30 4 C 1.115179 -3.172888 0.471129 0
M  V30 5 C 0.295077 -2.119573 0.108594 0
M  V30 6 C 0.250771 -1.014878 0.978915 0
M  V30 7 N -0.614868 0.047203 0.664736 0
M  V30 8 C -0.467970 1.164313 -0.022615 0
M  V30 9 C 0.624400 1.759169 -0.730926 0
M  V30 10 C 0.393442 2.978250 -1.348961 0
M  V30 11 C 1.365186 3.638381 -2.053825 0
M  V30 12 C 2.637700 3.143940 -2.201044 0
M  V30 13 N 2.881858 1.977358 -1.617436 0
M  V30 14 C 1.909407 1.363471 -0.938736 0
M  V30 15 N 2.366365 0.152661 -0.401708 0
M  V30 16 N -1.678502 1.723487 0.066728 0
M  V30 17 C -2.533654 0.990314 0.773938 0
M  V30 18 C -3.851319 1.312252 1.034880 0
M  V30 19 C -4.559474 0.386640 1.802337 0
M  V30 20 C -3.877807 -0.738654 2.214700 0
M  V30 21 Cl -4.749832 -1.918890 3.182830 0
M  V30 22 N -2.588766 -0.967739 1.910408 0
M  V30 23 C -1.843290 -0.127768 1.179248 0
M  V30 24 C 0.976752 -0.911017 2.179979 0
M  V30 25 C 1.783815 -1.991562 2.499400 0
M  V30 26 H 1.200168 -4.683665 3.375430 0
M  V30 27 H 1.574007 -5.838270 2.224017 0
M  V30 28 H 3.218180 -4.717614 1.247098 0
M  V30 29 H 3.555893 -3.814252 2.733334 0
M  V30 30 H 1.166645 -4.022697 -0.171739 0
M  V30 31 H -0.310849 -2.074488 -0.781953 0
M  V30 32 H -0.572756 3.475952 -1.306991 0
M  V30 33 H 1.109337 4.580669 -2.505438 0
M  V30 34 H 3.329557 3.733136 -2.770944 0
M  V30 35 H 3.182014 -0.096005 0.221717 0
M  V30 36 H 3.007988 -0.446198 0.159364 0
M  V30 37 H -4.299386 2.223172 0.666061 0
M  V30 38 H -5.595485 0.581776 2.040608 0
M  V30 39 H 0.879093 -0.035663 2.773717 0
M  V30 40 H 2.354725 -1.941121 3.417386 0
M  V30 END ATOM
M  V30 BEGIN BOND
M  V30 1 1 1 2
M  V30 2 1 2 3
M  V30 3 2 3 4
M  V30 4 1 4 5
M  V30 5 2 5 6
M  V30 6 1 6 7
M  V30 7 1 7 8
M  V30 8 1 8 9
M  V30 9 2 9 10
M  V30 10 1 10 11
M  V30 11 2 11 12
M  V30 12 1 12 13
M  V30 13 2 13 14
M  V30 14 1 14 15
M  V30 15 2 8 16
M  V30 16 1 16 17
M  V30 17 2 17 18
M  V30 18 1 18 19
M  V30 19 2 19 20
M  V30 20 1 20 21
M  V30 21 1 20 22
M  V30 22 2 22 23
M  V30 23 1 6 24
M  V30 24 2 24 25
M  V30 25 1 25 3
M  V30 26 1 23 7
M  V30 27 1 14 9
M  V30 28 1 23 17
M  V30 29 1 1 26
M  V30 30 1 1 27
M  V30 31 1 2 28
M  V30 32 1 2 29
M  V30 33 1 4 30
M  V30 34 1 5 31
M  V30 35 1 10 32
M  V30 36 1 11 33
M  V30 37 1 12 34
M  V30 38 1 15 35
M  V30 39 1 15 36
M  V30 40 1 18 37
M  V30 41 1 19 38
M  V30 42 1 24 39
M  V30 43 1 25 40
M  V30 END BOND
M  V30 END CTAB
M  END
>  <Dataset>  (972) 
ChEMBL_Kinases

>  <Ligand_Instance>  (972) 
nan

>  <PDB_ID>  (972) 
nan

>  <Standardized_SMILES>  (972) 
NCc1ccc(-n2c(-c3cccnc3N)nc3ccc(Cl)nc32)cc1

>  <Name>  (972) 
nan

>  <Pocket>  (972) 
nan

>  <ATP_Site>  (972) 
nan

>  <Peripheral>  (972) 
nan

>  <Num_H_Atoms_ProtBoundConf>  (972) 
nan

>  <Num_Resolved_Atoms>  (972) 
nan

>  <Num_Not_Resolved_Atoms>  (972) 
nan

$$$$
CHEMBL4639995
     RDKit          3D

  0  0  0  0  0  0  0  0  0  0999 V3000
M  V30 BEGIN CTAB
M  V30 COUNTS 47 51 0 0 0
M  V30 BEGIN ATOM
M  V30 1 C -0.482451 -6.579161 3.351380 0
M  V30 2 C 0.720568 -6.376419 2.685842 0
M  V30 3 C 1.042146 -5.115014 2.229329 0
M  V30 4 C 0.158546 -4.062642 2.441035 0
M  V30 5 C 0.484551 -2.798446 1.982532 0
M  V30 6 C -0.320442 -1.691805 2.141270 0
M  V30 7 C -0.005239 -0.351387 1.665511 0
M  V30 8 N 0.376049 0.567974 2.576800 0
M  V30 9 N 0.684047 1.817308 2.200478 0
M  V30 10 C 0.616794 2.180301 0.885897 0
M  V30 11 N 0.945627 3.512783 0.479985 0
M  V30 12 C 0.936298 4.089400 -0.851405 0
M  V30 13 C 2.013630 5.170706 -0.788702 0
M  V30 14 C 2.487694 5.231697 0.633109 0
M  V30 15 C 1.365232 4.564426 1.381061 0
M  V30 16 C 0.224219 1.224275 -0.029853 0
M  V30 17 C -0.102209 -0.075865 0.317971 0
M  V30 18 C -0.501990 -0.984905 -0.724042 0
M  V30 19 C 0.066232 -2.110434 -1.282698 0
M  V30 20 C -0.581560 -2.791429 -2.292139 0
M  V30 21 N -1.766716 -2.385732 -2.755409 0
M  V30 22 C -2.377926 -1.292126 -2.253149 0
M  V30 23 C -1.746847 -0.591747 -1.238275 0
M  V30 24 C -1.518534 -1.889390 2.802722 0
M  V30 25 C -1.893018 -3.143531 3.284331 0
M  V30 26 C -1.045680 -4.214278 3.095259 0
M  V30 27 C -1.346658 -5.497475 3.546153 0
M  V30 28 H -0.725386 -7.572469 3.705960 0
M  V30 29 H 1.449716 -7.162502 2.492481 0
M  V30 30 H 1.956920 -4.923320 1.714294 0
M  V30 31 H 1.423799 -2.683557 1.478760 0
M  V30 32 H 1.161557 3.340153 -1.634627 0
M  V30 33 H -0.024079 4.606677 -0.984487 0
M  V30 34 H 1.619715 6.154439 -1.093909 0
M  V30 35 H 2.848776 4.842505 -1.457227 0
M  V30 36 H 2.595578 6.290493 0.994138 0
M  V30 37 H 3.449542 4.683784 0.781624 0
M  V30 38 H 0.551801 5.270294 1.616643 0
M  V30 39 H 1.736637 4.095656 2.337778 0
M  V30 40 H 0.167238 1.506924 -1.086301 0
M  V30 41 H 1.013745 -2.322841 -0.826142 0
M  V30 42 H -0.035901 -3.643222 -2.635703 0
M  V30 43 H -3.325215 -1.045648 -2.689420 0
M  V30 44 H -2.360407 0.267317 -0.932366 0
M  V30 45 H -2.236045 -1.073737 2.983328 0
M  V30 46 H -2.828530 -3.305470 3.803042 0
M  V30 47 H -2.281739 -5.676828 4.068736 0
M  V30 END ATOM
M  V30 BEGIN BOND
M  V30 1 2 1 2
M  V30 2 1 2 3
M  V30 3 2 3 4
M  V30 4 1 4 5
M  V30 5 2 5 6
M  V30 6 1 6 7
M  V30 7 2 7 8
M  V30 8 1 8 9
M  V30 9 2 9 10
M  V30 10 1 10 11
M  V30 11 1 11 12
M  V30 12 1 12 13
M  V30 13 1 13 14
M  V30 14 1 14 15
M  V30 15 1 10 16
M  V30 16 2 16 17
M  V30 17 1 17 18
M  V30 18 2 18 19
M  V30 19 1 19 20
M  V30 20 2 20 21
M  V30 21 1 21 22
M  V30 22 2 22 23
M  V30 23 1 6 24
M  V30 24 2 24 25
M  V30 25 1 25 26
M  V30 26 2 26 27
M  V30 27 1 27 1
M  V30 28 1 26 4
M  V30 29 1 17 7
M  V30 30 1 23 18
M  V30 31 1 15 11
M  V30 32 1 1 28
M  V30 33 1 2 29
M  V30 34 1 3 30
M  V30 35 1 5 31
M  V30 36 1 12 32
M  V30 37 1 12 33
M  V30 38 1 13 34
M  V30 39 1 13 35
M  V30 40 1 14 36
M  V30 41 1 14 37
M  V30 42 1 15 38
M  V30 43 1 15 39
M  V30 44 1 16 40
M  V30 45 1 19 41
M  V30 46 1 20 42
M  V30 47 1 22 43
M  V30 48 1 23 44
M  V30 49 1 24 45
M  V30 50 1 25 46
M  V30 51 1 27 47
M  V30 END BOND
M  V30 END CTAB
M  END
>  <Dataset>  (973) 
ChEMBL_Kinases

>  <Ligand_Instance>  (973) 
nan

>  <PDB_ID>  (973) 
nan

>  <Standardized_SMILES>  (973) 
c1ccc2cc(-c3nnc(N4CCCC4)cc3-c3ccncc3)ccc2c1

>  <Name>  (973) 
nan

>  <Pocket>  (973) 
nan

>  <ATP_Site>  (973) 
nan

>  <Peripheral>  (973) 
nan

>  <Num_H_Atoms_ProtBoundConf>  (973) 
nan

>  <Num_Resolved_Atoms>  (973) 
nan

>  <Num_Not_Resolved_Atoms>  (973) 
nan

$$$$
CHEMBL4545446
     RDKit          3D

  0  0  0  0  0  0  0  0  0  0999 V3000
M  V30 BEGIN CTAB
M  V30 COUNTS 69 72 0 0 0
M  V30 BEGIN ATOM
M  V30 1 C 6.425170 -1.040189 5.677243 0
M  V30 2 C 6.021599 -2.171415 4.779773 0
M  V30 3 N 4.816910 -1.791829 4.063922 0
M  V30 4 C 4.880415 -0.659045 3.228992 0
M  V30 5 O 5.991144 -0.070676 3.178213 0
M  V30 6 C 3.738569 -0.172548 2.453373 0
M  V30 7 C 2.452189 -0.698735 2.495575 0
M  V30 8 C 1.445005 -0.161810 1.693022 0
M  V30 9 C 1.746609 0.908468 0.849964 0
M  V30 10 N 0.608842 1.299443 0.093782 0
M  V30 11 C -0.763704 0.954293 0.027862 0
M  V30 12 N -1.591634 1.911606 0.522713 0
M  V30 13 C -2.920229 1.762232 0.553117 0
M  V30 14 C -3.406380 0.577804 0.052703 0
M  V30 15 C -2.630410 -0.434613 -0.462976 0
M  V30 16 N -1.323624 -0.166504 -0.439281 0
M  V30 17 N -3.076311 -1.720102 -0.987896 0
M  V30 18 C -2.097432 -2.524435 -1.617261 0
M  V30 19 C -2.017806 -3.955067 -1.149695 0
M  V30 20 C -1.281648 -4.572080 -2.350103 0
M  V30 21 C -2.037012 -3.995345 -3.525425 0
M  V30 22 C -2.226826 -2.543764 -3.104457 0
M  V30 23 C -4.452101 -2.049406 -0.790845 0 CFG=2
M  V30 24 C -5.169538 -2.712127 -1.932446 0
M  V30 25 C -6.625408 -3.051469 -1.579360 0
M  V30 26 C -5.305314 -0.846433 -0.457889 0
M  V30 27 O -6.553286 -0.839873 -0.623176 0
M  V30 28 N -4.811800 0.393587 0.069779 0
M  V30 29 C -5.702060 1.418556 0.591949 0
M  V30 30 C 3.009179 1.462569 0.777558 0
M  V30 31 O 3.027976 2.467628 -0.103309 0
M  V30 32 C 4.075388 3.301898 -0.462718 0
M  V30 33 C 4.507672 4.138810 0.708181 0
M  V30 34 O 3.379938 4.896888 1.096757 0
M  V30 35 C 3.938516 0.880980 1.592479 0
M  V30 36 H 5.518696 -0.479605 6.000573 0
M  V30 37 H 6.897763 -1.484924 6.594781 0
M  V30 38 H 7.135377 -0.361093 5.180202 0
M  V30 39 H 6.845206 -2.376610 4.052263 0
M  V30 40 H 5.803987 -3.067591 5.391510 0
M  V30 41 H 3.913573 -2.323154 4.142139 0
M  V30 42 H 2.301891 -1.528867 3.176059 0
M  V30 43 H 0.511611 -0.668824 1.834112 0
M  V30 44 H 0.767685 2.041304 -0.627866 0
M  V30 45 H -3.581793 2.496275 0.935680 0
M  V30 46 H -1.066703 -2.087039 -1.360044 0
M  V30 47 H -1.308414 -4.033026 -0.302104 0
M  V30 48 H -2.963053 -4.442876 -0.941358 0
M  V30 49 H -0.274211 -4.095718 -2.383713 0
M  V30 50 H -1.261883 -5.664913 -2.315436 0
M  V30 51 H -3.002772 -4.492159 -3.707725 0
M  V30 52 H -1.423643 -3.968292 -4.456351 0
M  V30 53 H -3.165632 -2.218090 -3.538416 0
M  V30 54 H -1.425111 -1.903607 -3.561855 0
M  V30 55 H -4.567772 -2.715931 0.109493 0
M  V30 56 H -5.298013 -1.961566 -2.778327 0
M  V30 57 H -4.697237 -3.588274 -2.355073 0
M  V30 58 H -6.770606 -3.129805 -0.496171 0
M  V30 59 H -6.835884 -4.088249 -1.973738 0
M  V30 60 H -7.358008 -2.415350 -2.083926 0
M  V30 61 H -6.725518 1.006543 0.661700 0
M  V30 62 H -5.370345 1.619030 1.633052 0
M  V30 63 H -5.660363 2.348806 0.004019 0
M  V30 64 H 4.939825 2.749054 -0.909697 0
M  V30 65 H 3.752954 4.022971 -1.277212 0
M  V30 66 H 4.910429 3.554754 1.516006 0
M  V30 67 H 5.273701 4.886616 0.393246 0
M  V30 68 H 2.790001 5.078039 0.297412 0
M  V30 69 H 4.930502 1.289091 1.530968 0
M  V30 END ATOM
M  V30 BEGIN BOND
M  V30 1 1 1 2
M  V30 2 1 2 3
M  V30 3 1 3 4
M  V30 4 2 4 5
M  V30 5 1 4 6
M  V30 6 2 6 7
M  V30 7 1 7 8
M  V30 8 2 8 9
M  V30 9 1 9 10
M  V30 10 1 10 11
M  V30 11 2 11 12
M  V30 12 1 12 13
M  V30 13 2 13 14
M  V30 14 1 14 15
M  V30 15 2 15 16
M  V30 16 1 15 17
M  V30 17 1 17 18
M  V30 18 1 18 19
M  V30 19 1 19 20
M  V30 20 1 20 21
M  V30 21 1 21 22
M  V30 22 1 17 23
M  V30 23 1 23 24
M  V30 24 1 24 25
M  V30 25 1 23 26
M  V30 26 2 26 27
M  V30 27 1 26 28
M  V30 28 1 28 29
M  V30 29 1 9 30
M  V30 30 1 30 31
M  V30 31 1 31 32
M  V30 32 1 32 33
M  V30 33 1 33 34
M  V30 34 2 30 35
M  V30 35 1 35 6
M  V30 36 1 16 11
M  V30 37 1 22 18
M  V30 38 1 28 14
M  V30 39 1 1 36
M  V30 40 1 1 37
M  V30 41 1 1 38
M  V30 42 1 2 39
M  V30 43 1 2 40
M  V30 44 1 3 41
M  V30 45 1 7 42
M  V30 46 1 8 43
M  V30 47 1 10 44
M  V30 48 1 13 45
M  V30 49 1 18 46
M  V30 50 1 19 47
M  V30 51 1 19 48
M  V30 52 1 20 49
M  V30 53 1 20 50
M  V30 54 1 21 51
M  V30 55 1 21 52
M  V30 56 1 22 53
M  V30 57 1 22 54
M  V30 58 1 23 55 CFG=1
M  V30 59 1 24 56
M  V30 60 1 24 57
M  V30 61 1 25 58
M  V30 62 1 25 59
M  V30 63 1 25 60
M  V30 64 1 29 61
M  V30 65 1 29 62
M  V30 66 1 29 63
M  V30 67 1 32 64
M  V30 68 1 32 65
M  V30 69 1 33 66
M  V30 70 1 33 67
M  V30 71 1 34 68
M  V30 72 1 35 69
M  V30 END BOND
M  V30 END CTAB
M  END
>  <Dataset>  (974) 
ChEMBL_Kinases

>  <Ligand_Instance>  (974) 
nan

>  <PDB_ID>  (974) 
nan

>  <Standardized_SMILES>  (974) 
CCNC(=O)c1ccc(Nc2ncc3c(n2)N(C2CCCC2)[C@H](CC)C(=O)N3C)c(OCCO)c1

>  <Name>  (974) 
nan

>  <Pocket>  (974) 
nan

>  <ATP_Site>  (974) 
nan

>  <Peripheral>  (974) 
nan

>  <Num_H_Atoms_ProtBoundConf>  (974) 
nan

>  <Num_Resolved_Atoms>  (974) 
nan

>  <Num_Not_Resolved_Atoms>  (974) 
nan

$$$$
CHEMBL4546015
     RDKit          3D

  0  0  0  0  0  0  0  0  0  0999 V3000
M  V30 BEGIN CTAB
M  V30 COUNTS 53 57 0 0 0
M  V30 BEGIN ATOM
M  V30 1 O -2.424809 -3.978596 -1.721776 0
M  V30 2 C -1.701914 -4.819070 -2.291759 0
M  V30 3 N -0.549827 -5.254821 -1.580168 0
M  V30 4 C -0.546545 -4.555366 -0.319376 0
M  V30 5 C 0.068212 -3.332670 -0.144163 0
M  V30 6 C 0.050317 -2.683139 1.096644 0
M  V30 7 C 0.768193 -1.414828 1.011132 0
M  V30 8 N 2.048318 -1.073032 0.781381 0
M  V30 9 C 2.146001 0.268735 0.814046 0
M  V30 10 S 3.773488 0.946572 0.532366 0
M  V30 11 C 3.780889 2.734278 0.595195 0
M  V30 12 C 3.477895 3.304145 1.911450 0
M  V30 13 C 2.189948 3.610947 2.289998 0
M  V30 14 C 1.882069 4.144810 3.521475 0
M  V30 15 C 2.874880 4.397511 4.441416 0
M  V30 16 C 4.173317 4.099271 4.086922 0
M  V30 17 C 4.448143 3.560840 2.834793 0
M  V30 18 N 0.922171 0.751488 1.064648 0
M  V30 19 C 0.035675 -0.252891 1.194657 0
M  V30 20 C -1.315516 0.162080 1.470463 0
M  V30 21 C -1.962016 0.853710 0.442137 0
M  V30 22 C -3.261953 1.308364 0.587761 0
M  V30 23 C -3.938006 1.077905 1.768219 0
M  V30 24 F -5.214042 1.489473 1.994107 0
M  V30 25 C -3.334987 0.390983 2.826739 0
M  V30 26 C -2.040792 -0.037675 2.624683 0
M  V30 27 C -0.599153 -3.297499 2.143785 0
M  V30 28 C -1.206616 -4.518282 1.947293 0
M  V30 29 N -1.176418 -5.122901 0.747035 0
M  V30 30 C -2.066340 -5.320968 -3.664541 0
M  V30 31 C -2.301475 -4.152155 -4.623121 0
M  V30 32 C -3.405920 -5.070061 -4.193563 0
M  V30 33 H 0.080632 -5.960500 -2.029791 0
M  V30 34 H 0.544682 -2.969210 -1.068394 0
M  V30 35 H 2.715630 -1.876906 0.624321 0
M  V30 36 H 4.786983 3.085632 0.262716 0
M  V30 37 H 3.078734 3.126465 -0.188468 0
M  V30 38 H 1.342613 3.452448 1.641828 0
M  V30 39 H 0.867515 4.384515 3.815420 0
M  V30 40 H 2.626761 4.817377 5.407978 0
M  V30 41 H 4.942721 4.301551 4.815952 0
M  V30 42 H 5.472212 3.332112 2.571225 0
M  V30 43 H -1.484389 1.064826 -0.505797 0
M  V30 44 H -3.818609 1.849129 -0.167236 0
M  V30 45 H -3.796999 0.172185 3.778667 0
M  V30 46 H -1.533572 -0.570906 3.416037 0
M  V30 47 H -0.542336 -2.703716 3.041572 0
M  V30 48 H -1.691594 -4.920605 2.830527 0
M  V30 49 H -1.350789 -6.053722 -4.041977 0
M  V30 50 H -2.365894 -3.129487 -4.248680 0
M  V30 51 H -1.888117 -4.228339 -5.640311 0
M  V30 52 H -3.824868 -5.716838 -4.968870 0
M  V30 53 H -4.168444 -4.687153 -3.468993 0
M  V30 END ATOM
M  V30 BEGIN BOND
M  V30 1 2 1 2
M  V30 2 1 2 3
M  V30 3 1 3 4
M  V30 4 2 4 5
M  V30 5 1 5 6
M  V30 6 1 6 7
M  V30 7 1 7 8
M  V30 8 1 8 9
M  V30 9 1 9 10
M  V30 10 1 10 11
M  V30 11 1 11 12
M  V30 12 2 12 13
M  V30 13 1 13 14
M  V30 14 2 14 15
M  V30 15 1 15 16
M  V30 16 2 16 17
M  V30 17 2 9 18
M  V30 18 1 18 19
M  V30 19 1 19 20
M  V30 20 2 20 21
M  V30 21 1 21 22
M  V30 22 2 22 23
M  V30 23 1 23 24
M  V30 24 1 23 25
M  V30 25 2 25 26
M  V30 26 2 6 27
M  V30 27 1 27 28
M  V30 28 2 28 29
M  V30 29 1 2 30
M  V30 30 1 30 31
M  V30 31 1 31 32
M  V30 32 1 29 4
M  V30 33 1 32 30
M  V30 34 2 19 7
M  V30 35 1 26 20
M  V30 36 1 17 12
M  V30 37 1 3 33
M  V30 38 1 5 34
M  V30 39 1 8 35
M  V30 40 1 11 36
M  V30 41 1 11 37
M  V30 42 1 13 38
M  V30 43 1 14 39
M  V30 44 1 15 40
M  V30 45 1 16 41
M  V30 46 1 17 42
M  V30 47 1 21 43
M  V30 48 1 22 44
M  V30 49 1 25 45
M  V30 50 1 26 46
M  V30 51 1 27 47
M  V30 52 1 28 48
M  V30 53 1 30 49
M  V30 54 1 31 50
M  V30 55 1 31 51
M  V30 56 1 32 52
M  V30 57 1 32 53
M  V30 END BOND
M  V30 END CTAB
M  END
>  <Dataset>  (975) 
ChEMBL_Kinases

>  <Ligand_Instance>  (975) 
nan

>  <PDB_ID>  (975) 
nan

>  <Standardized_SMILES>  (975) 
O=C(Nc1cc(-c2[nH]c(SCc3ccccc3)nc2-c2ccc(F)cc2)ccn1)C1CC1

>  <Name>  (975) 
nan

>  <Pocket>  (975) 
nan

>  <ATP_Site>  (975) 
nan

>  <Peripheral>  (975) 
nan

>  <Num_H_Atoms_ProtBoundConf>  (975) 
nan

>  <Num_Resolved_Atoms>  (975) 
nan

>  <Num_Not_Resolved_Atoms>  (975) 
nan

$$$$
CHEMBL4546484
     RDKit          3D

  0  0  0  0  0  0  0  0  0  0999 V3000
M  V30 BEGIN CTAB
M  V30 COUNTS 57 61 0 0 0
M  V30 BEGIN ATOM
M  V30 1 C 5.652350 -4.022572 0.490605 0
M  V30 2 C 5.440014 -2.610568 0.087380 0
M  V30 3 O 5.581316 -2.264689 -1.094297 0
M  V30 4 N 5.072752 -1.693863 1.110867 0
M  V30 5 C 4.773241 -0.307946 1.225818 0
M  V30 6 C 5.746150 0.640351 1.487056 0
M  V30 7 C 5.343827 1.958135 1.578656 0
M  V30 8 C 4.015572 2.285705 1.411402 0
M  V30 9 C 3.037141 1.357225 1.151619 0
M  V30 10 C 1.623513 1.664660 0.969602 0
M  V30 11 C 1.130459 2.950222 1.045297 0
M  V30 12 C -0.212415 3.277644 0.877355 0
M  V30 13 C -1.055921 2.216203 0.622474 0
M  V30 14 N -2.383087 2.184743 0.414658 0
M  V30 15 C -2.782836 0.930769 0.205294 0
M  V30 16 C -4.171215 0.599158 -0.047224 0
M  V30 17 C -4.722221 -0.637471 -0.278025 0
M  V30 18 C -6.039304 -0.879285 -0.509217 0
M  V30 19 C -6.923811 0.172812 -0.521071 0
M  V30 20 N -6.428048 1.391313 -0.300917 0
M  V30 21 C -5.100638 1.613516 -0.070453 0
M  V30 22 N -4.770834 2.983250 0.142170 0
M  V30 23 N -1.674214 0.185663 0.287917 0
M  V30 24 C -1.582671 -1.219974 0.135851 0
M  V30 25 C -1.351622 -1.632347 -1.183117 0
M  V30 26 C -1.233256 -2.980785 -1.451294 0
M  V30 27 C -1.342849 -3.900664 -0.425988 0
M  V30 28 C -1.212312 -5.355307 -0.733206 0
M  V30 29 N -2.514238 -5.911723 -1.047449 0
M  V30 30 C -1.572266 -3.506808 0.889179 0
M  V30 31 C -1.693361 -2.154875 1.173466 0
M  V30 32 C -0.580895 0.924908 0.543283 0
M  V30 33 N 0.733250 0.695523 0.718379 0
M  V30 34 C 3.451466 0.044666 1.062475 0
M  V30 35 H 5.216439 -4.232413 1.485205 0
M  V30 36 H 5.180824 -4.732253 -0.229530 0
M  V30 37 H 6.748972 -4.215640 0.523550 0
M  V30 38 H 4.946877 -1.969346 2.126857 0
M  V30 39 H 6.773102 0.328703 1.609505 0
M  V30 40 H 6.095559 2.716103 1.783395 0
M  V30 41 H 3.744218 3.316126 1.489819 0
M  V30 42 H 1.784103 3.788166 1.244552 0
M  V30 43 H -0.554364 4.306975 0.946150 0
M  V30 44 H -4.062953 -1.489633 -0.277224 0
M  V30 45 H -6.401349 -1.882395 -0.683395 0
M  V30 46 H -7.965158 0.043250 -0.696688 0
M  V30 47 H -4.637555 3.502121 1.050897 0
M  V30 48 H -4.619950 3.577755 1.002166 0
M  V30 49 H -1.261381 -0.936090 -2.005512 0
M  V30 50 H -1.053042 -3.340892 -2.466385 0
M  V30 51 H -0.858117 -5.909992 0.175477 0
M  V30 52 H -0.538610 -5.538829 -1.579934 0
M  V30 53 H -2.575535 -6.889992 -0.743951 0
M  V30 54 H -3.307608 -5.299932 -0.760564 0
M  V30 55 H -1.662914 -4.188394 1.709239 0
M  V30 56 H -1.872141 -1.748791 2.163127 0
M  V30 57 H 2.689563 -0.715946 0.855793 0
M  V30 END ATOM
M  V30 BEGIN BOND
M  V30 1 1 1 2
M  V30 2 2 2 3
M  V30 3 1 2 4
M  V30 4 1 4 5
M  V30 5 2 5 6
M  V30 6 1 6 7
M  V30 7 2 7 8
M  V30 8 1 8 9
M  V30 9 1 9 10
M  V30 10 2 10 11
M  V30 11 1 11 12
M  V30 12 2 12 13
M  V30 13 1 13 14
M  V30 14 2 14 15
M  V30 15 1 15 16
M  V30 16 2 16 17
M  V30 17 1 17 18
M  V30 18 2 18 19
M  V30 19 1 19 20
M  V30 20 2 20 21
M  V30 21 1 21 22
M  V30 22 1 15 23
M  V30 23 1 23 24
M  V30 24 2 24 25
M  V30 25 1 25 26
M  V30 26 2 26 27
M  V30 27 1 27 28
M  V30 28 1 28 29
M  V30 29 1 27 30
M  V30 30 2 30 31
M  V30 31 1 23 32
M  V30 32 2 32 33
M  V30 33 2 9 34
M  V30 34 1 34 5
M  V30 35 1 33 10
M  V30 36 1 32 13
M  V30 37 1 21 16
M  V30 38 1 31 24
M  V30 39 1 1 35
M  V30 40 1 1 36
M  V30 41 1 1 37
M  V30 42 1 4 38
M  V30 43 1 6 39
M  V30 44 1 7 40
M  V30 45 1 8 41
M  V30 46 1 11 42
M  V30 47 1 12 43
M  V30 48 1 17 44
M  V30 49 1 18 45
M  V30 50 1 19 46
M  V30 51 1 22 47
M  V30 52 1 22 48
M  V30 53 1 25 49
M  V30 54 1 26 50
M  V30 55 1 28 51
M  V30 56 1 28 52
M  V30 57 1 29 53
M  V30 58 1 29 54
M  V30 59 1 30 55
M  V30 60 1 31 56
M  V30 61 1 34 57
M  V30 END BOND
M  V30 END CTAB
M  END
>  <Dataset>  (976) 
ChEMBL_Kinases

>  <Ligand_Instance>  (976) 
nan

>  <PDB_ID>  (976) 
nan

>  <Standardized_SMILES>  (976) 
CC(=O)Nc1cccc(-c2ccc3nc(-c4cccnc4N)n(-c4ccc(CN)cc4)c3n2)c1

>  <Name>  (976) 
nan

>  <Pocket>  (976) 
nan

>  <ATP_Site>  (976) 
nan

>  <Peripheral>  (976) 
nan

>  <Num_H_Atoms_ProtBoundConf>  (976) 
nan

>  <Num_Resolved_Atoms>  (976) 
nan

>  <Num_Not_Resolved_Atoms>  (976) 
nan

$$$$
CHEMBL4547383
     RDKit          3D

  0  0  0  0  0  0  0  0  0  0999 V3000
M  V30 BEGIN CTAB
M  V30 COUNTS 56 61 0 0 0
M  V30 BEGIN ATOM
M  V30 1 C 2.967676 -1.418843 7.127134 0
M  V30 2 N 3.238890 -2.155519 5.912045 0
M  V30 3 C 4.041758 -3.371053 6.048568 0
M  V30 4 C 5.036994 -3.307362 4.884274 0
M  V30 5 O 4.342833 -3.111035 3.655559 0
M  V30 6 C 3.331369 -2.185256 3.516697 0
M  V30 7 C 2.724196 -1.658763 4.687794 0
M  V30 8 C 1.673348 -0.704938 4.630388 0
M  V30 9 N 1.241981 -0.278119 3.378275 0
M  V30 10 N 1.943514 -0.889621 2.348342 0
M  V30 11 C 1.550725 -0.600321 1.096990 0
M  V30 12 C 0.600081 0.068705 0.328815 0
M  V30 13 C 0.302386 1.213374 1.202952 0
M  V30 14 C -0.565639 2.348704 1.159112 0
M  V30 15 C -1.337557 2.378208 -0.040715 0
M  V30 16 C -2.294722 3.354672 -0.315769 0
M  V30 17 C -3.021483 3.255668 -1.486785 0
M  V30 18 C -2.730396 2.188675 -2.286822 0
M  V30 19 C -1.818562 1.187555 -2.114955 0
M  V30 20 N -1.560714 0.069413 -2.904599 0
M  V30 21 C -2.528083 -0.132037 -3.975303 0
M  V30 22 C -3.824195 -0.673254 -3.345029 0
M  V30 23 C -3.475368 -2.034216 -2.695747 0
M  V30 24 C -3.009029 -3.000447 -3.753091 0
M  V30 25 C -2.868144 -2.335439 -5.112617 0
M  V30 26 C -1.961181 -1.133462 -4.940585 0
M  V30 27 C -1.115398 1.313095 -0.945525 0
M  V30 28 N -0.245776 0.684541 -0.296847 0
M  V30 29 N 2.344893 -1.367392 0.218646 0
M  V30 30 N 3.168463 -2.073007 1.027832 0
M  V30 31 C 2.883953 -1.750118 2.279199 0
M  V30 32 H 1.890084 -1.465446 7.410741 0
M  V30 33 H 3.540161 -1.842516 7.984529 0
M  V30 34 H 3.223342 -0.344167 6.977427 0
M  V30 35 H 4.645824 -3.346493 6.959025 0
M  V30 36 H 3.371763 -4.258207 5.961094 0
M  V30 37 H 5.630443 -2.381532 5.044534 0
M  V30 38 H 5.605329 -4.230938 4.792210 0
M  V30 39 H 1.268323 -0.360448 5.584737 0
M  V30 40 H 0.763682 1.517740 2.222220 0
M  V30 41 H -0.740612 3.192860 1.863831 0
M  V30 42 H -2.440791 4.173498 0.404980 0
M  V30 43 H -3.772553 3.986820 -1.741838 0
M  V30 44 H -3.341248 2.143981 -3.199903 0
M  V30 45 H -0.750065 -0.559705 -2.751019 0
M  V30 46 H -2.737854 0.806605 -4.510156 0
M  V30 47 H -4.238839 -0.002114 -2.585886 0
M  V30 48 H -4.542234 -0.864386 -4.141909 0
M  V30 49 H -2.624571 -1.850302 -1.990898 0
M  V30 50 H -4.389033 -2.404352 -2.244138 0
M  V30 51 H -3.691573 -3.877795 -3.863603 0
M  V30 52 H -2.033806 -3.454647 -3.450799 0
M  V30 53 H -3.844674 -2.089251 -5.548526 0
M  V30 54 H -2.381271 -3.031199 -5.792270 0
M  V30 55 H -1.842045 -0.654783 -5.950232 0
M  V30 56 H -0.981089 -1.491496 -4.599541 0
M  V30 END ATOM
M  V30 BEGIN BOND
M  V30 1 1 1 2
M  V30 2 1 2 3
M  V30 3 1 3 4
M  V30 4 1 4 5
M  V30 5 1 5 6
M  V30 6 2 6 7
M  V30 7 1 7 8
M  V30 8 2 8 9
M  V30 9 1 9 10
M  V30 10 1 10 11
M  V30 11 1 11 12
M  V30 12 2 12 13
M  V30 13 1 13 14
M  V30 14 2 14 15
M  V30 15 1 15 16
M  V30 16 2 16 17
M  V30 17 1 17 18
M  V30 18 2 18 19
M  V30 19 1 19 20
M  V30 20 1 20 21
M  V30 21 1 21 22
M  V30 22 1 22 23
M  V30 23 1 23 24
M  V30 24 1 24 25
M  V30 25 1 25 26
M  V30 26 1 19 27
M  V30 27 2 27 28
M  V30 28 2 11 29
M  V30 29 1 29 30
M  V30 30 2 30 31
M  V30 31 1 7 2
M  V30 32 1 31 10
M  V30 33 1 31 6
M  V30 34 1 28 12
M  V30 35 1 27 15
M  V30 36 1 26 21
M  V30 37 1 1 32
M  V30 38 1 1 33
M  V30 39 1 1 34
M  V30 40 1 3 35
M  V30 41 1 3 36
M  V30 42 1 4 37
M  V30 43 1 4 38
M  V30 44 1 8 39
M  V30 45 1 13 40
M  V30 46 1 14 41
M  V30 47 1 16 42
M  V30 48 1 17 43
M  V30 49 1 18 44
M  V30 50 1 20 45
M  V30 51 1 21 46
M  V30 52 1 22 47
M  V30 53 1 22 48
M  V30 54 1 23 49
M  V30 55 1 23 50
M  V30 56 1 24 51
M  V30 57 1 24 52
M  V30 58 1 25 53
M  V30 59 1 25 54
M  V30 60 1 26 55
M  V30 61 1 26 56
M  V30 END BOND
M  V30 END CTAB
M  END
>  <Dataset>  (977) 
ChEMBL_Kinases

>  <Ligand_Instance>  (977) 
nan

>  <PDB_ID>  (977) 
nan

>  <Standardized_SMILES>  (977) 
CN1CCOc2c1cnn1c(-c3ccc4cccc(NC5CCCCC5)c4n3)nnc21

>  <Name>  (977) 
nan

>  <Pocket>  (977) 
nan

>  <ATP_Site>  (977) 
nan

>  <Peripheral>  (977) 
nan

>  <Num_H_Atoms_ProtBoundConf>  (977) 
nan

>  <Num_Resolved_Atoms>  (977) 
nan

>  <Num_Not_Resolved_Atoms>  (977) 
nan

$$$$
CHEMBL4548940
     RDKit          3D

  0  0  0  0  0  0  0  0  0  0999 V3000
M  V30 BEGIN CTAB
M  V30 COUNTS 69 73 0 0 0
M  V30 BEGIN ATOM
M  V30 1 C 4.482589 1.393821 3.445621 0
M  V30 2 C 4.104049 2.605200 2.647779 0
M  V30 3 C 2.907973 2.488389 1.783077 0 CFG=2
M  V30 4 C 2.752498 3.828417 1.074368 0
M  V30 5 O 3.389730 4.929338 1.232276 0
M  V30 6 N 1.716474 3.832438 0.069561 0
M  V30 7 C 1.771213 4.693608 -1.103898 0
M  V30 8 C 0.624265 2.931124 0.305100 0
M  V30 9 C -0.371363 2.944097 -0.666409 0
M  V30 10 N -1.426960 2.125361 -0.502739 0
M  V30 11 C -1.486913 1.335193 0.571898 0
M  V30 12 N -2.488357 0.394465 0.968690 0
M  V30 13 C -2.504520 -0.925884 0.396576 0
M  V30 14 C -1.546973 -1.222087 -0.579558 0
M  V30 15 C -1.481031 -2.445109 -1.204214 0
M  V30 16 C -2.372006 -3.447724 -0.888541 0
M  V30 17 C -2.471793 -4.787503 -1.460629 0
M  V30 18 O -3.206873 -5.714478 -1.018860 0
M  V30 19 N -1.739726 -5.208249 -2.605185 0
M  V30 20 C -1.848996 -6.541335 -3.157192 0
M  V30 21 C -0.494407 -7.142830 -3.419879 0
M  V30 22 C -0.804172 -8.254763 -4.398376 0
M  V30 23 C -2.208756 -7.969415 -4.947373 0
M  V30 24 C -2.429956 -6.491600 -4.577383 0
M  V30 25 C -3.320808 -3.165259 0.074644 0
M  V30 26 C -3.397209 -1.945416 0.706871 0
M  V30 27 O -4.341935 -1.647589 1.673285 0
M  V30 28 N -0.502406 1.376829 1.454789 0
M  V30 29 C 0.592159 2.117080 1.442292 0
M  V30 30 N 1.651674 2.153330 2.421415 0
M  V30 31 C 1.289672 1.915496 3.759684 0
M  V30 32 C 1.362882 3.164557 4.634987 0
M  V30 33 C -0.060710 3.705767 4.556967 0
M  V30 34 C -0.949721 2.514648 4.366279 0
M  V30 35 C -0.021597 1.328772 4.105354 0
M  V30 36 H 5.602767 1.192854 3.376737 0
M  V30 37 H 4.346910 1.618620 4.534367 0
M  V30 38 H 4.001088 0.461296 3.146977 0
M  V30 39 H 4.162136 3.549295 3.261025 0
M  V30 40 H 4.979045 2.755806 1.927249 0
M  V30 41 H 3.157182 1.717538 1.001074 0
M  V30 42 H 1.626102 4.036769 -1.990556 0
M  V30 43 H 1.036355 5.515699 -1.054672 0
M  V30 44 H 2.793272 5.164885 -1.129351 0
M  V30 45 H -0.308402 3.587209 -1.530216 0
M  V30 46 H -3.264459 0.523765 1.657000 0
M  V30 47 H -0.826065 -0.455120 -0.853959 0
M  V30 48 H -0.758062 -2.716534 -1.960222 0
M  V30 49 H -1.087874 -4.536627 -3.082764 0
M  V30 50 H -2.457580 -7.202376 -2.535192 0
M  V30 51 H -0.013261 -7.530499 -2.496973 0
M  V30 52 H 0.148783 -6.418501 -3.970501 0
M  V30 53 H -0.853216 -9.230784 -3.843138 0
M  V30 54 H -0.088145 -8.304582 -5.241116 0
M  V30 55 H -2.958177 -8.541106 -4.342476 0
M  V30 56 H -2.295440 -8.151761 -6.016425 0
M  V30 57 H -3.484427 -6.231910 -4.606985 0
M  V30 58 H -1.748989 -5.888813 -5.196970 0
M  V30 59 H -4.070522 -3.888712 0.397277 0
M  V30 60 H -4.872007 -0.787489 1.658982 0
M  V30 61 H 2.064540 1.225867 4.216821 0
M  V30 62 H 1.513039 2.837952 5.683622 0
M  V30 63 H 2.087804 3.902269 4.310144 0
M  V30 64 H -0.250620 4.267938 5.493063 0
M  V30 65 H -0.123209 4.436009 3.729192 0
M  V30 66 H -1.510540 2.405329 5.336265 0
M  V30 67 H -1.735247 2.630248 3.608591 0
M  V30 68 H -0.433666 0.535698 3.507857 0
M  V30 69 H 0.061733 0.845302 5.148322 0
M  V30 END ATOM
M  V30 BEGIN BOND
M  V30 1 1 1 2
M  V30 2 1 2 3
M  V30 3 1 3 4
M  V30 4 2 4 5
M  V30 5 1 4 6
M  V30 6 1 6 7
M  V30 7 1 6 8
M  V30 8 2 8 9
M  V30 9 1 9 10
M  V30 10 2 10 11
M  V30 11 1 11 12
M  V30 12 1 12 13
M  V30 13 2 13 14
M  V30 14 1 14 15
M  V30 15 2 15 16
M  V30 16 1 16 17
M  V30 17 2 17 18
M  V30 18 1 17 19
M  V30 19 1 19 20
M  V30 20 1 20 21
M  V30 21 1 21 22
M  V30 22 1 22 23
M  V30 23 1 23 24
M  V30 24 1 16 25
M  V30 25 2 25 26
M  V30 26 1 26 27
M  V30 27 1 11 28
M  V30 28 2 28 29
M  V30 29 1 29 30
M  V30 30 1 30 31
M  V30 31 1 31 32
M  V30 32 1 32 33
M  V30 33 1 33 34
M  V30 34 1 34 35
M  V30 35 1 30 3
M  V30 36 1 35 31
M  V30 37 1 29 8
M  V30 38 1 26 13
M  V30 39 1 24 20
M  V30 40 1 1 36
M  V30 41 1 1 37
M  V30 42 1 1 38
M  V30 43 1 2 39
M  V30 44 1 2 40
M  V30 45 1 3 41 CFG=3
M  V30 46 1 7 42
M  V30 47 1 7 43
M  V30 48 1 7 44
M  V30 49 1 9 45
M  V30 50 1 12 46
M  V30 51 1 14 47
M  V30 52 1 15 48
M  V30 53 1 19 49
M  V30 54 1 20 50
M  V30 55 1 21 51
M  V30 56 1 21 52
M  V30 57 1 22 53
M  V30 58 1 22 54
M  V30 59 1 23 55
M  V30 60 1 23 56
M  V30 61 1 24 57
M  V30 62 1 24 58
M  V30 63 1 25 59
M  V30 64 1 27 60
M  V30 65 1 31 61
M  V30 66 1 32 62
M  V30 67 1 32 63
M  V30 68 1 33 64
M  V30 69 1 33 65
M  V30 70 1 34 66
M  V30 71 1 34 67
M  V30 72 1 35 68
M  V30 73 1 35 69
M  V30 END BOND
M  V30 END CTAB
M  END
>  <Dataset>  (978) 
ChEMBL_Kinases

>  <Ligand_Instance>  (978) 
nan

>  <PDB_ID>  (978) 
nan

>  <Standardized_SMILES>  (978) 
CC[C@@H]1C(=O)N(C)c2cnc(Nc3ccc(C(=O)NC4CCCC4)cc3O)nc2N1C1CCCC1

>  <Name>  (978) 
nan

>  <Pocket>  (978) 
nan

>  <ATP_Site>  (978) 
nan

>  <Peripheral>  (978) 
nan

>  <Num_H_Atoms_ProtBoundConf>  (978) 
nan

>  <Num_Resolved_Atoms>  (978) 
nan

>  <Num_Not_Resolved_Atoms>  (978) 
nan

$$$$
CHEMBL4639395
     RDKit          3D

  0  0  0  0  0  0  0  0  0  0999 V3000
M  V30 BEGIN CTAB
M  V30 COUNTS 66 70 0 0 0
M  V30 BEGIN ATOM
M  V30 1 C 3.225621 -4.949327 -1.297165 0
M  V30 2 O 2.807846 -3.813699 -0.574050 0
M  V30 3 C 2.012947 -2.822949 -1.079176 0
M  V30 4 C 1.552786 -2.872542 -2.376133 0
M  V30 5 C 0.750696 -1.903525 -2.936919 0
M  V30 6 N 0.261272 -1.924687 -4.270455 0
M  V30 7 C -0.598413 -0.970272 -4.899369 0
M  V30 8 C -1.740942 -1.553952 -5.678039 0
M  V30 9 N -1.872915 -2.971632 -5.618779 0
M  V30 10 C -2.835844 -3.440032 -4.661547 0
M  V30 11 C -0.658136 -3.710006 -5.695439 0
M  V30 12 C 0.557024 -2.940657 -5.244602 0
M  V30 13 C 0.431881 -0.859306 -2.098079 0
M  V30 14 C 0.877279 -0.780804 -0.793268 0
M  V30 15 C 1.680065 -1.766278 -0.257132 0
M  V30 16 N 2.145389 -1.699248 1.085164 0
M  V30 17 C 1.763289 -0.584293 1.879550 0
M  V30 18 N 2.446946 0.591750 1.999180 0
M  V30 19 C 1.982882 1.582349 2.785213 0
M  V30 20 C 0.811495 1.468279 3.501736 0
M  V30 21 C 0.157901 0.264530 3.348895 0
M  V30 22 N 0.620594 -0.724835 2.564410 0
M  V30 23 N -1.064076 -0.115872 3.969006 0
M  V30 24 C -1.350100 -1.546574 4.017863 0
M  V30 25 C -2.033728 0.752467 4.543921 0
M  V30 26 C -3.261405 0.133247 4.625991 0
M  V30 27 C -4.292877 0.858178 5.162627 0
M  V30 28 C -4.202979 2.154499 5.626472 0
M  V30 29 C -2.957755 2.759849 5.534664 0
M  V30 30 C -1.905346 2.048783 4.997906 0
M  V30 31 C -0.652726 2.803828 4.959706 0
M  V30 32 O -0.668831 3.805183 5.751783 0
M  V30 33 N 0.591914 2.669584 4.229153 0
M  V30 34 C 1.539736 3.724740 4.263647 0
M  V30 35 C 2.554705 3.642708 5.376400 0
M  V30 36 F 3.334118 2.506654 5.358327 0
M  V30 37 F 3.308192 4.800884 5.466230 0
M  V30 38 F 1.915141 3.595967 6.627148 0
M  V30 39 H 2.320337 -5.591322 -1.412882 0
M  V30 40 H 3.541838 -4.698112 -2.351770 0
M  V30 41 H 4.081373 -5.459483 -0.846155 0
M  V30 42 H 1.853499 -3.725792 -2.950919 0
M  V30 43 H -0.922293 -0.181308 -4.196684 0
M  V30 44 H 0.052055 -0.419938 -5.643099 0
M  V30 45 H -1.732999 -1.239065 -6.741465 0
M  V30 46 H -2.680983 -1.114199 -5.262651 0
M  V30 47 H -3.742285 -2.793154 -4.798558 0
M  V30 48 H -3.144153 -4.458529 -4.943133 0
M  V30 49 H -2.525849 -3.311136 -3.616013 0
M  V30 50 H -0.495042 -4.023395 -6.743323 0
M  V30 51 H -0.764581 -4.613576 -5.065481 0
M  V30 52 H 1.359065 -3.613937 -4.880460 0
M  V30 53 H 1.033948 -2.420382 -6.128778 0
M  V30 54 H -0.176012 -0.019880 -2.356464 0
M  V30 55 H 0.636460 0.038090 -0.110871 0
M  V30 56 H 2.750262 -2.470234 1.439268 0
M  V30 57 H 2.583547 2.442490 2.806807 0
M  V30 58 H -1.927345 -1.917231 3.170748 0
M  V30 59 H -1.741489 -1.860159 5.023743 0
M  V30 60 H -0.348460 -2.053955 3.965999 0
M  V30 61 H -3.363420 -0.882872 4.270344 0
M  V30 62 H -5.275420 0.364385 5.228896 0
M  V30 63 H -5.048706 2.688367 6.043768 0
M  V30 64 H -2.786850 3.772924 5.871271 0
M  V30 65 H 0.899395 4.613785 4.626125 0
M  V30 66 H 1.887246 4.160330 3.324135 0
M  V30 END ATOM
M  V30 BEGIN BOND
M  V30 1 1 1 2
M  V30 2 1 2 3
M  V30 3 2 3 4
M  V30 4 1 4 5
M  V30 5 1 5 6
M  V30 6 1 6 7
M  V30 7 1 7 8
M  V30 8 1 8 9
M  V30 9 1 9 10
M  V30 10 1 9 11
M  V30 11 1 11 12
M  V30 12 2 5 13
M  V30 13 1 13 14
M  V30 14 2 14 15
M  V30 15 1 15 16
M  V30 16 1 16 17
M  V30 17 2 17 18
M  V30 18 1 18 19
M  V30 19 2 19 20
M  V30 20 1 20 21
M  V30 21 2 21 22
M  V30 22 1 21 23
M  V30 23 1 23 24
M  V30 24 1 23 25
M  V30 25 2 25 26
M  V30 26 1 26 27
M  V30 27 2 27 28
M  V30 28 1 28 29
M  V30 29 2 29 30
M  V30 30 1 30 31
M  V30 31 2 31 32
M  V30 32 1 31 33
M  V30 33 1 33 34
M  V30 34 1 34 35
M  V30 35 1 35 36
M  V30 36 1 35 37
M  V30 37 1 35 38
M  V30 38 1 15 3
M  V30 39 1 22 17
M  V30 40 1 30 25
M  V30 41 1 12 6
M  V30 42 1 33 20
M  V30 43 1 1 39
M  V30 44 1 1 40
M  V30 45 1 1 41
M  V30 46 1 4 42
M  V30 47 1 7 43
M  V30 48 1 7 44
M  V30 49 1 8 45
M  V30 50 1 8 46
M  V30 51 1 10 47
M  V30 52 1 10 48
M  V30 53 1 10 49
M  V30 54 1 11 50
M  V30 55 1 11 51
M  V30 56 1 12 52
M  V30 57 1 12 53
M  V30 58 1 13 54
M  V30 59 1 14 55
M  V30 60 1 16 56
M  V30 61 1 19 57
M  V30 62 1 24 58
M  V30 63 1 24 59
M  V30 64 1 24 60
M  V30 65 1 26 61
M  V30 66 1 27 62
M  V30 67 1 28 63
M  V30 68 1 29 64
M  V30 69 1 34 65
M  V30 70 1 34 66
M  V30 END BOND
M  V30 END CTAB
M  END
>  <Dataset>  (979) 
ChEMBL_Kinases

>  <Ligand_Instance>  (979) 
nan

>  <PDB_ID>  (979) 
nan

>  <Standardized_SMILES>  (979) 
COc1cc(N2CCN(C)CC2)ccc1Nc1ncc2c(n1)N(C)c1ccccc1C(=O)N2CC(F)(F)F

>  <Name>  (979) 
nan

>  <Pocket>  (979) 
nan

>  <ATP_Site>  (979) 
nan

>  <Peripheral>  (979) 
nan

>  <Num_H_Atoms_ProtBoundConf>  (979) 
nan

>  <Num_Resolved_Atoms>  (979) 
nan

>  <Num_Not_Resolved_Atoms>  (979) 
nan

$$$$
CHEMBL4539742
     RDKit          3D

  0  0  0  0  0  0  0  0  0  0999 V3000
M  V30 BEGIN CTAB
M  V30 COUNTS 40 43 0 0 0
M  V30 BEGIN ATOM
M  V30 1 C 0.881964 -4.470978 3.744497 0
M  V30 2 O 1.844539 -3.979360 2.824323 0
M  V30 3 C 1.523593 -3.057557 1.846940 0
M  V30 4 C 2.445037 -2.569466 0.945537 0
M  V30 5 C 2.110251 -1.650586 -0.023476 0
M  V30 6 C 0.800800 -1.164270 -0.138049 0
M  V30 7 C 0.249872 -0.227471 -1.101992 0
M  V30 8 C -0.125032 -0.786570 -2.329795 0
M  V30 9 N -0.610841 0.197704 -3.142286 0
M  V30 10 C -0.551683 1.355454 -2.459827 0
M  V30 11 N -0.867363 2.628462 -2.658743 0
M  V30 12 C -0.722580 3.631599 -1.785402 0
M  V30 13 C -0.193904 3.344315 -0.544250 0
M  V30 14 C 0.175561 2.036535 -0.224821 0
M  V30 15 C 0.754898 1.783539 1.067427 0
M  V30 16 C 1.915186 1.286368 1.553435 0
M  V30 17 C 2.191632 1.124150 2.923545 0
M  V30 18 S 0.612211 1.749510 3.760942 0
M  V30 19 C -0.279265 2.174935 2.149659 0
M  V30 20 C -0.026566 1.108067 -1.210383 0
M  V30 21 C -0.173612 -1.631150 0.756856 0
M  V30 22 O -1.490348 -1.227543 0.742629 0
M  V30 23 C -2.402183 -1.750708 1.682103 0
M  V30 24 C 0.244693 -2.562819 1.711630 0
M  V30 25 H 0.531514 -3.688709 4.437080 0
M  V30 26 H -0.008884 -4.787246 3.130527 0
M  V30 27 H 1.227852 -5.399307 4.224157 0
M  V30 28 H 3.472731 -2.900937 0.976031 0
M  V30 29 H 2.748720 -1.221719 -0.755254 0
M  V30 30 H -0.103372 -1.808520 -2.739109 0
M  V30 31 H -0.974654 0.130107 -4.118267 0
M  V30 32 H -1.027353 4.613415 -2.098397 0
M  V30 33 H -0.077791 4.151202 0.158943 0
M  V30 34 H 2.584127 1.049225 0.745872 0
M  V30 35 H 3.176532 0.706268 3.202213 0
M  V30 36 H -1.265292 2.584795 2.121821 0
M  V30 37 H -2.497583 -2.859974 1.604919 0
M  V30 38 H -3.391269 -1.260069 1.602495 0
M  V30 39 H -1.992153 -1.558947 2.700069 0
M  V30 40 H -0.506504 -2.940194 2.422229 0
M  V30 END ATOM
M  V30 BEGIN BOND
M  V30 1 1 1 2
M  V30 2 1 2 3
M  V30 3 2 3 4
M  V30 4 1 4 5
M  V30 5 2 5 6
M  V30 6 1 6 7
M  V30 7 2 7 8
M  V30 8 1 8 9
M  V30 9 1 9 10
M  V30 10 2 10 11
M  V30 11 1 11 12
M  V30 12 2 12 13
M  V30 13 1 13 14
M  V30 14 1 14 15
M  V30 15 1 15 16
M  V30 16 2 16 17
M  V30 17 1 17 18
M  V30 18 1 18 19
M  V30 19 2 14 20
M  V30 20 1 6 21
M  V30 21 1 21 22
M  V30 22 1 22 23
M  V30 23 2 21 24
M  V30 24 1 24 3
M  V30 25 1 20 7
M  V30 26 1 20 10
M  V30 27 2 19 15
M  V30 28 1 1 25
M  V30 29 1 1 26
M  V30 30 1 1 27
M  V30 31 1 4 28
M  V30 32 1 5 29
M  V30 33 1 8 30
M  V30 34 1 9 31
M  V30 35 1 12 32
M  V30 36 1 13 33
M  V30 37 1 16 34
M  V30 38 1 17 35
M  V30 39 1 19 36
M  V30 40 1 23 37
M  V30 41 1 23 38
M  V30 42 1 23 39
M  V30 43 1 24 40
M  V30 END BOND
M  V30 END CTAB
M  END
>  <Dataset>  (980) 
ChEMBL_Kinases

>  <Ligand_Instance>  (980) 
nan

>  <PDB_ID>  (980) 
nan

>  <Standardized_SMILES>  (980) 
COc1ccc(-c2c[nH]c3nccc(-c4ccsc4)c23)c(OC)c1

>  <Name>  (980) 
nan

>  <Pocket>  (980) 
nan

>  <ATP_Site>  (980) 
nan

>  <Peripheral>  (980) 
nan

>  <Num_H_Atoms_ProtBoundConf>  (980) 
nan

>  <Num_Resolved_Atoms>  (980) 
nan

>  <Num_Not_Resolved_Atoms>  (980) 
nan

$$$$
CHEMBL2177371
     RDKit          3D

  0  0  0  0  0  0  0  0  0  0999 V3000
M  V30 BEGIN CTAB
M  V30 COUNTS 58 61 0 0 0
M  V30 BEGIN ATOM
M  V30 1 C 0.635811 0.855035 3.281405 0
M  V30 2 C 1.431472 -0.057667 2.411855 0 CFG=2
M  V30 3 C 1.957599 -1.254734 3.215906 0
M  V30 4 C 3.262311 -0.720388 3.790262 0 CFG=1
M  V30 5 O 4.166835 -1.736127 4.047879 0
M  V30 6 C 3.719370 0.170302 2.686246 0
M  V30 7 N 4.981648 0.606972 2.411300 0
M  V30 8 C 5.244039 1.418983 1.364545 0
M  V30 9 N 4.214960 1.811676 0.561396 0
M  V30 10 C 2.943305 1.389531 0.813991 0
M  V30 11 N 1.911244 1.833905 -0.061683 0
M  V30 12 C 0.694699 2.601022 0.125189 0
M  V30 13 C -0.554176 1.871422 -0.287088 0
M  V30 14 N -0.241033 0.802029 -1.183228 0
M  V30 15 C -0.954093 -0.395196 -0.961196 0
M  V30 16 O -1.744626 -0.278947 0.011411 0
M  V30 17 C -1.058176 -1.762390 -1.528663 0 CFG=2
M  V30 18 C -1.619419 -1.598921 -2.947524 0
M  V30 19 N -1.755529 -2.894825 -3.582750 0
M  V30 20 C -2.062552 -2.551267 -0.747570 0
M  V30 21 C -3.308926 -1.965425 -0.681636 0
M  V30 22 C -4.358713 -2.563218 0.003876 0
M  V30 23 C -4.156386 -3.779561 0.640483 0
M  V30 24 C -5.125038 -4.577618 1.415349 0
M  V30 25 F -4.493941 -5.193911 2.504579 0
M  V30 26 F -5.634996 -5.588680 0.620058 0
M  V30 27 F -6.168168 -3.792048 1.888275 0
M  V30 28 C -2.891017 -4.363829 0.567497 0
M  V30 29 C -1.863580 -3.754656 -0.117339 0
M  V30 30 C 0.764089 1.178576 -2.151503 0
M  V30 31 C 2.073973 1.460141 -1.453683 0
M  V30 32 C 2.664466 0.561240 1.878912 0
M  V30 33 H 1.202991 1.652334 3.781382 0
M  V30 34 H -0.245730 1.207578 2.743103 0
M  V30 35 H 0.224512 0.214598 4.115882 0
M  V30 36 H 0.772783 -0.458248 1.617537 0
M  V30 37 H 1.260868 -1.579540 3.990477 0
M  V30 38 H 2.224396 -2.104830 2.564674 0
M  V30 39 H 3.026012 -0.087043 4.649745 0
M  V30 40 H 4.789456 -1.466514 4.782766 0
M  V30 41 H 6.236126 1.778449 1.126236 0
M  V30 42 H 0.618368 2.881699 1.204947 0
M  V30 43 H 0.833684 3.566446 -0.407738 0
M  V30 44 H -1.189254 1.588571 0.570888 0
M  V30 45 H -1.171722 2.619624 -0.867391 0
M  V30 46 H -0.121850 -2.321560 -1.513706 0
M  V30 47 H -2.619905 -1.142163 -2.870166 0
M  V30 48 H -0.995061 -0.913538 -3.552455 0
M  V30 49 H -1.162742 -2.928171 -4.437378 0
M  V30 50 H -2.760715 -3.081591 -3.857248 0
M  V30 51 H -3.652055 -1.021559 -1.115363 0
M  V30 52 H -5.362636 -2.179082 0.107579 0
M  V30 53 H -2.620194 -5.306671 1.024000 0
M  V30 54 H -0.874327 -4.160392 -0.203903 0
M  V30 55 H 0.891309 0.444078 -2.974040 0
M  V30 56 H 0.426476 2.120124 -2.629655 0
M  V30 57 H 2.718545 0.579142 -1.578331 0
M  V30 58 H 2.619820 2.328977 -1.921130 0
M  V30 END ATOM
M  V30 BEGIN BOND
M  V30 1 1 1 2
M  V30 2 1 2 3
M  V30 3 1 3 4
M  V30 4 1 4 5
M  V30 5 1 4 6
M  V30 6 2 6 7
M  V30 7 1 7 8
M  V30 8 2 8 9
M  V30 9 1 9 10
M  V30 10 1 10 11
M  V30 11 1 11 12
M  V30 12 1 12 13
M  V30 13 1 13 14
M  V30 14 1 14 15
M  V30 15 2 15 16
M  V30 16 1 15 17
M  V30 17 1 17 18
M  V30 18 1 18 19
M  V30 19 1 17 20
M  V30 20 2 20 21
M  V30 21 1 21 22
M  V30 22 2 22 23
M  V30 23 1 23 24
M  V30 24 1 24 25
M  V30 25 1 24 26
M  V30 26 1 24 27
M  V30 27 1 23 28
M  V30 28 2 28 29
M  V30 29 1 14 30
M  V30 30 1 30 31
M  V30 31 2 10 32
M  V30 32 1 32 2
M  V30 33 1 32 6
M  V30 34 1 31 11
M  V30 35 1 29 20
M  V30 36 1 1 33
M  V30 37 1 1 34
M  V30 38 1 1 35
M  V30 39 1 2 36 CFG=3
M  V30 40 1 3 37
M  V30 41 1 3 38
M  V30 42 1 4 39 CFG=1
M  V30 43 1 5 40
M  V30 44 1 8 41
M  V30 45 1 12 42
M  V30 46 1 12 43
M  V30 47 1 13 44
M  V30 48 1 13 45
M  V30 49 1 17 46 CFG=3
M  V30 50 1 18 47
M  V30 51 1 18 48
M  V30 52 1 19 49
M  V30 53 1 19 50
M  V30 54 1 21 51
M  V30 55 1 22 52
M  V30 56 1 28 53
M  V30 57 1 29 54
M  V30 58 1 30 55
M  V30 59 1 30 56
M  V30 60 1 31 57
M  V30 61 1 31 58
M  V30 END BOND
M  V30 END CTAB
M  END
>  <Dataset>  (981) 
ChEMBL_Kinases

>  <Ligand_Instance>  (981) 
nan

>  <PDB_ID>  (981) 
nan

>  <Standardized_SMILES>  (981) 
C[C@@H]1C[C@@H](O)c2ncnc(N3CCN(C(=O)[C@H](CN)c4ccc(C(F)(F)F)cc4)CC3)c21

>  <Name>  (981) 
nan

>  <Pocket>  (981) 
nan

>  <ATP_Site>  (981) 
nan

>  <Peripheral>  (981) 
nan

>  <Num_H_Atoms_ProtBoundConf>  (981) 
nan

>  <Num_Resolved_Atoms>  (981) 
nan

>  <Num_Not_Resolved_Atoms>  (981) 
nan

$$$$
CHEMBL2177370
     RDKit          3D

  0  0  0  0  0  0  0  0  0  0999 V3000
M  V30 BEGIN CTAB
M  V30 COUNTS 63 67 0 0 0
M  V30 BEGIN ATOM
M  V30 1 C 3.422361 3.522321 1.745457 0
M  V30 2 C 3.129667 2.153711 2.331032 0 CFG=2
M  V30 3 C 4.467759 1.579634 2.756789 0
M  V30 4 C 5.097566 1.380209 1.375338 0 CFG=1
M  V30 5 O 6.172775 0.513671 1.410370 0
M  V30 6 C 3.945995 0.781933 0.619510 0
M  V30 7 N 3.886480 -0.060995 -0.435505 0
M  V30 8 C 2.682395 -0.453055 -0.933694 0
M  V30 9 N 1.566844 0.020042 -0.348915 0
M  V30 10 C 1.587292 0.863452 0.706473 0
M  V30 11 N 0.343756 1.294695 1.237803 0
M  V30 12 C -0.211921 1.141117 2.544440 0
M  V30 13 C -1.392732 0.151801 2.581376 0
M  V30 14 N -1.969077 0.253477 1.256220 0
M  V30 15 C -2.513248 -0.676558 0.341764 0
M  V30 16 O -2.082637 -1.052296 1.455054 0
M  V30 17 C -3.051642 -1.742684 -0.511928 0 CFG=1
M  V30 18 C -2.341215 -1.867907 -1.810015 0
M  V30 19 C -2.934588 -1.821365 -3.076419 0
M  V30 20 C -2.148593 -1.952420 -4.209181 0
M  V30 21 C -0.774641 -2.130849 -4.138799 0
M  V30 22 Cl 0.207861 -2.295507 -5.585308 0
M  V30 23 C -0.236001 -2.170413 -2.882068 0
M  V30 24 C -0.959466 -2.046470 -1.704398 0
M  V30 25 C -2.904643 -3.098638 0.142566 0 CFG=2
M  V30 26 C -3.459064 -4.198759 -0.735964 0
M  V30 27 O -3.715093 -5.293428 0.066711 0
M  V30 28 C -2.869563 -5.392900 1.159442 0
M  V30 29 C -3.159350 -4.279155 2.161276 0
M  V30 30 N -3.669212 -3.176202 1.381964 0
M  V30 31 C -2.025812 1.613381 0.691169 0
M  V30 32 C -0.603718 2.031407 0.381694 0
M  V30 33 C 2.798488 1.264778 1.216336 0
M  V30 34 H 2.622269 4.236253 1.993131 0
M  V30 35 H 4.382266 3.926462 2.171974 0
M  V30 36 H 3.607815 3.468572 0.642090 0
M  V30 37 H 2.390461 2.259124 3.104241 0
M  V30 38 H 5.065244 2.250075 3.374694 0
M  V30 39 H 4.378676 0.548602 3.175924 0
M  V30 40 H 5.302138 2.351460 0.909057 0
M  V30 41 H 5.901872 -0.377643 1.110656 0
M  V30 42 H 2.667671 -1.128010 -1.778221 0
M  V30 43 H -0.654930 2.107853 2.926217 0
M  V30 44 H 0.512846 0.729393 3.284011 0
M  V30 45 H -2.113619 0.454887 3.368617 0
M  V30 46 H -1.012149 -0.846505 2.856210 0
M  V30 47 H -4.140930 -1.602384 -0.697131 0
M  V30 48 H -3.998716 -1.682033 -3.087289 0
M  V30 49 H -2.627943 -1.913629 -5.184464 0
M  V30 50 H 0.852607 -2.312623 -2.864702 0
M  V30 51 H -0.421617 -2.093705 -0.760278 0
M  V30 52 H -1.848362 -3.304994 0.416228 0
M  V30 53 H -4.452028 -3.802132 -1.095893 0
M  V30 54 H -2.752824 -4.391426 -1.544447 0
M  V30 55 H -1.826398 -5.332754 0.827952 0
M  V30 56 H -3.019832 -6.391367 1.617624 0
M  V30 57 H -2.195267 -3.993537 2.651337 0
M  V30 58 H -3.876754 -4.613677 2.944229 0
M  V30 59 H -4.691691 -3.295053 1.211980 0
M  V30 60 H -2.362282 2.260885 1.547324 0
M  V30 61 H -2.743836 1.757829 -0.092452 0
M  V30 62 H -0.439999 3.129817 0.496509 0
M  V30 63 H -0.447177 1.811665 -0.695427 0
M  V30 END ATOM
M  V30 BEGIN BOND
M  V30 1 1 1 2
M  V30 2 1 2 3
M  V30 3 1 3 4
M  V30 4 1 4 5
M  V30 5 1 4 6
M  V30 6 2 6 7
M  V30 7 1 7 8
M  V30 8 2 8 9
M  V30 9 1 9 10
M  V30 10 1 10 11
M  V30 11 1 11 12
M  V30 12 1 12 13
M  V30 13 1 13 14
M  V30 14 1 14 15
M  V30 15 2 15 16
M  V30 16 1 15 17
M  V30 17 1 17 18
M  V30 18 2 18 19
M  V30 19 1 19 20
M  V30 20 2 20 21
M  V30 21 1 21 22
M  V30 22 1 21 23
M  V30 23 2 23 24
M  V30 24 1 17 25
M  V30 25 1 25 26
M  V30 26 1 26 27
M  V30 27 1 27 28
M  V30 28 1 28 29
M  V30 29 1 29 30
M  V30 30 1 14 31
M  V30 31 1 31 32
M  V30 32 2 10 33
M  V30 33 1 33 2
M  V30 34 1 33 6
M  V30 35 1 32 11
M  V30 36 1 24 18
M  V30 37 1 30 25
M  V30 38 1 1 34
M  V30 39 1 1 35
M  V30 40 1 1 36
M  V30 41 1 2 37 CFG=1
M  V30 42 1 3 38
M  V30 43 1 3 39
M  V30 44 1 4 40 CFG=3
M  V30 45 1 5 41
M  V30 46 1 8 42
M  V30 47 1 12 43
M  V30 48 1 12 44
M  V30 49 1 13 45
M  V30 50 1 13 46
M  V30 51 1 17 47 CFG=3
M  V30 52 1 19 48
M  V30 53 1 20 49
M  V30 54 1 23 50
M  V30 55 1 24 51
M  V30 56 1 25 52 CFG=1
M  V30 57 1 26 53
M  V30 58 1 26 54
M  V30 59 1 28 55
M  V30 60 1 28 56
M  V30 61 1 29 57
M  V30 62 1 29 58
M  V30 63 1 30 59
M  V30 64 1 31 60
M  V30 65 1 31 61
M  V30 66 1 32 62
M  V30 67 1 32 63
M  V30 END BOND
M  V30 END CTAB
M  END
>  <Dataset>  (982) 
ChEMBL_Kinases

>  <Ligand_Instance>  (982) 
nan

>  <PDB_ID>  (982) 
nan

>  <Standardized_SMILES>  (982) 
C[C@@H]1C[C@@H](O)c2ncnc(N3CCN(C(=O)[C@@H](c4ccc(Cl)cc4)[C@@H]4COCCN4)CC3)c21

>  <Name>  (982) 
nan

>  <Pocket>  (982) 
nan

>  <ATP_Site>  (982) 
nan

>  <Peripheral>  (982) 
nan

>  <Num_H_Atoms_ProtBoundConf>  (982) 
nan

>  <Num_Resolved_Atoms>  (982) 
nan

>  <Num_Not_Resolved_Atoms>  (982) 
nan

$$$$
CHEMBL2177369
     RDKit          3D

  0  0  0  0  0  0  0  0  0  0999 V3000
M  V30 BEGIN CTAB
M  V30 COUNTS 65 69 0 0 0
M  V30 BEGIN ATOM
M  V30 1 C 2.661563 2.347953 3.785144 0
M  V30 2 C 2.067723 1.039279 3.277396 0 CFG=2
M  V30 3 C 2.665744 -0.016334 4.232490 0
M  V30 4 C 3.923649 -0.445011 3.554549 0 CFG=1
M  V30 5 O 4.135315 -1.794459 3.860200 0
M  V30 6 C 3.688602 -0.208317 2.128098 0
M  V30 7 N 4.351255 -0.702237 1.072199 0
M  V30 8 C 3.963145 -0.347565 -0.170032 0
M  V30 9 N 2.935477 0.480860 -0.295621 0
M  V30 10 C 2.214628 1.023805 0.701564 0
M  V30 11 N 1.161979 1.897963 0.349138 0
M  V30 12 C 0.841579 2.078673 -1.081112 0
M  V30 13 C -0.403900 1.291795 -1.350521 0
M  V30 14 N -1.273745 1.207448 -0.165346 0
M  V30 15 C -2.162965 0.200684 0.325064 0
M  V30 16 O -2.719403 0.542313 1.445903 0
M  V30 17 C -2.549742 -1.113237 -0.197131 0 CFG=1
M  V30 18 C -3.246777 -1.183718 -1.466387 0
M  V30 19 C -4.623852 -1.464297 -1.486766 0
M  V30 20 C -5.406803 -1.565073 -2.629092 0
M  V30 21 C -4.800605 -1.377506 -3.853435 0
M  V30 22 Cl -5.734992 -1.491902 -5.318248 0
M  V30 23 C -3.465847 -1.101036 -3.924945 0
M  V30 24 C -2.763020 -1.018766 -2.744736 0
M  V30 25 C -1.392652 -2.118727 -0.084906 0 CFG=2
M  V30 26 C -1.950018 -3.412596 -0.660988 0
M  V30 27 C -0.782474 -4.379540 -0.777679 0
M  V30 28 C -0.126403 -4.461174 0.576711 0
M  V30 29 C -0.883090 -3.664197 1.604814 0
M  V30 30 N -1.000985 -2.260518 1.277602 0
M  V30 31 C -1.120083 2.461868 0.560207 0
M  V30 32 C 0.263023 2.720803 1.071451 0
M  V30 33 C 2.605216 0.665287 1.975111 0
M  V30 34 H 2.563818 3.153645 3.026582 0
M  V30 35 H 3.757646 2.165232 3.914312 0
M  V30 36 H 2.237675 2.599144 4.755439 0
M  V30 37 H 0.995348 0.934329 3.428072 0
M  V30 38 H 2.834079 0.431335 5.224001 0
M  V30 39 H 1.949578 -0.859711 4.388609 0
M  V30 40 H 4.763407 0.167560 3.945293 0
M  V30 41 H 3.741346 -2.319611 3.118091 0
M  V30 42 H 4.467179 -0.720778 -1.054336 0
M  V30 43 H 0.695407 3.134509 -1.351487 0
M  V30 44 H 1.713536 1.726549 -1.672750 0
M  V30 45 H -1.006038 1.707551 -2.183234 0
M  V30 46 H -0.019956 0.291529 -1.632266 0
M  V30 47 H -3.293033 -1.547661 0.546400 0
M  V30 48 H -5.185241 -1.627674 -0.554269 0
M  V30 49 H -6.462732 -1.784347 -2.569477 0
M  V30 50 H -2.977463 -0.951618 -4.875138 0
M  V30 51 H -1.710015 -0.804704 -2.842639 0
M  V30 52 H -0.512069 -1.827058 -0.664384 0
M  V30 53 H -2.783153 -3.821128 -0.064662 0
M  V30 54 H -2.380068 -3.208202 -1.679141 0
M  V30 55 H -0.079528 -3.915649 -1.518335 0
M  V30 56 H -1.099897 -5.372126 -1.164978 0
M  V30 57 H -0.052473 -5.500951 0.950610 0
M  V30 58 H 0.916992 -4.075954 0.524700 0
M  V30 59 H -0.336522 -3.797244 2.575994 0
M  V30 60 H -1.911838 -4.073777 1.743202 0
M  V30 61 H -0.053905 -1.835290 1.473434 0
M  V30 62 H -1.835232 2.453295 1.435230 0
M  V30 63 H -1.526617 3.269930 -0.094422 0
M  V30 64 H 0.490653 3.787616 0.738984 0
M  V30 65 H 0.346514 2.780934 2.146660 0
M  V30 END ATOM
M  V30 BEGIN BOND
M  V30 1 1 1 2
M  V30 2 1 2 3
M  V30 3 1 3 4
M  V30 4 1 4 5
M  V30 5 1 4 6
M  V30 6 2 6 7
M  V30 7 1 7 8
M  V30 8 2 8 9
M  V30 9 1 9 10
M  V30 10 1 10 11
M  V30 11 1 11 12
M  V30 12 1 12 13
M  V30 13 1 13 14
M  V30 14 1 14 15
M  V30 15 2 15 16
M  V30 16 1 15 17
M  V30 17 1 17 18
M  V30 18 2 18 19
M  V30 19 1 19 20
M  V30 20 2 20 21
M  V30 21 1 21 22
M  V30 22 1 21 23
M  V30 23 2 23 24
M  V30 24 1 17 25
M  V30 25 1 25 26
M  V30 26 1 26 27
M  V30 27 1 27 28
M  V30 28 1 28 29
M  V30 29 1 29 30
M  V30 30 1 14 31
M  V30 31 1 31 32
M  V30 32 2 10 33
M  V30 33 1 33 2
M  V30 34 1 33 6
M  V30 35 1 32 11
M  V30 36 1 24 18
M  V30 37 1 30 25
M  V30 38 1 1 34
M  V30 39 1 1 35
M  V30 40 1 1 36
M  V30 41 1 2 37 CFG=3
M  V30 42 1 3 38
M  V30 43 1 3 39
M  V30 44 1 4 40 CFG=1
M  V30 45 1 5 41
M  V30 46 1 8 42
M  V30 47 1 12 43
M  V30 48 1 12 44
M  V30 49 1 13 45
M  V30 50 1 13 46
M  V30 51 1 17 47 CFG=1
M  V30 52 1 19 48
M  V30 53 1 20 49
M  V30 54 1 23 50
M  V30 55 1 24 51
M  V30 56 1 25 52 CFG=3
M  V30 57 1 26 53
M  V30 58 1 26 54
M  V30 59 1 27 55
M  V30 60 1 27 56
M  V30 61 1 28 57
M  V30 62 1 28 58
M  V30 63 1 29 59
M  V30 64 1 29 60
M  V30 65 1 30 61
M  V30 66 1 31 62
M  V30 67 1 31 63
M  V30 68 1 32 64
M  V30 69 1 32 65
M  V30 END BOND
M  V30 END CTAB
M  END
>  <Dataset>  (983) 
ChEMBL_Kinases

>  <Ligand_Instance>  (983) 
nan

>  <PDB_ID>  (983) 
nan

>  <Standardized_SMILES>  (983) 
C[C@@H]1C[C@@H](O)c2ncnc(N3CCN(C(=O)[C@@H](c4ccc(Cl)cc4)[C@@H]4CCCCN4)CC3)c21

>  <Name>  (983) 
nan

>  <Pocket>  (983) 
nan

>  <ATP_Site>  (983) 
nan

>  <Peripheral>  (983) 
nan

>  <Num_H_Atoms_ProtBoundConf>  (983) 
nan

>  <Num_Resolved_Atoms>  (983) 
nan

>  <Num_Not_Resolved_Atoms>  (983) 
nan

$$$$
CHEMBL2177368
     RDKit          3D

  0  0  0  0  0  0  0  0  0  0999 V3000
M  V30 BEGIN CTAB
M  V30 COUNTS 72 76 0 0 0
M  V30 BEGIN ATOM
M  V30 1 C 4.263150 1.829453 3.499434 0
M  V30 2 C 3.319579 0.688854 3.250284 0 CFG=2
M  V30 3 C 3.841541 -0.472461 4.084546 0
M  V30 4 C 4.785789 -1.206884 3.186788 0 CFG=1
M  V30 5 O 4.645219 -2.566610 3.461419 0
M  V30 6 C 4.192359 -0.953820 1.848910 0
M  V30 7 N 4.431708 -1.677653 0.743781 0
M  V30 8 C 3.813239 -1.318915 -0.398919 0
M  V30 9 N 2.975984 -0.243045 -0.385043 0
M  V30 10 C 2.734478 0.486690 0.727797 0
M  V30 11 N 1.866101 1.562721 0.630028 0
M  V30 12 C 0.657149 1.811295 1.307169 0
M  V30 13 C -0.486638 1.947409 0.327276 0
M  V30 14 N -0.033332 1.783177 -1.065821 0
M  V30 15 C -0.258922 0.936050 -2.196465 0
M  V30 16 O 0.423488 1.289874 -3.235546 0
M  V30 17 C -1.063600 -0.253891 -2.537248 0 CFG=2
M  V30 18 C -2.499310 -0.149107 -2.006254 0
M  V30 19 N -3.161189 -1.368061 -2.415124 0
M  V30 20 C -4.527343 -1.473869 -1.956701 0
M  V30 21 C -4.580524 -1.648874 -0.476369 0
M  V30 22 C -3.852519 -2.899727 -0.023201 0
M  V30 23 C -4.835423 -4.006948 0.309509 0
M  V30 24 O -5.627415 -3.673402 1.381502 0
M  V30 25 C -6.025809 -2.338734 1.381313 0
M  V30 26 C -6.029880 -1.781565 -0.043582 0
M  V30 27 C -0.445479 -1.419641 -1.807536 0
M  V30 28 C -0.328311 -1.698190 -0.464807 0
M  V30 29 C 0.276441 -2.833189 -0.016564 0
M  V30 30 C 0.805996 -3.770801 -0.857227 0
M  V30 31 Cl 1.541150 -5.163479 -0.100467 0
M  V30 32 C 0.714532 -3.539996 -2.207766 0
M  V30 33 C 0.098690 -2.384088 -2.646551 0
M  V30 34 C 0.962529 2.859822 -1.226927 0
M  V30 35 C 2.102663 2.703587 -0.276935 0
M  V30 36 C 3.351685 0.141074 1.901627 0
M  V30 37 H 3.676825 2.723626 3.847216 0
M  V30 38 H 5.006738 1.648502 4.293505 0
M  V30 39 H 4.849362 2.090347 2.593608 0
M  V30 40 H 2.304710 0.861831 3.657073 0
M  V30 41 H 4.450141 -0.091922 4.950294 0
M  V30 42 H 3.025259 -1.116775 4.475099 0
M  V30 43 H 5.838454 -0.872796 3.256154 0
M  V30 44 H 3.647454 -2.717074 3.459485 0
M  V30 45 H 3.908626 -1.808295 -1.368704 0
M  V30 46 H 0.391685 1.111824 2.112720 0
M  V30 47 H 0.704813 2.798888 1.854179 0
M  V30 48 H -0.926080 2.995661 0.355721 0
M  V30 49 H -1.307257 1.272555 0.596719 0
M  V30 50 H -1.099838 -0.394865 -3.616394 0
M  V30 51 H -2.948522 0.762733 -2.403126 0
M  V30 52 H -2.495028 -0.104193 -0.908936 0
M  V30 53 H -3.051668 -1.564987 -3.416080 0
M  V30 54 H -4.970964 -2.361908 -2.449860 0
M  V30 55 H -5.137680 -0.588587 -2.223882 0
M  V30 56 H -4.146817 -0.773054 0.021089 0
M  V30 57 H -3.153231 -3.266436 -0.779233 0
M  V30 58 H -3.299273 -2.649825 0.904928 0
M  V30 59 H -5.438402 -4.209967 -0.605403 0
M  V30 60 H -4.249839 -4.913112 0.555073 0
M  V30 61 H -7.068312 -2.299973 1.751602 0
M  V30 62 H -5.397718 -1.736572 2.061694 0
M  V30 63 H -6.532146 -0.799838 0.001666 0
M  V30 64 H -6.573031 -2.504403 -0.676758 0
M  V30 65 H -0.759229 -0.940762 0.157439 0
M  V30 66 H 0.284118 -2.896917 1.074232 0
M  V30 67 H 1.134351 -4.284929 -2.853280 0
M  V30 68 H 0.084956 -2.307653 -3.729133 0
M  V30 69 H 0.448796 3.809109 -1.027336 0
M  V30 70 H 1.339076 2.876623 -2.286174 0
M  V30 71 H 2.252193 3.582297 0.383535 0
M  V30 72 H 3.041968 2.555656 -0.844429 0
M  V30 END ATOM
M  V30 BEGIN BOND
M  V30 1 1 1 2
M  V30 2 1 2 3
M  V30 3 1 3 4
M  V30 4 1 4 5
M  V30 5 1 4 6
M  V30 6 2 6 7
M  V30 7 1 7 8
M  V30 8 2 8 9
M  V30 9 1 9 10
M  V30 10 1 10 11
M  V30 11 1 11 12
M  V30 12 1 12 13
M  V30 13 1 13 14
M  V30 14 1 14 15
M  V30 15 2 15 16
M  V30 16 1 15 17
M  V30 17 1 17 18
M  V30 18 1 18 19
M  V30 19 1 19 20
M  V30 20 1 20 21
M  V30 21 1 21 22
M  V30 22 1 22 23
M  V30 23 1 23 24
M  V30 24 1 24 25
M  V30 25 1 25 26
M  V30 26 1 17 27
M  V30 27 2 27 28
M  V30 28 1 28 29
M  V30 29 2 29 30
M  V30 30 1 30 31
M  V30 31 1 30 32
M  V30 32 2 32 33
M  V30 33 1 14 34
M  V30 34 1 34 35
M  V30 35 2 10 36
M  V30 36 1 36 2
M  V30 37 1 36 6
M  V30 38 1 35 11
M  V30 39 1 26 21
M  V30 40 1 33 27
M  V30 41 1 1 37
M  V30 42 1 1 38
M  V30 43 1 1 39
M  V30 44 1 2 40 CFG=1
M  V30 45 1 3 41
M  V30 46 1 3 42
M  V30 47 1 4 43 CFG=3
M  V30 48 1 5 44
M  V30 49 1 8 45
M  V30 50 1 12 46
M  V30 51 1 12 47
M  V30 52 1 13 48
M  V30 53 1 13 49
M  V30 54 1 17 50 CFG=3
M  V30 55 1 18 51
M  V30 56 1 18 52
M  V30 57 1 19 53
M  V30 58 1 20 54
M  V30 59 1 20 55
M  V30 60 1 21 56
M  V30 61 1 22 57
M  V30 62 1 22 58
M  V30 63 1 23 59
M  V30 64 1 23 60
M  V30 65 1 25 61
M  V30 66 1 25 62
M  V30 67 1 26 63
M  V30 68 1 26 64
M  V30 69 1 28 65
M  V30 70 1 29 66
M  V30 71 1 32 67
M  V30 72 1 33 68
M  V30 73 1 34 69
M  V30 74 1 34 70
M  V30 75 1 35 71
M  V30 76 1 35 72
M  V30 END BOND
M  V30 END CTAB
M  END
>  <Dataset>  (984) 
ChEMBL_Kinases

>  <Ligand_Instance>  (984) 
nan

>  <PDB_ID>  (984) 
nan

>  <Standardized_SMILES>  (984) 
C[C@@H]1C[C@@H](O)c2ncnc(N3CCN(C(=O)[C@H](CNCC4CCOCC4)c4ccc(Cl)cc4)CC3)c21

>  <Name>  (984) 
nan

>  <Pocket>  (984) 
nan

>  <ATP_Site>  (984) 
nan

>  <Peripheral>  (984) 
nan

>  <Num_H_Atoms_ProtBoundConf>  (984) 
nan

>  <Num_Resolved_Atoms>  (984) 
nan

>  <Num_Not_Resolved_Atoms>  (984) 
nan

$$$$
CHEMBL2177367
     RDKit          3D

  0  0  0  0  0  0  0  0  0  0999 V3000
M  V30 BEGIN CTAB
M  V30 COUNTS 75 79 0 0 0
M  V30 BEGIN ATOM
M  V30 1 C 3.140363 -2.680252 4.984053 0
M  V30 2 O 3.437670 -1.781555 3.959365 0
M  V30 3 C 2.974799 -2.200861 2.722222 0 CFG=1
M  V30 4 C 2.254645 -1.093378 2.042271 0
M  V30 5 C 2.055104 -1.210295 0.568085 0
M  V30 6 C 2.734578 -2.276822 -0.172051 0 CFG=2
M  V30 7 N 1.955069 -3.131140 -0.947790 0
M  V30 8 C 1.436053 -2.916305 -2.215483 0
M  V30 9 C 0.382929 -1.899865 -2.472440 0 CFG=1
M  V30 10 C 0.704846 -0.492524 -2.242460 0
M  V30 11 O 1.903444 -0.295349 -2.506343 0
M  V30 12 N -0.165703 0.532902 -1.791204 0
M  V30 13 C -1.551717 0.248509 -1.491658 0
M  V30 14 C -2.182813 1.475856 -0.913919 0
M  V30 15 N -1.308068 2.140989 0.035865 0
M  V30 16 C -1.777685 2.487326 1.335213 0
M  V30 17 N -1.780518 3.801500 1.655888 0
M  V30 18 C -2.210695 4.255705 2.868106 0
M  V30 19 N -2.654967 3.357475 3.793953 0
M  V30 20 C -2.673923 2.046031 3.529494 0
M  V30 21 C -2.232204 1.600495 2.290114 0
M  V30 22 C -2.343758 0.143603 2.244655 0 CFG=2
M  V30 23 C -3.691736 -0.395955 1.888593 0
M  V30 24 C -2.129994 -0.188078 3.732758 0
M  V30 25 C -3.093521 0.829810 4.312296 0 CFG=1
M  V30 26 O -2.929938 1.008865 5.669470 0
M  V30 27 C 0.061047 2.474974 -0.299141 0
M  V30 28 C 0.382360 1.860342 -1.647625 0
M  V30 29 C -0.423902 -2.144652 -3.710396 0
M  V30 30 C -1.732839 -2.568960 -3.768511 0
M  V30 31 C -2.372002 -2.759579 -4.975288 0
M  V30 32 C -1.731631 -2.534727 -6.178773 0
M  V30 33 Cl -2.572451 -2.786272 -7.696450 0
M  V30 34 C -0.410259 -2.106241 -6.124536 0
M  V30 35 C 0.228669 -1.915742 -4.914564 0
M  V30 36 C 3.665785 -3.147250 0.659426 0
M  V30 37 C 4.223479 -2.460218 1.862283 0
M  V30 38 H 3.540996 -2.267646 5.921174 0
M  V30 39 H 3.668095 -3.659021 4.822415 0
M  V30 40 H 2.060857 -2.844750 5.111468 0
M  V30 41 H 2.453608 -3.164299 2.755651 0
M  V30 42 H 2.837603 -0.158098 2.301763 0
M  V30 43 H 1.300944 -0.949331 2.592212 0
M  V30 44 H 2.257284 -0.207640 0.146357 0
M  V30 45 H 0.943821 -1.370836 0.428978 0
M  V30 46 H 3.474895 -1.783246 -0.894729 0
M  V30 47 H 1.742662 -4.072132 -0.525601 0
M  V30 48 H 2.296347 -2.773874 -2.989675 0
M  V30 49 H 1.014631 -3.920237 -2.610696 0
M  V30 50 H -0.387165 -2.117347 -1.616775 0
M  V30 51 H -1.666333 -0.575282 -0.747410 0
M  V30 52 H -2.092201 -0.027474 -2.443470 0
M  V30 53 H -3.186506 1.282961 -0.478190 0
M  V30 54 H -2.404717 2.152460 -1.791147 0
M  V30 55 H -2.190988 5.335905 3.075449 0
M  V30 56 H -1.573078 -0.360831 1.640563 0
M  V30 57 H -3.640628 -1.143840 1.049007 0
M  V30 58 H -4.425078 0.418164 1.634711 0
M  V30 59 H -4.191608 -0.966876 2.701499 0
M  V30 60 H -1.106853 0.111876 4.030635 0
M  V30 61 H -2.379766 -1.225777 3.953433 0
M  V30 62 H -4.146462 0.555845 4.104747 0
M  V30 63 H -3.736362 0.696937 6.160884 0
M  V30 64 H 0.114381 3.602334 -0.359474 0
M  V30 65 H 0.802000 2.205475 0.469889 0
M  V30 66 H -0.111034 2.520956 -2.419659 0
M  V30 67 H 1.453877 1.903988 -1.883248 0
M  V30 68 H -2.173480 -2.725709 -2.782279 0
M  V30 69 H -3.414954 -3.098468 -4.939143 0
M  V30 70 H 0.078182 -1.934165 -7.081787 0
M  V30 71 H 1.246792 -1.583275 -5.011543 0
M  V30 72 H 4.478499 -3.583321 0.044698 0
M  V30 73 H 3.065426 -4.010453 1.047478 0
M  V30 74 H 4.687033 -1.476021 1.621478 0
M  V30 75 H 4.894879 -3.146425 2.375707 0
M  V30 END ATOM
M  V30 BEGIN BOND
M  V30 1 1 1 2
M  V30 2 1 2 3
M  V30 3 1 3 4
M  V30 4 1 4 5
M  V30 5 1 5 6
M  V30 6 1 6 7
M  V30 7 1 7 8
M  V30 8 1 8 9
M  V30 9 1 9 10
M  V30 10 2 10 11
M  V30 11 1 10 12
M  V30 12 1 12 13
M  V30 13 1 13 14
M  V30 14 1 14 15
M  V30 15 1 15 16
M  V30 16 2 16 17
M  V30 17 1 17 18
M  V30 18 2 18 19
M  V30 19 1 19 20
M  V30 20 2 20 21
M  V30 21 1 21 22
M  V30 22 1 22 23
M  V30 23 1 22 24
M  V30 24 1 24 25
M  V30 25 1 25 26
M  V30 26 1 15 27
M  V30 27 1 27 28
M  V30 28 1 9 29
M  V30 29 2 29 30
M  V30 30 1 30 31
M  V30 31 2 31 32
M  V30 32 1 32 33
M  V30 33 1 32 34
M  V30 34 2 34 35
M  V30 35 1 6 36
M  V30 36 1 36 37
M  V30 37 1 37 3
M  V30 38 1 28 12
M  V30 39 1 35 29
M  V30 40 1 21 16
M  V30 41 1 25 20
M  V30 42 1 1 38
M  V30 43 1 1 39
M  V30 44 1 1 40
M  V30 45 1 3 41 CFG=1
M  V30 46 1 4 42
M  V30 47 1 4 43
M  V30 48 1 5 44
M  V30 49 1 5 45
M  V30 50 1 6 46 CFG=3
M  V30 51 1 7 47
M  V30 52 1 8 48
M  V30 53 1 8 49
M  V30 54 1 9 50 CFG=1
M  V30 55 1 13 51
M  V30 56 1 13 52
M  V30 57 1 14 53
M  V30 58 1 14 54
M  V30 59 1 18 55
M  V30 60 1 22 56 CFG=3
M  V30 61 1 23 57
M  V30 62 1 23 58
M  V30 63 1 23 59
M  V30 64 1 24 60
M  V30 65 1 24 61
M  V30 66 1 25 62 CFG=1
M  V30 67 1 26 63
M  V30 68 1 27 64
M  V30 69 1 27 65
M  V30 70 1 28 66
M  V30 71 1 28 67
M  V30 72 1 30 68
M  V30 73 1 31 69
M  V30 74 1 34 70
M  V30 75 1 35 71
M  V30 76 1 36 72
M  V30 77 1 36 73
M  V30 78 1 37 74
M  V30 79 1 37 75
M  V30 END BOND
M  V30 END CTAB
M  END
>  <Dataset>  (985) 
ChEMBL_Kinases

>  <Ligand_Instance>  (985) 
nan

>  <PDB_ID>  (985) 
nan

>  <Standardized_SMILES>  (985) 
CO[C@H]1CC[C@H](NC[C@@H](C(=O)N2CCN(c3ncnc4c3[C@H](C)C[C@H]4O)CC2)c2ccc(Cl)cc2)CC1

>  <Name>  (985) 
nan

>  <Pocket>  (985) 
nan

>  <ATP_Site>  (985) 
nan

>  <Peripheral>  (985) 
nan

>  <Num_H_Atoms_ProtBoundConf>  (985) 
nan

>  <Num_Resolved_Atoms>  (985) 
nan

>  <Num_Not_Resolved_Atoms>  (985) 
nan

$$$$
CHEMBL2177366
     RDKit          3D

  0  0  0  0  0  0  0  0  0  0999 V3000
M  V30 BEGIN CTAB
M  V30 COUNTS 69 73 0 0 0
M  V30 BEGIN ATOM
M  V30 1 C 3.311424 -1.547205 1.131761 0
M  V30 2 C 3.811245 -0.793926 -0.082396 0 CFG=2
M  V30 3 C 5.347736 -0.929950 0.013578 0
M  V30 4 C 5.566869 -0.006554 1.215205 0 CFG=1
M  V30 5 O 6.898576 0.314767 1.382126 0
M  V30 6 C 4.714127 1.135347 0.798783 0
M  V30 7 N 4.791351 2.452772 1.033618 0
M  V30 8 C 3.895554 3.332892 0.552220 0
M  V30 9 N 2.908255 2.825640 -0.183182 0
M  V30 10 C 2.736374 1.525129 -0.479333 0
M  V30 11 N 1.606428 1.165341 -1.283980 0
M  V30 12 C 0.729395 2.237698 -1.783966 0
M  V30 13 C -0.666541 2.110454 -1.195283 0
M  V30 14 N -0.847188 0.676414 -0.999119 0
M  V30 15 C -1.589627 0.333321 0.165156 0
M  V30 16 O -1.874899 1.443520 0.694019 0
M  V30 17 C -2.247287 -0.502157 1.161545 0 CFG=2
M  V30 18 C -3.297276 -1.451023 0.653615 0
M  V30 19 N -2.622024 -2.326372 -0.289990 0
M  V30 20 C -3.460503 -3.307427 -0.905408 0
M  V30 21 C -2.651740 -4.069476 -1.920651 0
M  V30 22 C -1.459481 -4.688929 -1.244800 0
M  V30 23 O -1.877711 -5.570606 -0.269041 0
M  V30 24 C -2.659175 -5.011743 0.718608 0
M  V30 25 C -3.876804 -4.312234 0.148000 0
M  V30 26 C -2.840512 0.437199 2.181917 0
M  V30 27 C -2.361477 0.449245 3.474895 0
M  V30 28 C -2.819271 1.258074 4.494352 0
M  V30 29 C -3.858303 2.128267 4.153835 0
M  V30 30 Cl -4.518194 3.207524 5.384843 0
M  V30 31 C -4.351335 2.131054 2.864734 0
M  V30 32 C -3.868960 1.306699 1.867184 0
M  V30 33 C -0.252469 -0.188899 -2.005409 0
M  V30 34 C 1.245927 -0.187308 -1.652056 0
M  V30 35 C 3.672890 0.653106 0.030385 0
M  V30 36 H 2.493755 -2.232381 0.773843 0
M  V30 37 H 4.048128 -2.205146 1.599579 0
M  V30 38 H 2.881557 -0.905521 1.911791 0
M  V30 39 H 3.582590 -1.253296 -1.039958 0
M  V30 40 H 5.800442 -0.539431 -0.900074 0
M  V30 41 H 5.615094 -1.969805 0.257460 0
M  V30 42 H 5.166527 -0.542515 2.085314 0
M  V30 43 H 7.073842 0.528320 2.340845 0
M  V30 44 H 3.889015 4.397145 0.695340 0
M  V30 45 H 0.719264 2.250667 -2.898258 0
M  V30 46 H 1.133125 3.207222 -1.457713 0
M  V30 47 H -0.766662 2.691181 -0.271412 0
M  V30 48 H -1.394324 2.439366 -1.970300 0
M  V30 49 H -1.462087 -1.064796 1.707989 0
M  V30 50 H -3.577327 -2.080896 1.522407 0
M  V30 51 H -4.196176 -0.970903 0.282334 0
M  V30 52 H -1.820532 -2.742460 0.237938 0
M  V30 53 H -4.384742 -2.872832 -1.344928 0
M  V30 54 H -3.225543 -4.916980 -2.362368 0
M  V30 55 H -2.250873 -3.397346 -2.712763 0
M  V30 56 H -0.713475 -3.958207 -0.867893 0
M  V30 57 H -0.867660 -5.314985 -1.971207 0
M  V30 58 H -2.066247 -4.395402 1.404869 0
M  V30 59 H -3.059601 -5.861779 1.326309 0
M  V30 60 H -4.497123 -5.119563 -0.308845 0
M  V30 61 H -4.415323 -3.833246 0.980683 0
M  V30 62 H -1.552877 -0.224059 3.750301 0
M  V30 63 H -2.398143 1.216957 5.488739 0
M  V30 64 H -5.169527 2.834485 2.646415 0
M  V30 65 H -4.262342 1.318080 0.863722 0
M  V30 66 H -0.638383 -1.223450 -1.988829 0
M  V30 67 H -0.392126 0.175095 -3.022959 0
M  V30 68 H 1.248458 -0.886044 -0.771813 0
M  V30 69 H 1.832759 -0.583907 -2.507993 0
M  V30 END ATOM
M  V30 BEGIN BOND
M  V30 1 1 1 2
M  V30 2 1 2 3
M  V30 3 1 3 4
M  V30 4 1 4 5
M  V30 5 1 4 6
M  V30 6 2 6 7
M  V30 7 1 7 8
M  V30 8 2 8 9
M  V30 9 1 9 10
M  V30 10 1 10 11
M  V30 11 1 11 12
M  V30 12 1 12 13
M  V30 13 1 13 14
M  V30 14 1 14 15
M  V30 15 2 15 16
M  V30 16 1 15 17
M  V30 17 1 17 18
M  V30 18 1 18 19
M  V30 19 1 19 20
M  V30 20 1 20 21
M  V30 21 1 21 22
M  V30 22 1 22 23
M  V30 23 1 23 24
M  V30 24 1 24 25
M  V30 25 1 17 26
M  V30 26 2 26 27
M  V30 27 1 27 28
M  V30 28 2 28 29
M  V30 29 1 29 30
M  V30 30 1 29 31
M  V30 31 2 31 32
M  V30 32 1 14 33
M  V30 33 1 33 34
M  V30 34 2 10 35
M  V30 35 1 35 2
M  V30 36 1 35 6
M  V30 37 1 34 11
M  V30 38 1 25 20
M  V30 39 1 32 26
M  V30 40 1 1 36
M  V30 41 1 1 37
M  V30 42 1 1 38
M  V30 43 1 2 39 CFG=3
M  V30 44 1 3 40
M  V30 45 1 3 41
M  V30 46 1 4 42 CFG=1
M  V30 47 1 5 43
M  V30 48 1 8 44
M  V30 49 1 12 45
M  V30 50 1 12 46
M  V30 51 1 13 47
M  V30 52 1 13 48
M  V30 53 1 17 49 CFG=1
M  V30 54 1 18 50
M  V30 55 1 18 51
M  V30 56 1 19 52
M  V30 57 1 20 53
M  V30 58 1 21 54
M  V30 59 1 21 55
M  V30 60 1 22 56
M  V30 61 1 22 57
M  V30 62 1 24 58
M  V30 63 1 24 59
M  V30 64 1 25 60
M  V30 65 1 25 61
M  V30 66 1 27 62
M  V30 67 1 28 63
M  V30 68 1 31 64
M  V30 69 1 32 65
M  V30 70 1 33 66
M  V30 71 1 33 67
M  V30 72 1 34 68
M  V30 73 1 34 69
M  V30 END BOND
M  V30 END CTAB
M  END
>  <Dataset>  (986) 
ChEMBL_Kinases

>  <Ligand_Instance>  (986) 
nan

>  <PDB_ID>  (986) 
nan

>  <Standardized_SMILES>  (986) 
C[C@@H]1C[C@@H](O)c2ncnc(N3CCN(C(=O)[C@H](CNC4CCOCC4)c4ccc(Cl)cc4)CC3)c21

>  <Name>  (986) 
nan

>  <Pocket>  (986) 
nan

>  <ATP_Site>  (986) 
nan

>  <Peripheral>  (986) 
nan

>  <Num_H_Atoms_ProtBoundConf>  (986) 
nan

>  <Num_Resolved_Atoms>  (986) 
nan

>  <Num_Not_Resolved_Atoms>  (986) 
nan

$$$$
CHEMBL2177365
     RDKit          3D

  0  0  0  0  0  0  0  0  0  0999 V3000
M  V30 BEGIN CTAB
M  V30 COUNTS 67 70 0 0 0
M  V30 BEGIN ATOM
M  V30 1 C 4.294647 0.559699 4.304510 0
M  V30 2 C 3.239204 0.254868 3.236106 0
M  V30 3 C 1.911280 0.476782 3.860269 0
M  V30 4 N 3.554313 1.040667 2.100995 0
M  V30 5 C 4.846269 0.749140 1.595203 0
M  V30 6 C 2.547306 1.430056 1.216545 0
M  V30 7 C 1.880292 0.375406 0.385823 0 CFG=1
M  V30 8 C 0.839317 0.962543 -0.490860 0
M  V30 9 O 0.783943 2.235443 -0.532865 0
M  V30 10 N -0.084987 0.221482 -1.273927 0
M  V30 11 C -0.299407 -1.224084 -1.450119 0
M  V30 12 C -1.794114 -1.509676 -1.392165 0
M  V30 13 N -2.507549 -0.438217 -0.682595 0
M  V30 14 C -3.054890 -0.769558 0.600966 0
M  V30 15 N -2.636723 -0.140293 1.714647 0
M  V30 16 C -3.126223 -0.432034 2.937802 0
M  V30 17 N -4.065819 -1.392457 3.012403 0
M  V30 18 C -4.490917 -2.023448 1.929440 0
M  V30 19 C -4.019130 -1.757443 0.661529 0
M  V30 20 C -4.727468 -2.649407 -0.275350 0 CFG=2
M  V30 21 C -5.301496 -1.829274 -1.440313 0
M  V30 22 C -5.947353 -3.126833 0.490615 0
M  V30 23 C -5.519497 -3.090237 1.941104 0 CFG=1
M  V30 24 O -4.966058 -4.344378 2.207844 0
M  V30 25 C -2.458895 0.737407 -1.533166 0
M  V30 26 C -1.049350 0.921825 -2.105201 0
M  V30 27 C 2.803408 -0.408957 -0.436136 0
M  V30 28 C 3.074343 -1.763790 -0.339677 0
M  V30 29 C 3.956472 -2.452178 -1.143443 0
M  V30 30 C 4.636902 -1.766724 -2.128775 0
M  V30 31 Cl 5.760293 -2.610650 -3.161165 0
M  V30 32 C 4.394270 -0.415949 -2.256151 0
M  V30 33 C 3.505174 0.251731 -1.438316 0
M  V30 34 H 4.616744 1.609917 4.160222 0
M  V30 35 H 3.849980 0.471060 5.306165 0
M  V30 36 H 5.175526 -0.117595 4.174004 0
M  V30 37 H 3.357031 -0.854937 3.057426 0
M  V30 38 H 1.381766 1.395310 3.591135 0
M  V30 39 H 1.954035 0.490086 4.989663 0
M  V30 40 H 1.203956 -0.376007 3.639240 0
M  V30 41 H 5.017146 -0.342519 1.403685 0
M  V30 42 H 5.071781 1.384540 0.718071 0
M  V30 43 H 5.641959 1.022474 2.350237 0
M  V30 44 H 3.027319 2.135464 0.475500 0
M  V30 45 H 1.783376 2.060945 1.711509 0
M  V30 46 H 1.329034 -0.298233 1.106937 0
M  V30 47 H 0.068860 -1.528674 -2.471991 0
M  V30 48 H 0.218165 -1.823391 -0.689160 0
M  V30 49 H -2.206262 -1.674622 -2.415112 0
M  V30 50 H -1.910418 -2.485398 -0.879628 0
M  V30 51 H -2.715580 0.138392 3.759704 0
M  V30 52 H -4.111588 -3.493423 -0.634877 0
M  V30 53 H -6.227224 -2.356710 -1.786767 0
M  V30 54 H -4.589671 -1.665384 -2.246797 0
M  V30 55 H -5.668614 -0.878613 -0.959018 0
M  V30 56 H -6.808447 -2.418808 0.357554 0
M  V30 57 H -6.278352 -4.131226 0.170183 0
M  V30 58 H -6.361651 -2.857508 2.620209 0
M  V30 59 H -3.966869 -4.288531 2.294164 0
M  V30 60 H -3.161472 0.525932 -2.372839 0
M  V30 61 H -2.747196 1.652901 -0.995444 0
M  V30 62 H -0.804705 1.992103 -2.089066 0
M  V30 63 H -1.051259 0.514666 -3.159692 0
M  V30 64 H 2.525968 -2.289042 0.445712 0
M  V30 65 H 4.112805 -3.514326 -1.003431 0
M  V30 66 H 4.945527 0.098578 -3.040847 0
M  V30 67 H 3.361538 1.330903 -1.597451 0
M  V30 END ATOM
M  V30 BEGIN BOND
M  V30 1 1 1 2
M  V30 2 1 2 3
M  V30 3 1 2 4
M  V30 4 1 4 5
M  V30 5 1 4 6
M  V30 6 1 6 7
M  V30 7 1 7 8
M  V30 8 2 8 9
M  V30 9 1 8 10
M  V30 10 1 10 11
M  V30 11 1 11 12
M  V30 12 1 12 13
M  V30 13 1 13 14
M  V30 14 2 14 15
M  V30 15 1 15 16
M  V30 16 2 16 17
M  V30 17 1 17 18
M  V30 18 2 18 19
M  V30 19 1 19 20
M  V30 20 1 20 21
M  V30 21 1 20 22
M  V30 22 1 22 23
M  V30 23 1 23 24
M  V30 24 1 13 25
M  V30 25 1 25 26
M  V30 26 1 7 27
M  V30 27 2 27 28
M  V30 28 1 28 29
M  V30 29 2 29 30
M  V30 30 1 30 31
M  V30 31 1 30 32
M  V30 32 2 32 33
M  V30 33 1 26 10
M  V30 34 1 33 27
M  V30 35 1 19 14
M  V30 36 1 23 18
M  V30 37 1 1 34
M  V30 38 1 1 35
M  V30 39 1 1 36
M  V30 40 1 2 37
M  V30 41 1 3 38
M  V30 42 1 3 39
M  V30 43 1 3 40
M  V30 44 1 5 41
M  V30 45 1 5 42
M  V30 46 1 5 43
M  V30 47 1 6 44
M  V30 48 1 6 45
M  V30 49 1 7 46 CFG=1
M  V30 50 1 11 47
M  V30 51 1 11 48
M  V30 52 1 12 49
M  V30 53 1 12 50
M  V30 54 1 16 51
M  V30 55 1 20 52 CFG=3
M  V30 56 1 21 53
M  V30 57 1 21 54
M  V30 58 1 21 55
M  V30 59 1 22 56
M  V30 60 1 22 57
M  V30 61 1 23 58 CFG=1
M  V30 62 1 24 59
M  V30 63 1 25 60
M  V30 64 1 25 61
M  V30 65 1 26 62
M  V30 66 1 26 63
M  V30 67 1 28 64
M  V30 68 1 29 65
M  V30 69 1 32 66
M  V30 70 1 33 67
M  V30 END BOND
M  V30 END CTAB
M  END
>  <Dataset>  (987) 
ChEMBL_Kinases

>  <Ligand_Instance>  (987) 
nan

>  <PDB_ID>  (987) 
nan

>  <Standardized_SMILES>  (987) 
CC(C)N(C)C[C@@H](C(=O)N1CCN(c2ncnc3c2[C@H](C)C[C@H]3O)CC1)c1ccc(Cl)cc1

>  <Name>  (987) 
nan

>  <Pocket>  (987) 
nan

>  <ATP_Site>  (987) 
nan

>  <Peripheral>  (987) 
nan

>  <Num_H_Atoms_ProtBoundConf>  (987) 
nan

>  <Num_Resolved_Atoms>  (987) 
nan

>  <Num_Not_Resolved_Atoms>  (987) 
nan

$$$$
CHEMBL2177364
     RDKit          3D

  0  0  0  0  0  0  0  0  0  0999 V3000
M  V30 BEGIN CTAB
M  V30 COUNTS 71 75 0 0 0
M  V30 BEGIN ATOM
M  V30 1 C 2.105884 1.659453 2.799511 0
M  V30 2 C 2.593760 1.075283 1.472952 0 CFG=2
M  V30 3 C 3.995888 0.528577 1.778403 0
M  V30 4 C 4.959161 1.656028 1.480749 0 CFG=1
M  V30 5 O 6.085563 1.084146 0.866394 0
M  V30 6 C 4.210664 2.441472 0.471466 0
M  V30 7 N 4.745122 3.374469 -0.359130 0
M  V30 8 C 3.964290 4.031352 -1.249313 0
M  V30 9 N 2.631878 3.730370 -1.287523 0
M  V30 10 C 2.112051 2.802788 -0.458778 0
M  V30 11 N 0.710169 2.576001 -0.601043 0
M  V30 12 C -0.388037 2.704109 0.326965 0
M  V30 13 C -1.355098 1.549574 0.236657 0
M  V30 14 N -0.725574 0.452509 -0.464334 0
M  V30 15 C -0.607508 -0.759468 0.263620 0
M  V30 16 O -1.103511 -0.521121 1.415721 0
M  V30 17 C -0.074133 -2.098531 -0.028218 0 CFG=2
M  V30 18 C -0.592992 -2.798247 -1.233293 0
M  V30 19 N -1.923255 -3.126495 -1.398344 0
M  V30 20 C -2.988725 -2.266607 -1.617186 0
M  V30 21 C -4.187547 -3.131930 -2.132107 0
M  V30 22 C -4.702452 -3.912032 -0.958003 0
M  V30 23 C -5.415770 -2.993349 0.019175 0
M  V30 24 C -5.103500 -1.594270 -0.399325 0
M  V30 25 C -3.562364 -1.492837 -0.474668 0
M  V30 26 C -0.117715 -2.975814 1.190437 0
M  V30 27 C 1.017900 -3.013662 2.012602 0
M  V30 28 C 1.115288 -3.795394 3.170691 0
M  V30 29 C 0.037054 -4.569592 3.521553 0
M  V30 30 Cl 0.122118 -5.558038 4.962343 0
M  V30 31 C -1.090860 -4.556751 2.739148 0
M  V30 32 C -1.138393 -3.771896 1.610551 0
M  V30 33 C -0.282239 0.690310 -1.801757 0
M  V30 34 C 0.192733 2.134316 -1.884075 0
M  V30 35 C 2.871515 2.111917 0.461427 0
M  V30 36 H 1.032021 1.379118 2.978697 0
M  V30 37 H 2.662668 1.242495 3.670880 0
M  V30 38 H 2.218744 2.755977 2.848069 0
M  V30 39 H 1.967562 0.255536 1.109239 0
M  V30 40 H 4.101629 0.324720 2.867786 0
M  V30 41 H 4.204656 -0.401786 1.212966 0
M  V30 42 H 5.250303 2.238067 2.377303 0
M  V30 43 H 5.753000 0.369446 0.259526 0
M  V30 44 H 4.356693 4.770361 -1.915059 0
M  V30 45 H -0.966437 3.605345 -0.011013 0
M  V30 46 H -0.082444 2.870856 1.376470 0
M  V30 47 H -2.291996 1.826609 -0.316696 0
M  V30 48 H -1.683618 1.291007 1.264549 0
M  V30 49 H 1.053430 -1.910118 -0.146702 0
M  V30 50 H -0.156796 -2.270642 -2.170960 0
M  V30 51 H 0.053605 -3.762097 -1.283542 0
M  V30 52 H -2.034719 -4.020504 -1.925815 0
M  V30 53 H -2.810636 -1.578184 -2.495234 0
M  V30 54 H -4.911265 -2.527910 -2.665356 0
M  V30 55 H -3.771050 -3.863576 -2.877054 0
M  V30 56 H -5.398735 -4.703075 -1.246943 0
M  V30 57 H -3.799657 -4.384367 -0.483942 0
M  V30 58 H -4.927452 -3.143520 1.017661 0
M  V30 59 H -6.471739 -3.227663 0.167100 0
M  V30 60 H -5.598859 -1.220685 -1.285758 0
M  V30 61 H -5.351886 -0.904817 0.461218 0
M  V30 62 H -3.250981 -1.856648 0.518973 0
M  V30 63 H -3.329273 -0.397305 -0.573133 0
M  V30 64 H 1.924351 -2.423310 1.800255 0
M  V30 65 H 2.010333 -3.789912 3.767391 0
M  V30 66 H -1.967694 -5.151437 2.977684 0
M  V30 67 H -2.024746 -3.783804 1.010674 0
M  V30 68 H 0.511890 -0.007704 -2.138964 0
M  V30 69 H -1.132151 0.585761 -2.508426 0
M  V30 70 H -0.621409 2.814278 -2.179323 0
M  V30 71 H 1.008565 2.203419 -2.646188 0
M  V30 END ATOM
M  V30 BEGIN BOND
M  V30 1 1 1 2
M  V30 2 1 2 3
M  V30 3 1 3 4
M  V30 4 1 4 5
M  V30 5 1 4 6
M  V30 6 2 6 7
M  V30 7 1 7 8
M  V30 8 2 8 9
M  V30 9 1 9 10
M  V30 10 1 10 11
M  V30 11 1 11 12
M  V30 12 1 12 13
M  V30 13 1 13 14
M  V30 14 1 14 15
M  V30 15 2 15 16
M  V30 16 1 15 17
M  V30 17 1 17 18
M  V30 18 1 18 19
M  V30 19 1 19 20
M  V30 20 1 20 21
M  V30 21 1 21 22
M  V30 22 1 22 23
M  V30 23 1 23 24
M  V30 24 1 24 25
M  V30 25 1 17 26
M  V30 26 2 26 27
M  V30 27 1 27 28
M  V30 28 2 28 29
M  V30 29 1 29 30
M  V30 30 1 29 31
M  V30 31 2 31 32
M  V30 32 1 14 33
M  V30 33 1 33 34
M  V30 34 2 10 35
M  V30 35 1 35 2
M  V30 36 1 35 6
M  V30 37 1 34 11
M  V30 38 1 25 20
M  V30 39 1 32 26
M  V30 40 1 1 36
M  V30 41 1 1 37
M  V30 42 1 1 38
M  V30 43 1 2 39 CFG=3
M  V30 44 1 3 40
M  V30 45 1 3 41
M  V30 46 1 4 42 CFG=1
M  V30 47 1 5 43
M  V30 48 1 8 44
M  V30 49 1 12 45
M  V30 50 1 12 46
M  V30 51 1 13 47
M  V30 52 1 13 48
M  V30 53 1 17 49 CFG=3
M  V30 54 1 18 50
M  V30 55 1 18 51
M  V30 56 1 19 52
M  V30 57 1 20 53
M  V30 58 1 21 54
M  V30 59 1 21 55
M  V30 60 1 22 56
M  V30 61 1 22 57
M  V30 62 1 23 58
M  V30 63 1 23 59
M  V30 64 1 24 60
M  V30 65 1 24 61
M  V30 66 1 25 62
M  V30 67 1 25 63
M  V30 68 1 27 64
M  V30 69 1 28 65
M  V30 70 1 31 66
M  V30 71 1 32 67
M  V30 72 1 33 68
M  V30 73 1 33 69
M  V30 74 1 34 70
M  V30 75 1 34 71
M  V30 END BOND
M  V30 END CTAB
M  END
>  <Dataset>  (988) 
ChEMBL_Kinases

>  <Ligand_Instance>  (988) 
nan

>  <PDB_ID>  (988) 
nan

>  <Standardized_SMILES>  (988) 
C[C@@H]1C[C@@H](O)c2ncnc(N3CCN(C(=O)[C@H](CNC4CCCCC4)c4ccc(Cl)cc4)CC3)c21

>  <Name>  (988) 
nan

>  <Pocket>  (988) 
nan

>  <ATP_Site>  (988) 
nan

>  <Peripheral>  (988) 
nan

>  <Num_H_Atoms_ProtBoundConf>  (988) 
nan

>  <Num_Resolved_Atoms>  (988) 
nan

>  <Num_Not_Resolved_Atoms>  (988) 
nan

$$$$
CHEMBL2177363
     RDKit          3D

  0  0  0  0  0  0  0  0  0  0999 V3000
M  V30 BEGIN CTAB
M  V30 COUNTS 68 72 0 0 0
M  V30 BEGIN ATOM
M  V30 1 C 1.956903 -0.109472 3.591689 0
M  V30 2 C 2.400987 -0.464498 2.180066 0 CFG=2
M  V30 3 C 3.343716 -1.645670 2.316722 0
M  V30 4 C 4.749128 -1.081465 2.408019 0 CFG=1
M  V30 5 O 5.556684 -1.959485 1.678855 0
M  V30 6 C 4.588876 0.232562 1.741457 0
M  V30 7 N 5.591091 1.034223 1.293928 0
M  V30 8 C 5.308930 2.224874 0.692078 0
M  V30 9 N 4.016980 2.612067 0.538847 0
M  V30 10 C 2.997614 1.825031 0.979446 0
M  V30 11 N 1.641926 2.230994 0.814567 0
M  V30 12 C 0.512536 2.512395 1.670615 0
M  V30 13 C -0.662514 1.609787 1.371438 0
M  V30 14 N -0.686650 1.202706 -0.025137 0
M  V30 15 C -1.079210 -0.055519 -0.649185 0
M  V30 16 O -0.881504 0.087144 -1.901575 0
M  V30 17 C -1.560252 -1.065986 0.293945 0 CFG=2
M  V30 18 C -1.673688 -2.464958 -0.170664 0
M  V30 19 N -2.515434 -2.845502 -1.208826 0
M  V30 20 C -2.307003 -2.513639 -2.555015 0
M  V30 21 C -0.944277 -2.946049 -3.084619 0
M  V30 22 C -0.819958 -4.442448 -2.866630 0
M  V30 23 F 0.519852 -4.827221 -2.913792 0
M  V30 24 C -1.361291 -4.909989 -1.556747 0
M  V30 25 C -2.690692 -4.318271 -1.170131 0
M  V30 26 C -2.836240 -0.612447 0.974059 0
M  V30 27 C -3.224306 -0.444765 2.284969 0
M  V30 28 C -4.492488 -0.005897 2.576501 0
M  V30 29 C -5.412756 0.280005 1.593899 0
M  V30 30 Cl -6.983913 0.828093 2.128459 0
M  V30 31 C -5.041098 0.117676 0.276112 0
M  V30 32 C -3.754833 -0.328249 -0.047358 0
M  V30 33 C -0.220840 2.361593 -0.812897 0
M  V30 34 C 1.268465 2.414336 -0.573251 0
M  V30 35 C 3.259347 0.605052 1.597367 0
M  V30 36 H 2.456042 -0.727809 4.369718 0
M  V30 37 H 0.864960 -0.120650 3.669019 0
M  V30 38 H 2.310537 0.924489 3.784235 0
M  V30 39 H 1.572619 -0.779884 1.543350 0
M  V30 40 H 3.188753 -2.170559 3.305110 0
M  V30 41 H 3.221698 -2.395413 1.508416 0
M  V30 42 H 5.106307 -0.971964 3.449966 0
M  V30 43 H 5.075663 -2.671672 1.220269 0
M  V30 44 H 6.158989 2.807155 0.362280 0
M  V30 45 H 0.226247 3.570695 1.507679 0
M  V30 46 H 0.721472 2.395212 2.751487 0
M  V30 47 H -0.656444 0.707847 2.011603 0
M  V30 48 H -1.600009 2.156669 1.570453 0
M  V30 49 H -0.807977 -1.082137 1.150618 0
M  V30 50 H -0.591104 -2.815879 -0.323867 0
M  V30 51 H -1.955381 -3.116564 0.731562 0
M  V30 52 H -3.011086 -3.221541 -3.145104 0
M  V30 53 H -2.617911 -1.543658 -2.929990 0
M  V30 54 H -0.970178 -2.786354 -4.181651 0
M  V30 55 H -0.102790 -2.388957 -2.680360 0
M  V30 56 H -1.336505 -4.977712 -3.688659 0
M  V30 57 H -1.546231 -6.019092 -1.655590 0
M  V30 58 H -0.606222 -4.823945 -0.753418 0
M  V30 59 H -2.852289 -4.573213 -0.106705 0
M  V30 60 H -3.475701 -4.652329 -1.849569 0
M  V30 61 H -2.380709 -0.714153 2.908725 0
M  V30 62 H -4.652022 0.077434 3.647313 0
M  V30 63 H -5.823560 0.364521 -0.424329 0
M  V30 64 H -3.660017 -0.388998 -1.121112 0
M  V30 65 H -0.666888 3.291078 -0.474292 0
M  V30 66 H -0.369991 2.161442 -1.896064 0
M  V30 67 H 1.822332 1.728282 -1.255631 0
M  V30 68 H 1.576085 3.439784 -0.937907 0
M  V30 END ATOM
M  V30 BEGIN BOND
M  V30 1 1 1 2
M  V30 2 1 2 3
M  V30 3 1 3 4
M  V30 4 1 4 5
M  V30 5 1 4 6
M  V30 6 2 6 7
M  V30 7 1 7 8
M  V30 8 2 8 9
M  V30 9 1 9 10
M  V30 10 1 10 11
M  V30 11 1 11 12
M  V30 12 1 12 13
M  V30 13 1 13 14
M  V30 14 1 14 15
M  V30 15 2 15 16
M  V30 16 1 15 17
M  V30 17 1 17 18
M  V30 18 1 18 19
M  V30 19 1 19 20
M  V30 20 1 20 21
M  V30 21 1 21 22
M  V30 22 1 22 23
M  V30 23 1 22 24
M  V30 24 1 24 25
M  V30 25 1 17 26
M  V30 26 2 26 27
M  V30 27 1 27 28
M  V30 28 2 28 29
M  V30 29 1 29 30
M  V30 30 1 29 31
M  V30 31 2 31 32
M  V30 32 1 14 33
M  V30 33 1 33 34
M  V30 34 2 10 35
M  V30 35 1 35 2
M  V30 36 1 35 6
M  V30 37 1 34 11
M  V30 38 1 25 19
M  V30 39 1 32 26
M  V30 40 1 1 36
M  V30 41 1 1 37
M  V30 42 1 1 38
M  V30 43 1 2 39 CFG=3
M  V30 44 1 3 40
M  V30 45 1 3 41
M  V30 46 1 4 42 CFG=1
M  V30 47 1 5 43
M  V30 48 1 8 44
M  V30 49 1 12 45
M  V30 50 1 12 46
M  V30 51 1 13 47
M  V30 52 1 13 48
M  V30 53 1 17 49 CFG=1
M  V30 54 1 18 50
M  V30 55 1 18 51
M  V30 56 1 20 52
M  V30 57 1 20 53
M  V30 58 1 21 54
M  V30 59 1 21 55
M  V30 60 1 22 56
M  V30 61 1 24 57
M  V30 62 1 24 58
M  V30 63 1 25 59
M  V30 64 1 25 60
M  V30 65 1 27 61
M  V30 66 1 28 62
M  V30 67 1 31 63
M  V30 68 1 32 64
M  V30 69 1 33 65
M  V30 70 1 33 66
M  V30 71 1 34 67
M  V30 72 1 34 68
M  V30 END BOND
M  V30 END CTAB
M  END
>  <Dataset>  (989) 
ChEMBL_Kinases

>  <Ligand_Instance>  (989) 
nan

>  <PDB_ID>  (989) 
nan

>  <Standardized_SMILES>  (989) 
C[C@@H]1C[C@@H](O)c2ncnc(N3CCN(C(=O)[C@H](CN4CCC(F)CC4)c4ccc(Cl)cc4)CC3)c21

>  <Name>  (989) 
nan

>  <Pocket>  (989) 
nan

>  <ATP_Site>  (989) 
nan

>  <Peripheral>  (989) 
nan

>  <Num_H_Atoms_ProtBoundConf>  (989) 
nan

>  <Num_Resolved_Atoms>  (989) 
nan

>  <Num_Not_Resolved_Atoms>  (989) 
nan

$$$$
CHEMBL2177362
     RDKit          3D

  0  0  0  0  0  0  0  0  0  0999 V3000
M  V30 BEGIN CTAB
M  V30 COUNTS 69 73 0 0 0
M  V30 BEGIN ATOM
M  V30 1 C 3.703675 0.223293 3.645855 0
M  V30 2 C 2.624545 -0.504974 2.871461 0 CFG=2
M  V30 3 C 2.253493 -1.719327 3.751745 0
M  V30 4 C 3.341523 -2.697916 3.369181 0 CFG=1
M  V30 5 O 2.895066 -3.999048 3.519568 0
M  V30 6 C 3.505467 -2.414594 1.930959 0
M  V30 7 N 3.985391 -3.238254 0.980605 0
M  V30 8 C 4.044565 -2.773164 -0.258626 0
M  V30 9 N 3.646415 -1.548218 -0.543759 0
M  V30 10 C 3.158349 -0.666132 0.334639 0
M  V30 11 N 2.772033 0.617313 -0.114605 0
M  V30 12 C 2.893492 0.902224 -1.552195 0
M  V30 13 C 1.640684 1.599536 -2.005771 0
M  V30 14 N 0.545114 1.531308 -1.077750 0
M  V30 15 C -0.743769 1.294647 -1.608080 0
M  V30 16 O -0.553320 1.198001 -2.848104 0
M  V30 17 C -2.124065 1.142603 -1.159889 0 CFG=2
M  V30 18 C -2.334290 0.110405 -0.073568 0
M  V30 19 N -1.957236 -1.218828 -0.407447 0
M  V30 20 C -2.136278 -2.168440 0.662105 0
M  V30 21 C -1.364596 -1.859557 1.895124 0
M  V30 22 C -1.332438 -3.150019 2.711388 0
M  V30 23 O -2.359335 -3.998708 2.382395 0
M  V30 24 C -3.576160 -3.366174 2.208619 0
M  V30 25 C -3.575423 -2.383123 1.057474 0
M  V30 26 C -3.057594 0.852533 -2.272283 0
M  V30 27 C -2.868047 -0.042259 -3.302391 0
M  V30 28 C -3.776804 -0.283895 -4.309379 0
M  V30 29 C -4.960571 0.395097 -4.318027 0
M  V30 30 Cl -6.086407 0.055687 -5.615816 0
M  V30 31 C -5.224114 1.302565 -3.328333 0
M  V30 32 F -6.405029 1.962429 -3.360468 0
M  V30 33 C -4.294246 1.504147 -2.357485 0
M  V30 34 C 0.737139 1.699205 0.369943 0
M  V30 35 C 2.256998 1.775300 0.578000 0
M  V30 36 C 3.085184 -1.121332 1.630423 0
M  V30 37 H 4.276054 -0.456984 4.306495 0
M  V30 38 H 3.207435 1.038665 4.211250 0
M  V30 39 H 4.347509 0.733271 2.887783 0
M  V30 40 H 1.667651 0.049161 2.809861 0
M  V30 41 H 1.302578 -2.182182 3.415849 0
M  V30 42 H 2.238463 -1.440453 4.806389 0
M  V30 43 H 4.270461 -2.552323 3.947113 0
M  V30 44 H 1.949063 -4.025347 3.751695 0
M  V30 45 H 4.419746 -3.366957 -1.100667 0
M  V30 46 H 3.774266 1.573696 -1.651851 0
M  V30 47 H 3.108337 -0.016032 -2.119058 0
M  V30 48 H 1.853610 2.668425 -2.304718 0
M  V30 49 H 1.353039 1.114561 -2.963442 0
M  V30 50 H -2.429738 2.164766 -0.758519 0
M  V30 51 H -3.458082 0.078320 0.067347 0
M  V30 52 H -1.954306 0.450262 0.899316 0
M  V30 53 H -2.422470 -1.575609 -1.277483 0
M  V30 54 H -1.758644 -3.153226 0.286871 0
M  V30 55 H -1.919475 -1.127166 2.552467 0
M  V30 56 H -0.335320 -1.534447 1.742123 0
M  V30 57 H -0.378224 -3.708619 2.499473 0
M  V30 58 H -1.341626 -2.967016 3.789429 0
M  V30 59 H -3.849236 -2.904310 3.183212 0
M  V30 60 H -4.305932 -4.167822 1.951453 0
M  V30 61 H -4.200089 -2.731166 0.211693 0
M  V30 62 H -3.955869 -1.411817 1.478853 0
M  V30 63 H -1.940442 -0.594380 -3.340422 0
M  V30 64 H -3.530665 -1.018274 -5.085430 0
M  V30 65 H -4.562690 2.239853 -1.596932 0
M  V30 66 H 0.419149 0.765073 0.852818 0
M  V30 67 H 0.253985 2.617489 0.754895 0
M  V30 68 H 2.602467 2.741295 0.094223 0
M  V30 69 H 2.548417 1.881187 1.616729 0
M  V30 END ATOM
M  V30 BEGIN BOND
M  V30 1 1 1 2
M  V30 2 1 2 3
M  V30 3 1 3 4
M  V30 4 1 4 5
M  V30 5 1 4 6
M  V30 6 2 6 7
M  V30 7 1 7 8
M  V30 8 2 8 9
M  V30 9 1 9 10
M  V30 10 1 10 11
M  V30 11 1 11 12
M  V30 12 1 12 13
M  V30 13 1 13 14
M  V30 14 1 14 15
M  V30 15 2 15 16
M  V30 16 1 15 17
M  V30 17 1 17 18
M  V30 18 1 18 19
M  V30 19 1 19 20
M  V30 20 1 20 21
M  V30 21 1 21 22
M  V30 22 1 22 23
M  V30 23 1 23 24
M  V30 24 1 24 25
M  V30 25 1 17 26
M  V30 26 2 26 27
M  V30 27 1 27 28
M  V30 28 2 28 29
M  V30 29 1 29 30
M  V30 30 1 29 31
M  V30 31 1 31 32
M  V30 32 2 31 33
M  V30 33 1 14 34
M  V30 34 1 34 35
M  V30 35 2 10 36
M  V30 36 1 36 2
M  V30 37 1 36 6
M  V30 38 1 35 11
M  V30 39 1 25 20
M  V30 40 1 33 26
M  V30 41 1 1 37
M  V30 42 1 1 38
M  V30 43 1 1 39
M  V30 44 1 2 40 CFG=3
M  V30 45 1 3 41
M  V30 46 1 3 42
M  V30 47 1 4 43 CFG=1
M  V30 48 1 5 44
M  V30 49 1 8 45
M  V30 50 1 12 46
M  V30 51 1 12 47
M  V30 52 1 13 48
M  V30 53 1 13 49
M  V30 54 1 17 50 CFG=1
M  V30 55 1 18 51
M  V30 56 1 18 52
M  V30 57 1 19 53
M  V30 58 1 20 54
M  V30 59 1 21 55
M  V30 60 1 21 56
M  V30 61 1 22 57
M  V30 62 1 22 58
M  V30 63 1 24 59
M  V30 64 1 24 60
M  V30 65 1 25 61
M  V30 66 1 25 62
M  V30 67 1 27 63
M  V30 68 1 28 64
M  V30 69 1 33 65
M  V30 70 1 34 66
M  V30 71 1 34 67
M  V30 72 1 35 68
M  V30 73 1 35 69
M  V30 END BOND
M  V30 END CTAB
M  END
>  <Dataset>  (990) 
ChEMBL_Kinases

>  <Ligand_Instance>  (990) 
nan

>  <PDB_ID>  (990) 
nan

>  <Standardized_SMILES>  (990) 
C[C@@H]1C[C@@H](O)c2ncnc(N3CCN(C(=O)[C@H](CNC4CCOCC4)c4ccc(Cl)c(F)c4)CC3)c21

>  <Name>  (990) 
nan

>  <Pocket>  (990) 
nan

>  <ATP_Site>  (990) 
nan

>  <Peripheral>  (990) 
nan

>  <Num_H_Atoms_ProtBoundConf>  (990) 
nan

>  <Num_Resolved_Atoms>  (990) 
nan

>  <Num_Not_Resolved_Atoms>  (990) 
nan

$$$$
CHEMBL2177361
     RDKit          3D

  0  0  0  0  0  0  0  0  0  0999 V3000
M  V30 BEGIN CTAB
M  V30 COUNTS 68 72 0 0 0
M  V30 BEGIN ATOM
M  V30 1 C 3.502959 -1.093794 2.759338 0
M  V30 2 C 2.928485 -1.888483 1.643988 0 CFG=2
M  V30 3 C 3.606102 -3.279048 1.764619 0
M  V30 4 C 3.313426 -3.850700 0.407134 0 CFG=1
M  V30 5 O 1.995920 -4.313238 0.445826 0
M  V30 6 C 3.466924 -2.656643 -0.452317 0
M  V30 7 N 3.770501 -2.701117 -1.756397 0
M  V30 8 C 3.870154 -1.598786 -2.481255 0
M  V30 9 N 3.642234 -0.486837 -1.793069 0
M  V30 10 C 3.336140 -0.394218 -0.489746 0
M  V30 11 N 3.154740 0.952171 0.000221 0
M  V30 12 C 2.767007 1.911059 -1.063617 0
M  V30 13 C 1.561345 2.689405 -0.684300 0
M  V30 14 N 0.938322 2.084682 0.469410 0
M  V30 15 C -0.365161 1.578872 0.273364 0
M  V30 16 O -0.688539 1.792702 -0.942076 0
M  V30 17 C -1.575468 0.916063 0.755133 0 CFG=2
M  V30 18 C -1.187988 -0.456842 1.273698 0
M  V30 19 N -2.379461 -1.138903 1.762987 0
M  V30 20 C -1.936869 -2.455294 2.247619 0
M  V30 21 C -3.120846 -3.198842 2.769273 0
M  V30 22 C -4.245041 -3.476690 1.816393 0
M  V30 23 C -3.398909 -4.598827 2.371229 0
M  V30 24 C -2.608151 0.772465 -0.294061 0
M  V30 25 C -3.833825 1.384623 -0.092079 0
M  V30 26 C -4.903920 1.336590 -0.992592 0
M  V30 27 C -4.702612 0.621930 -2.160787 0
M  V30 28 C -5.784200 0.518658 -3.168910 0
M  V30 29 F -6.927192 1.195862 -2.784668 0
M  V30 30 F -6.191624 -0.812101 -3.325103 0
M  V30 31 F -5.363097 0.931401 -4.395879 0
M  V30 32 C -3.476748 -0.002655 -2.385790 0
M  V30 33 F -3.222653 -0.717429 -3.514072 0
M  V30 34 C -2.442285 0.070420 -1.466213 0
M  V30 35 C 1.818803 2.124766 1.640078 0
M  V30 36 C 3.223028 1.796067 1.166195 0
M  V30 37 C 3.227967 -1.519208 0.284902 0
M  V30 38 H 4.525071 -0.761989 2.487922 0
M  V30 39 H 3.658620 -1.782135 3.637106 0
M  V30 40 H 2.820182 -0.323513 3.105919 0
M  V30 41 H 1.844081 -2.097737 1.809856 0
M  V30 42 H 3.194555 -3.819544 2.610574 0
M  V30 43 H 4.697313 -3.084406 1.813832 0
M  V30 44 H 4.012622 -4.683223 0.141620 0
M  V30 45 H 1.951276 -5.291939 0.590328 0
M  V30 46 H 4.106844 -1.539537 -3.521143 0
M  V30 47 H 2.667866 1.395571 -2.048788 0
M  V30 48 H 3.625862 2.597523 -1.195969 0
M  V30 49 H 0.871513 2.829793 -1.543129 0
M  V30 50 H 1.876965 3.707344 -0.352978 0
M  V30 51 H -2.016239 1.523400 1.570082 0
M  V30 52 H -0.503739 -0.400890 2.128951 0
M  V30 53 H -0.682917 -1.029910 0.480033 0
M  V30 54 H -2.816305 -0.608535 2.539253 0
M  V30 55 H -1.188746 -2.223059 3.033030 0
M  V30 56 H -1.404314 -2.983696 1.433948 0
M  V30 57 H -3.376917 -2.925290 3.824724 0
M  V30 58 H -4.080086 -3.281677 0.745954 0
M  V30 59 H -5.267610 -3.331283 2.227746 0
M  V30 60 H -3.888586 -5.259432 3.122345 0
M  V30 61 H -2.750515 -5.163751 1.662297 0
M  V30 62 H -4.035773 1.957712 0.814680 0
M  V30 63 H -5.835019 1.840836 -0.767879 0
M  V30 64 H -1.486128 -0.411184 -1.630547 0
M  V30 65 H 1.833639 3.201027 1.956222 0
M  V30 66 H 1.450624 1.484151 2.445239 0
M  V30 67 H 3.706479 2.781085 0.842780 0
M  V30 68 H 3.902692 1.465342 1.962286 0
M  V30 END ATOM
M  V30 BEGIN BOND
M  V30 1 1 1 2
M  V30 2 1 2 3
M  V30 3 1 3 4
M  V30 4 1 4 5
M  V30 5 1 4 6
M  V30 6 2 6 7
M  V30 7 1 7 8
M  V30 8 2 8 9
M  V30 9 1 9 10
M  V30 10 1 10 11
M  V30 11 1 11 12
M  V30 12 1 12 13
M  V30 13 1 13 14
M  V30 14 1 14 15
M  V30 15 2 15 16
M  V30 16 1 15 17
M  V30 17 1 17 18
M  V30 18 1 18 19
M  V30 19 1 19 20
M  V30 20 1 20 21
M  V30 21 1 21 22
M  V30 22 1 22 23
M  V30 23 1 17 24
M  V30 24 2 24 25
M  V30 25 1 25 26
M  V30 26 2 26 27
M  V30 27 1 27 28
M  V30 28 1 28 29
M  V30 29 1 28 30
M  V30 30 1 28 31
M  V30 31 1 27 32
M  V30 32 1 32 33
M  V30 33 2 32 34
M  V30 34 1 14 35
M  V30 35 1 35 36
M  V30 36 2 10 37
M  V30 37 1 37 2
M  V30 38 1 37 6
M  V30 39 1 36 11
M  V30 40 1 23 21
M  V30 41 1 34 24
M  V30 42 1 1 38
M  V30 43 1 1 39
M  V30 44 1 1 40
M  V30 45 1 2 41 CFG=3
M  V30 46 1 3 42
M  V30 47 1 3 43
M  V30 48 1 4 44 CFG=3
M  V30 49 1 5 45
M  V30 50 1 8 46
M  V30 51 1 12 47
M  V30 52 1 12 48
M  V30 53 1 13 49
M  V30 54 1 13 50
M  V30 55 1 17 51 CFG=1
M  V30 56 1 18 52
M  V30 57 1 18 53
M  V30 58 1 19 54
M  V30 59 1 20 55
M  V30 60 1 20 56
M  V30 61 1 21 57
M  V30 62 1 22 58
M  V30 63 1 22 59
M  V30 64 1 23 60
M  V30 65 1 23 61
M  V30 66 1 25 62
M  V30 67 1 26 63
M  V30 68 1 34 64
M  V30 69 1 35 65
M  V30 70 1 35 66
M  V30 71 1 36 67
M  V30 72 1 36 68
M  V30 END BOND
M  V30 END CTAB
M  END
>  <Dataset>  (991) 
ChEMBL_Kinases

>  <Ligand_Instance>  (991) 
nan

>  <PDB_ID>  (991) 
nan

>  <Standardized_SMILES>  (991) 
C[C@@H]1C[C@@H](O)c2ncnc(N3CCN(C(=O)[C@H](CNCC4CC4)c4ccc(C(F)(F)F)c(F)c4)CC3)c21

>  <Name>  (991) 
nan

>  <Pocket>  (991) 
nan

>  <ATP_Site>  (991) 
nan

>  <Peripheral>  (991) 
nan

>  <Num_H_Atoms_ProtBoundConf>  (991) 
nan

>  <Num_Resolved_Atoms>  (991) 
nan

>  <Num_Not_Resolved_Atoms>  (991) 
nan

$$$$
CHEMBL4577938
     RDKit          3D

  0  0  0  0  0  0  0  0  0  0999 V3000
M  V30 BEGIN CTAB
M  V30 COUNTS 58 63 0 0 0
M  V30 BEGIN ATOM
M  V30 1 C 3.461072 -4.390560 1.717702 0
M  V30 2 N 4.084068 -3.420123 0.824384 0
M  V30 3 C 5.354636 -3.799288 0.252172 0
M  V30 4 C 5.941752 -2.628102 -0.485389 0
M  V30 5 O 5.423872 -1.385920 -0.116719 0
M  V30 6 C 4.092560 -1.102699 0.101298 0
M  V30 7 C 3.383216 -2.192308 0.602349 0
M  V30 8 C 2.038688 -2.006334 0.855371 0
M  V30 9 N 1.437528 -0.819902 0.625387 0
M  V30 10 N 2.077749 0.225314 0.155328 0
M  V30 11 C 1.784949 1.518741 -0.146040 0
M  V30 12 C 0.460817 2.170608 0.014079 0
M  V30 13 C 0.635527 3.551316 0.272499 0
M  V30 14 C -0.409406 4.375846 0.625773 0
M  V30 15 C -1.691829 3.931495 0.751582 0
M  V30 16 C -2.844957 4.591418 1.080348 0
M  V30 17 C -4.016936 3.821565 1.107420 0
M  V30 18 C -3.895820 2.420850 0.786674 0
M  V30 19 C -2.664819 1.591635 0.407668 0
M  V30 20 N -3.525164 0.511626 0.312534 0
M  V30 21 C -2.861267 -0.537327 -0.411646 0
M  V30 22 C -2.056933 -1.403385 0.484929 0
M  V30 23 C -2.951333 -2.054008 1.526432 0
M  V30 24 C -3.910364 -3.034161 0.890505 0
M  V30 25 N -3.218332 -4.067528 0.156871 0
M  V30 26 C -2.323495 -3.494135 -0.834168 0
M  V30 27 C -1.346216 -2.506687 -0.275651 0
M  V30 28 C -1.849613 2.616677 0.498465 0
M  V30 29 N -0.808514 1.784286 0.147140 0
M  V30 30 N 2.877061 2.113663 -0.563120 0
M  V30 31 N 3.884685 1.221406 -0.539419 0
M  V30 32 C 3.391646 0.052592 -0.093783 0
M  V30 33 H 4.254578 -5.008376 2.188701 0
M  V30 34 H 2.961186 -3.778611 2.521039 0
M  V30 35 H 2.657239 -4.974135 1.234041 0
M  V30 36 H 5.196122 -4.650062 -0.479007 0
M  V30 37 H 6.078637 -4.144918 1.026872 0
M  V30 38 H 5.797486 -2.796700 -1.577995 0
M  V30 39 H 7.049229 -2.659924 -0.310493 0
M  V30 40 H 1.528850 -2.887911 1.258580 0
M  V30 41 H 1.551709 4.117476 0.235036 0
M  V30 42 H -0.305052 5.446590 0.832516 0
M  V30 43 H -2.644599 5.631315 1.267258 0
M  V30 44 H -4.799581 4.543071 1.386454 0
M  V30 45 H -5.015003 2.279995 0.942957 0
M  V30 46 H -4.415752 0.108302 0.539117 0
M  V30 47 H -3.648313 -1.173238 -0.922293 0
M  V30 48 H -2.254624 -0.143629 -1.282504 0
M  V30 49 H -1.314575 -0.816794 1.038033 0
M  V30 50 H -3.558178 -1.250489 1.988810 0
M  V30 51 H -2.312349 -2.499551 2.303981 0
M  V30 52 H -4.620105 -2.478444 0.251696 0
M  V30 53 H -4.513226 -3.489774 1.681952 0
M  V30 54 H -3.916773 -4.647298 -0.337786 0
M  V30 55 H -2.826826 -3.040024 -1.693988 0
M  V30 56 H -1.727893 -4.352578 -1.232815 0
M  V30 57 H -0.617416 -2.976931 0.412636 0
M  V30 58 H -0.794990 -2.051785 -1.116504 0
M  V30 END ATOM
M  V30 BEGIN BOND
M  V30 1 1 1 2
M  V30 2 1 2 3
M  V30 3 1 3 4
M  V30 4 1 4 5
M  V30 5 1 5 6
M  V30 6 2 6 7
M  V30 7 1 7 8
M  V30 8 2 8 9
M  V30 9 1 9 10
M  V30 10 1 10 11
M  V30 11 1 11 12
M  V30 12 2 12 13
M  V30 13 1 13 14
M  V30 14 2 14 15
M  V30 15 1 15 16
M  V30 16 2 16 17
M  V30 17 1 17 18
M  V30 18 2 18 19
M  V30 19 1 19 20
M  V30 20 1 20 21
M  V30 21 1 21 22
M  V30 22 1 22 23
M  V30 23 1 23 24
M  V30 24 1 24 25
M  V30 25 1 25 26
M  V30 26 1 26 27
M  V30 27 1 19 28
M  V30 28 2 28 29
M  V30 29 2 11 30
M  V30 30 1 30 31
M  V30 31 2 31 32
M  V30 32 1 7 2
M  V30 33 1 32 10
M  V30 34 1 32 6
M  V30 35 1 29 12
M  V30 36 1 28 15
M  V30 37 1 27 22
M  V30 38 1 1 33
M  V30 39 1 1 34
M  V30 40 1 1 35
M  V30 41 1 3 36
M  V30 42 1 3 37
M  V30 43 1 4 38
M  V30 44 1 4 39
M  V30 45 1 8 40
M  V30 46 1 13 41
M  V30 47 1 14 42
M  V30 48 1 16 43
M  V30 49 1 17 44
M  V30 50 1 18 45
M  V30 51 1 20 46
M  V30 52 1 21 47
M  V30 53 1 21 48
M  V30 54 1 22 49
M  V30 55 1 23 50
M  V30 56 1 23 51
M  V30 57 1 24 52
M  V30 58 1 24 53
M  V30 59 1 25 54
M  V30 60 1 26 55
M  V30 61 1 26 56
M  V30 62 1 27 57
M  V30 63 1 27 58
M  V30 END BOND
M  V30 END CTAB
M  END
>  <Dataset>  (992) 
ChEMBL_Kinases

>  <Ligand_Instance>  (992) 
nan

>  <PDB_ID>  (992) 
nan

>  <Standardized_SMILES>  (992) 
CN1CCOc2c1cnn1c(-c3ccc4cccc(NCC5CCNCC5)c4n3)nnc21

>  <Name>  (992) 
nan

>  <Pocket>  (992) 
nan

>  <ATP_Site>  (992) 
nan

>  <Peripheral>  (992) 
nan

>  <Num_H_Atoms_ProtBoundConf>  (992) 
nan

>  <Num_Resolved_Atoms>  (992) 
nan

>  <Num_Not_Resolved_Atoms>  (992) 
nan

$$$$
CHEMBL212174
     RDKit          3D

  0  0  0  0  0  0  0  0  0  0999 V3000
M  V30 BEGIN CTAB
M  V30 COUNTS 32 35 0 0 0
M  V30 BEGIN ATOM
M  V30 1 O -1.764695 0.917018 2.746609 0
M  V30 2 N -1.829126 0.342250 1.645145 0
M  V30 3 C -1.196367 -0.875322 1.407103 0
M  V30 4 C 0.014081 -1.030156 0.810228 0
M  V30 5 C 1.068299 -0.231470 0.243368 0
M  V30 6 C 2.352832 -0.676658 0.005411 0
M  V30 7 O 2.953672 -1.908966 0.252096 0
M  V30 8 N 3.111558 0.276016 -0.559596 0
M  V30 9 C 2.377921 1.388470 -0.724771 0
M  V30 10 C 2.664545 2.625666 -1.260349 0
M  V30 11 F 3.897195 2.883049 -1.723639 0
M  V30 12 C 1.694716 3.596602 -1.322271 0
M  V30 13 C 0.439074 3.296169 -0.836996 0
M  V30 14 C 0.205927 2.047594 -0.312770 0
M  V30 15 C 1.140253 1.048900 -0.228048 0
M  V30 16 N 0.168283 -2.373846 0.868447 0
M  V30 17 C -0.855104 -3.016409 1.449866 0
M  V30 18 C -1.176530 -4.328578 1.743087 0
M  V30 19 C -2.360488 -4.644616 2.371624 0
M  V30 20 C -3.282106 -3.690867 2.740958 0
M  V30 21 C -2.951965 -2.387016 2.444130 0
M  V30 22 C -1.769878 -2.056985 1.815107 0
M  V30 23 H 3.811533 -1.955844 0.778259 0
M  V30 24 H 4.114475 0.243242 -0.853441 0
M  V30 25 H 1.916385 4.568533 -1.741538 0
M  V30 26 H -0.309600 4.074821 -0.896243 0
M  V30 27 H -0.794035 1.904307 0.014772 0
M  V30 28 H 0.954027 -3.004313 0.531292 0
M  V30 29 H -0.497158 -5.102501 1.477456 0
M  V30 30 H -2.575968 -5.687034 2.584473 0
M  V30 31 H -4.200743 -3.978759 3.232936 0
M  V30 32 H -3.623125 -1.607591 2.704671 0
M  V30 END ATOM
M  V30 BEGIN BOND
M  V30 1 2 1 2
M  V30 2 1 2 3
M  V30 3 2 3 4
M  V30 4 1 4 5
M  V30 5 2 5 6
M  V30 6 1 6 7
M  V30 7 1 6 8
M  V30 8 1 8 9
M  V30 9 2 9 10
M  V30 10 1 10 11
M  V30 11 1 10 12
M  V30 12 2 12 13
M  V30 13 1 13 14
M  V30 14 2 14 15
M  V30 15 1 4 16
M  V30 16 1 16 17
M  V30 17 2 17 18
M  V30 18 1 18 19
M  V30 19 2 19 20
M  V30 20 1 20 21
M  V30 21 2 21 22
M  V30 22 1 22 3
M  V30 23 1 15 5
M  V30 24 1 22 17
M  V30 25 1 15 9
M  V30 26 1 7 23
M  V30 27 1 8 24
M  V30 28 1 12 25
M  V30 29 1 13 26
M  V30 30 1 14 27
M  V30 31 1 16 28
M  V30 32 1 18 29
M  V30 33 1 19 30
M  V30 34 1 20 31
M  V30 35 1 21 32
M  V30 END BOND
M  V30 END CTAB
M  END
>  <Dataset>  (993) 
ChEMBL_Kinases

>  <Ligand_Instance>  (993) 
nan

>  <PDB_ID>  (993) 
nan

>  <Standardized_SMILES>  (993) 
O=Nc1c(-c2c(O)[nH]c3c(F)cccc23)[nH]c2ccccc12

>  <Name>  (993) 
nan

>  <Pocket>  (993) 
nan

>  <ATP_Site>  (993) 
nan

>  <Peripheral>  (993) 
nan

>  <Num_H_Atoms_ProtBoundConf>  (993) 
nan

>  <Num_Resolved_Atoms>  (993) 
nan

>  <Num_Not_Resolved_Atoms>  (993) 
nan

$$$$
CHEMBL2164716
     RDKit          3D

  0  0  0  0  0  0  0  0  0  0999 V3000
M  V30 BEGIN CTAB
M  V30 COUNTS 65 70 0 0 0
M  V30 BEGIN ATOM
M  V30 1 C 0.311184 0.925699 3.930438 0
M  V30 2 C 1.308356 0.604511 2.916498 0
M  V30 3 C 0.996812 -0.261308 1.878029 0
M  V30 4 C 1.975382 -0.618120 0.972743 0
M  V30 5 C 3.283083 -0.131140 1.063238 0
M  V30 6 C 3.507397 0.718977 2.113193 0
M  V30 7 N 2.576270 1.101127 3.034099 0 CHG=1 VAL=4
M  V30 8 C 3.049531 2.022788 4.034681 0
M  V30 9 C 2.912714 3.394295 3.537040 0
M  V30 10 C 3.957416 3.951761 2.782439 0
M  V30 11 C 3.961441 5.222567 2.259201 0
M  V30 12 C 2.877202 6.039812 2.469998 0
M  V30 13 C 1.829681 5.550020 3.198481 0
M  V30 14 C 1.890164 4.276795 3.690268 0
M  V30 15 C 1.496295 -1.503519 0.008374 0
M  V30 16 C 2.078643 -2.129039 -1.075167 0
M  V30 17 C 1.291246 -2.973492 -1.848914 0
M  V30 18 C -0.043632 -3.154565 -1.504238 0
M  V30 19 O -0.771022 -4.014372 -2.324579 0
M  V30 20 C -2.117464 -4.339070 -2.165041 0
M  V30 21 C -2.515132 -5.290417 -3.251071 0
M  V30 22 C -3.000425 -4.809578 -4.440320 0
M  V30 23 C -3.368387 -5.686078 -5.445016 0
M  V30 24 C -3.254682 -7.057147 -5.270790 0
M  V30 25 C -2.758952 -7.532665 -4.054667 0
M  V30 26 C -2.396626 -6.655017 -3.064147 0
M  V30 27 C -0.606266 -2.511449 -0.406047 0
M  V30 28 C 0.195338 -1.674138 0.351992 0
M  V30 29 N -0.094906 -0.929490 1.464105 0
M  V30 30 C -1.396590 -0.884456 2.100792 0
M  V30 31 C -2.309165 0.057982 1.390617 0
M  V30 32 C -3.481581 -0.435706 0.788387 0
M  V30 33 C -4.423203 0.270952 0.074332 0
M  V30 34 C -4.190426 1.618731 -0.067079 0
M  V30 35 C -3.071162 2.196606 0.485089 0
M  V30 36 C -2.195180 1.407346 1.176423 0
M  V30 37 H 0.175230 0.056848 4.666246 0
M  V30 38 H -0.630763 1.350879 3.631894 0
M  V30 39 H 0.738501 1.690694 4.635307 0
M  V30 40 H 4.054555 -0.405914 0.358172 0
M  V30 41 H 4.544099 1.088275 2.165490 0
M  V30 42 H 2.656454 1.847288 5.056213 0
M  V30 43 H 4.164445 1.853041 4.170140 0
M  V30 44 H 4.885941 3.414615 2.537973 0
M  V30 45 H 4.763640 5.641280 1.683510 0
M  V30 46 H 2.850746 7.037773 2.073939 0
M  V30 47 H 0.976175 6.192445 3.364843 0
M  V30 48 H 1.031427 3.969251 4.253832 0
M  V30 49 H 3.123775 -1.963780 -1.313918 0
M  V30 50 H 1.742716 -3.468415 -2.702165 0
M  V30 51 H -2.358843 -4.862028 -1.207370 0
M  V30 52 H -2.816894 -3.484444 -2.208234 0
M  V30 53 H -3.117599 -3.759348 -4.649948 0
M  V30 54 H -3.761942 -5.418865 -6.419637 0
M  V30 55 H -3.524491 -7.795132 -6.015389 0
M  V30 56 H -2.671808 -8.607612 -3.923146 0
M  V30 57 H -2.011635 -7.028839 -2.120071 0
M  V30 58 H -1.652228 -2.676665 -0.166886 0
M  V30 59 H -1.835089 -1.913884 1.901486 0
M  V30 60 H -1.407610 -0.830617 3.175721 0
M  V30 61 H -3.717631 -1.507447 0.870504 0
M  V30 62 H -5.291225 -0.193486 -0.350897 0
M  V30 63 H -4.879883 2.245287 -0.612306 0
M  V30 64 H -2.884371 3.254569 0.376520 0
M  V30 65 H -1.330106 1.897225 1.569588 0
M  V30 END ATOM
M  V30 BEGIN BOND
M  V30 1 1 1 2
M  V30 2 2 2 3
M  V30 3 1 3 4
M  V30 4 2 4 5
M  V30 5 1 5 6
M  V30 6 2 6 7
M  V30 7 1 7 8
M  V30 8 1 8 9
M  V30 9 2 9 10
M  V30 10 1 10 11
M  V30 11 2 11 12
M  V30 12 1 12 13
M  V30 13 2 13 14
M  V30 14 1 4 15
M  V30 15 2 15 16
M  V30 16 1 16 17
M  V30 17 2 17 18
M  V30 18 1 18 19
M  V30 19 1 19 20
M  V30 20 1 20 21
M  V30 21 2 21 22
M  V30 22 1 22 23
M  V30 23 2 23 24
M  V30 24 1 24 25
M  V30 25 2 25 26
M  V30 26 1 18 27
M  V30 27 2 27 28
M  V30 28 1 28 29
M  V30 29 1 29 30
M  V30 30 1 30 31
M  V30 31 2 31 32
M  V30 32 1 32 33
M  V30 33 2 33 34
M  V30 34 1 34 35
M  V30 35 2 35 36
M  V30 36 1 7 2
M  V30 37 1 14 9
M  V30 38 1 28 15
M  V30 39 1 36 31
M  V30 40 1 29 3
M  V30 41 1 26 21
M  V30 42 1 1 37
M  V30 43 1 1 38
M  V30 44 1 1 39
M  V30 45 1 5 40
M  V30 46 1 6 41
M  V30 47 1 8 42
M  V30 48 1 8 43
M  V30 49 1 10 44
M  V30 50 1 11 45
M  V30 51 1 12 46
M  V30 52 1 13 47
M  V30 53 1 14 48
M  V30 54 1 16 49
M  V30 55 1 17 50
M  V30 56 1 20 51
M  V30 57 1 20 52
M  V30 58 1 22 53
M  V30 59 1 23 54
M  V30 60 1 24 55
M  V30 61 1 25 56
M  V30 62 1 26 57
M  V30 63 1 27 58
M  V30 64 1 30 59
M  V30 65 1 30 60
M  V30 66 1 32 61
M  V30 67 1 33 62
M  V30 68 1 34 63
M  V30 69 1 35 64
M  V30 70 1 36 65
M  V30 END BOND
M  V30 END CTAB
M  END
>  <Dataset>  (994) 
ChEMBL_Kinases

>  <Ligand_Instance>  (994) 
nan

>  <PDB_ID>  (994) 
nan

>  <Standardized_SMILES>  (994) 
Cc1c2c(cc[n+]1Cc1ccccc1)c1ccc(OCc3ccccc3)cc1n2Cc1ccccc1

>  <Name>  (994) 
nan

>  <Pocket>  (994) 
nan

>  <ATP_Site>  (994) 
nan

>  <Peripheral>  (994) 
nan

>  <Num_H_Atoms_ProtBoundConf>  (994) 
nan

>  <Num_Resolved_Atoms>  (994) 
nan

>  <Num_Not_Resolved_Atoms>  (994) 
nan

$$$$
CHEMBL4582239
     RDKit          3D

  0  0  0  0  0  0  0  0  0  0999 V3000
M  V30 BEGIN CTAB
M  V30 COUNTS 40 43 0 0 0
M  V30 BEGIN ATOM
M  V30 1 C 3.863500 -6.017023 1.875997 0
M  V30 2 C 3.743755 -4.956807 2.942393 0
M  V30 3 O 2.684846 -4.094207 2.521998 0
M  V30 4 C 2.347217 -3.021420 3.310843 0
M  V30 5 O 3.050216 -2.923652 4.365551 0
M  V30 6 C 1.327346 -1.965886 3.165916 0
M  V30 7 O 0.580317 -2.139912 1.963925 0
M  V30 8 N -0.426595 -1.246212 1.649559 0
M  V30 9 C -0.291915 -0.320647 0.760954 0
M  V30 10 C 0.865816 -0.034604 -0.047341 0
M  V30 11 C 2.098389 -0.652248 -0.086627 0
M  V30 12 C 3.061539 -0.185489 -0.962805 0
M  V30 13 C 2.735723 0.903639 -1.776933 0
M  V30 14 C 1.498353 1.531565 -1.744506 0
M  V30 15 C 0.562920 1.037544 -0.857307 0
M  V30 16 C -0.803397 1.472338 -0.591214 0
M  V30 17 N -1.525396 2.471001 -1.135377 0
M  V30 18 C -2.782038 2.635278 -0.680840 0
M  V30 19 C -3.576777 3.633769 -1.190078 0
M  V30 20 C -4.889098 3.864162 -0.767807 0
M  V30 21 C -5.427982 3.040063 0.223761 0
M  V30 22 C -4.613404 2.046366 0.719245 0
M  V30 23 C -3.317195 1.811222 0.308906 0
M  V30 24 N -2.591396 0.812398 0.851392 0
M  V30 25 C -1.329598 0.640923 0.400797 0
M  V30 26 H 2.843165 -6.386719 1.652001 0
M  V30 27 H 4.337595 -5.511981 0.996087 0
M  V30 28 H 4.505550 -6.826267 2.253832 0
M  V30 29 H 4.695084 -4.383103 2.973927 0
M  V30 30 H 3.479103 -5.340157 3.929173 0
M  V30 31 H 1.846910 -0.969078 3.068066 0
M  V30 32 H 0.680070 -1.871388 4.054305 0
M  V30 33 H 2.406080 -1.493889 0.515769 0
M  V30 34 H 4.052141 -0.611767 -1.056816 0
M  V30 35 H 3.438808 1.323212 -2.486748 0
M  V30 36 H 1.261374 2.359524 -2.368532 0
M  V30 37 H -3.212754 4.311639 -1.967813 0
M  V30 38 H -5.510389 4.644130 -1.165375 0
M  V30 39 H -6.440515 3.176830 0.586079 0
M  V30 40 H -5.023887 1.388409 1.501470 0
M  V30 END ATOM
M  V30 BEGIN BOND
M  V30 1 1 1 2
M  V30 2 1 2 3
M  V30 3 1 3 4
M  V30 4 2 4 5
M  V30 5 1 4 6
M  V30 6 1 6 7
M  V30 7 1 7 8
M  V30 8 2 8 9
M  V30 9 1 9 10
M  V30 10 2 10 11
M  V30 11 1 11 12
M  V30 12 2 12 13
M  V30 13 1 13 14
M  V30 14 2 14 15
M  V30 15 1 15 16
M  V30 16 2 16 17
M  V30 17 1 17 18
M  V30 18 2 18 19
M  V30 19 1 19 20
M  V30 20 2 20 21
M  V30 21 1 21 22
M  V30 22 2 22 23
M  V30 23 1 23 24
M  V30 24 2 24 25
M  V30 25 1 25 9
M  V30 26 1 15 10
M  V30 27 1 25 16
M  V30 28 1 23 18
M  V30 29 1 1 26
M  V30 30 1 1 27
M  V30 31 1 1 28
M  V30 32 1 2 29
M  V30 33 1 2 30
M  V30 34 1 6 31
M  V30 35 1 6 32
M  V30 36 1 11 33
M  V30 37 1 12 34
M  V30 38 1 13 35
M  V30 39 1 14 36
M  V30 40 1 19 37
M  V30 41 1 20 38
M  V30 42 1 21 39
M  V30 43 1 22 40
M  V30 END BOND
M  V30 END CTAB
M  END
>  <Dataset>  (995) 
ChEMBL_Kinases

>  <Ligand_Instance>  (995) 
nan

>  <PDB_ID>  (995) 
nan

>  <Standardized_SMILES>  (995) 
CCOC(=O)CO/N=C1\c2ccccc2-c2nc3ccccc3nc21

>  <Name>  (995) 
nan

>  <Pocket>  (995) 
nan

>  <ATP_Site>  (995) 
nan

>  <Peripheral>  (995) 
nan

>  <Num_H_Atoms_ProtBoundConf>  (995) 
nan

>  <Num_Resolved_Atoms>  (995) 
nan

>  <Num_Not_Resolved_Atoms>  (995) 
nan

$$$$
CHEMBL4574072
     RDKit          3D

  0  0  0  0  0  0  0  0  0  0999 V3000
M  V30 BEGIN CTAB
M  V30 COUNTS 72 75 0 0 0
M  V30 BEGIN ATOM
M  V30 1 C 7.104553 -3.515393 0.896623 0
M  V30 2 C 7.685507 -2.253160 0.327759 0
M  V30 3 C 6.851218 -1.652807 -0.760923 0
M  V30 4 N 5.520857 -1.306269 -0.310124 0
M  V30 5 C 4.743269 -0.737108 -1.357620 0
M  V30 6 O 5.370664 -0.652796 -2.454903 0
M  V30 7 C 3.357485 -0.291925 -1.190568 0
M  V30 8 C 2.651836 -0.377502 -0.015225 0
M  V30 9 C 1.338765 0.069551 0.057763 0
M  V30 10 C 0.689301 0.613886 -1.032933 0
M  V30 11 N -0.660652 1.077193 -0.971616 0
M  V30 12 C -1.342000 0.963060 0.274255 0
M  V30 13 N -1.264803 1.989762 1.142968 0
M  V30 14 C -1.870121 1.989514 2.349927 0
M  V30 15 C -2.607448 0.892358 2.727659 0
M  V30 16 C -2.696875 -0.183608 1.835834 0
M  V30 17 N -2.058417 -0.117501 0.627547 0
M  V30 18 N -3.430704 -1.397548 2.108205 0
M  V30 19 C -3.158760 -2.671622 1.537652 0
M  V30 20 C -4.197050 -3.173079 0.558640 0
M  V30 21 C -3.434366 -3.776822 -0.606254 0
M  V30 22 C -2.042307 -3.176299 -0.534835 0
M  V30 23 C -1.816339 -2.895519 0.945379 0
M  V30 24 C -4.517783 -1.191138 3.045689 0 CFG=2
M  V30 25 C -5.775233 -0.677194 2.430922 0
M  V30 26 C -5.631671 0.654482 1.731771 0
M  V30 27 C -4.069735 -0.438776 4.246609 0
M  V30 28 O -4.259053 -0.703674 5.469186 0
M  V30 29 N -3.322832 0.745652 3.971335 0
M  V30 30 C -3.229281 1.868424 4.903247 0
M  V30 31 C 1.439355 0.680161 -2.195986 0
M  V30 32 O 0.833140 1.218956 -3.320273 0
M  V30 33 C 1.458492 1.355551 -4.573071 0
M  V30 34 C 0.422791 1.990354 -5.496136 0
M  V30 35 O -0.690063 1.161286 -5.577433 0
M  V30 36 C 2.744097 0.242759 -2.292533 0
M  V30 37 H 7.386221 -4.382719 0.287299 0
M  V30 38 H 6.011531 -3.383439 1.037313 0
M  V30 39 H 7.551934 -3.637452 1.925993 0
M  V30 40 H 7.906003 -1.543696 1.163783 0
M  V30 41 H 8.681622 -2.490711 -0.131292 0
M  V30 42 H 6.836024 -2.384375 -1.593744 0
M  V30 43 H 7.378692 -0.744750 -1.117308 0
M  V30 44 H 5.078605 -1.413734 0.635770 0
M  V30 45 H 3.144374 -0.801642 0.850899 0
M  V30 46 H 0.818810 -0.015835 1.001413 0
M  V30 47 H -1.069376 1.467885 -1.826973 0
M  V30 48 H -1.819113 2.802420 3.058332 0
M  V30 49 H -3.235912 -3.418838 2.401425 0
M  V30 50 H -4.864341 -3.954328 0.966687 0
M  V30 51 H -4.824080 -2.378904 0.118554 0
M  V30 52 H -3.427775 -4.884980 -0.553251 0
M  V30 53 H -3.896671 -3.517395 -1.578884 0
M  V30 54 H -1.976909 -2.285636 -1.169792 0
M  V30 55 H -1.342408 -3.933090 -0.942993 0
M  V30 56 H -1.337037 -3.857063 1.318634 0
M  V30 57 H -1.047585 -2.136751 1.142240 0
M  V30 58 H -4.778802 -2.218653 3.443797 0
M  V30 59 H -6.498782 -0.527139 3.267495 0
M  V30 60 H -6.215734 -1.463411 1.802145 0
M  V30 61 H -4.878129 0.686270 0.947832 0
M  V30 62 H -5.435101 1.437625 2.465769 0
M  V30 63 H -6.618162 0.819047 1.208845 0
M  V30 64 H -2.168579 2.205026 4.981293 0
M  V30 65 H -3.519908 1.511413 5.904297 0
M  V30 66 H -3.822444 2.739748 4.594465 0
M  V30 67 H 1.848661 0.429867 -5.000209 0
M  V30 68 H 2.275842 2.108636 -4.449453 0
M  V30 69 H 0.854099 2.186112 -6.513907 0
M  V30 70 H 0.095359 2.970575 -5.123532 0
M  V30 71 H -0.614478 0.437974 -4.898126 0
M  V30 72 H 3.269982 0.330601 -3.252719 0
M  V30 END ATOM
M  V30 BEGIN BOND
M  V30 1 1 1 2
M  V30 2 1 2 3
M  V30 3 1 3 4
M  V30 4 1 4 5
M  V30 5 2 5 6
M  V30 6 1 5 7
M  V30 7 2 7 8
M  V30 8 1 8 9
M  V30 9 2 9 10
M  V30 10 1 10 11
M  V30 11 1 11 12
M  V30 12 2 12 13
M  V30 13 1 13 14
M  V30 14 2 14 15
M  V30 15 1 15 16
M  V30 16 2 16 17
M  V30 17 1 16 18
M  V30 18 1 18 19
M  V30 19 1 19 20
M  V30 20 1 20 21
M  V30 21 1 21 22
M  V30 22 1 22 23
M  V30 23 1 18 24
M  V30 24 1 24 25
M  V30 25 1 25 26
M  V30 26 1 24 27
M  V30 27 2 27 28
M  V30 28 1 27 29
M  V30 29 1 29 30
M  V30 30 1 10 31
M  V30 31 1 31 32
M  V30 32 1 32 33
M  V30 33 1 33 34
M  V30 34 1 34 35
M  V30 35 2 31 36
M  V30 36 1 36 7
M  V30 37 1 17 12
M  V30 38 1 23 19
M  V30 39 1 29 15
M  V30 40 1 1 37
M  V30 41 1 1 38
M  V30 42 1 1 39
M  V30 43 1 2 40
M  V30 44 1 2 41
M  V30 45 1 3 42
M  V30 46 1 3 43
M  V30 47 1 4 44
M  V30 48 1 8 45
M  V30 49 1 9 46
M  V30 50 1 11 47
M  V30 51 1 14 48
M  V30 52 1 19 49
M  V30 53 1 20 50
M  V30 54 1 20 51
M  V30 55 1 21 52
M  V30 56 1 21 53
M  V30 57 1 22 54
M  V30 58 1 22 55
M  V30 59 1 23 56
M  V30 60 1 23 57
M  V30 61 1 24 58 CFG=1
M  V30 62 1 25 59
M  V30 63 1 25 60
M  V30 64 1 26 61
M  V30 65 1 26 62
M  V30 66 1 26 63
M  V30 67 1 30 64
M  V30 68 1 30 65
M  V30 69 1 30 66
M  V30 70 1 33 67
M  V30 71 1 33 68
M  V30 72 1 34 69
M  V30 73 1 34 70
M  V30 74 1 35 71
M  V30 75 1 36 72
M  V30 END BOND
M  V30 END CTAB
M  END
>  <Dataset>  (996) 
ChEMBL_Kinases

>  <Ligand_Instance>  (996) 
nan

>  <PDB_ID>  (996) 
nan

>  <Standardized_SMILES>  (996) 
CCCNC(=O)c1ccc(Nc2ncc3c(n2)N(C2CCCC2)[C@H](CC)C(=O)N3C)c(OCCO)c1

>  <Name>  (996) 
nan

>  <Pocket>  (996) 
nan

>  <ATP_Site>  (996) 
nan

>  <Peripheral>  (996) 
nan

>  <Num_H_Atoms_ProtBoundConf>  (996) 
nan

>  <Num_Resolved_Atoms>  (996) 
nan

>  <Num_Not_Resolved_Atoms>  (996) 
nan

$$$$
CHEMBL4583031
     RDKit          3D

  0  0  0  0  0  0  0  0  0  0999 V3000
M  V30 BEGIN CTAB
M  V30 COUNTS 28 31 0 0 0
M  V30 BEGIN ATOM
M  V30 1 O -1.124966 -1.057671 4.223189 0
M  V30 2 N -0.421268 -2.082814 3.628177 0
M  V30 3 C 0.043561 -1.899357 2.432682 0
M  V30 4 C 0.814620 -2.898891 1.665340 0
M  V30 5 C 1.208346 -4.179375 1.991481 0
M  V30 6 C 1.937520 -4.904449 1.060527 0
M  V30 7 C 2.232257 -4.292684 -0.159391 0
M  V30 8 C 1.833472 -3.004502 -0.481559 0
M  V30 9 C 1.109285 -2.285415 0.443982 0
M  V30 10 C 0.533576 -0.945064 0.463053 0
M  V30 11 N 0.540926 0.030329 -0.462559 0
M  V30 12 C -0.052530 1.238478 -0.281136 0
M  V30 13 C 0.057571 2.115496 -1.341436 0
M  V30 14 C -0.550028 3.362814 -1.165313 0
M  V30 15 Cl -0.442818 4.516633 -2.477292 0
M  V30 16 C -1.209904 3.637855 0.032482 0
M  V30 17 C -1.289282 2.718052 1.064957 0
M  V30 18 C -0.697059 1.481292 0.912878 0
M  V30 19 N -0.714261 0.514829 1.851884 0
M  V30 20 C -0.118662 -0.677147 1.650665 0
M  V30 21 H -0.686100 -0.147084 4.288428 0
M  V30 22 H 0.941098 -4.580509 2.954450 0
M  V30 23 H 2.263795 -5.911579 1.280443 0
M  V30 24 H 2.800755 -4.833847 -0.907685 0
M  V30 25 H 2.089299 -2.573246 -1.447436 0
M  V30 26 H 0.583512 1.842640 -2.246087 0
M  V30 27 H -1.675296 4.625744 0.137073 0
M  V30 28 H -1.801814 2.936486 1.990812 0
M  V30 END ATOM
M  V30 BEGIN BOND
M  V30 1 1 1 2
M  V30 2 2 2 3
M  V30 3 1 3 4
M  V30 4 2 4 5
M  V30 5 1 5 6
M  V30 6 2 6 7
M  V30 7 1 7 8
M  V30 8 2 8 9
M  V30 9 1 9 10
M  V30 10 2 10 11
M  V30 11 1 11 12
M  V30 12 2 12 13
M  V30 13 1 13 14
M  V30 14 1 14 15
M  V30 15 2 14 16
M  V30 16 1 16 17
M  V30 17 2 17 18
M  V30 18 1 18 19
M  V30 19 2 19 20
M  V30 20 1 20 3
M  V30 21 1 9 4
M  V30 22 1 20 10
M  V30 23 1 18 12
M  V30 24 1 1 21
M  V30 25 1 5 22
M  V30 26 1 6 23
M  V30 27 1 7 24
M  V30 28 1 8 25
M  V30 29 1 13 26
M  V30 30 1 16 27
M  V30 31 1 17 28
M  V30 END BOND
M  V30 END CTAB
M  END
>  <Dataset>  (997) 
ChEMBL_Kinases

>  <Ligand_Instance>  (997) 
nan

>  <PDB_ID>  (997) 
nan

>  <Standardized_SMILES>  (997) 
O/N=C1/c2ccccc2-c2nc3cc(Cl)ccc3nc21

>  <Name>  (997) 
nan

>  <Pocket>  (997) 
nan

>  <ATP_Site>  (997) 
nan

>  <Peripheral>  (997) 
nan

>  <Num_H_Atoms_ProtBoundConf>  (997) 
nan

>  <Num_Resolved_Atoms>  (997) 
nan

>  <Num_Not_Resolved_Atoms>  (997) 
nan

$$$$
CHEMBL461754
     RDKit          3D

  0  0  0  0  0  0  0  0  0  0999 V3000
M  V30 BEGIN CTAB
M  V30 COUNTS 51 53 0 0 0
M  V30 BEGIN ATOM
M  V30 1 C -0.902491 -5.028891 3.802579 0
M  V30 2 O 0.349665 -5.413144 3.301476 0
M  V30 3 C 1.279598 -4.499533 2.842261 0
M  V30 4 C 0.928434 -3.165455 2.885857 0
M  V30 5 C 1.860130 -2.263011 2.425120 0
M  V30 6 C 3.105558 -2.578578 1.926575 0
M  V30 7 C 4.116452 -1.685164 1.377229 0
M  V30 8 C 3.699761 -0.849412 0.422806 0
M  V30 9 C 2.477858 -0.504106 -0.314356 0
M  V30 10 C 2.732827 0.891807 -0.815746 0
M  V30 11 C 2.195317 0.947874 -2.238302 0
M  V30 12 O 2.395946 2.183525 -2.801176 0
M  V30 13 C 1.864333 1.840768 -0.017992 0
M  V30 14 O 0.537180 1.385106 -0.202084 0
M  V30 15 C -0.543923 2.029819 0.376557 0
M  V30 16 O -0.251734 3.047167 1.072399 0
M  V30 17 C -1.932751 1.638435 0.248320 0
M  V30 18 C -2.853812 2.436174 0.918649 0
M  V30 19 C -4.180289 2.011071 0.765852 0
M  V30 20 C -4.606159 0.919023 0.038102 0
M  V30 21 O -5.814859 0.616810 -0.039639 0
M  V30 22 C -7.071663 0.326069 -0.103772 0
M  V30 23 C -3.602235 0.193636 -0.590708 0
M  V30 24 C -2.258069 0.531245 -0.501961 0
M  V30 25 O 4.097528 1.153285 -0.753271 0
M  V30 26 C 4.721651 0.058053 -0.123367 0
M  V30 27 O 5.986517 0.040531 -0.132704 0
M  V30 28 C 3.460710 -3.926395 1.883754 0
M  V30 29 C 2.515865 -4.844113 2.351296 0
M  V30 30 H -0.867273 -4.672654 4.873850 0
M  V30 31 H -1.375776 -4.224215 3.180663 0
M  V30 32 H -1.603995 -5.909668 3.759871 0
M  V30 33 H -0.003075 -2.741446 3.243643 0
M  V30 34 H 1.638029 -1.202961 2.460807 0
M  V30 35 H 5.111479 -1.757527 1.768950 0
M  V30 36 H 1.560166 -0.601071 0.251353 0
M  V30 37 H 2.442636 -1.203644 -1.193802 0
M  V30 38 H 2.597261 0.103139 -2.811060 0
M  V30 39 H 1.082973 0.762647 -2.161472 0
M  V30 40 H 1.603456 2.516087 -3.294970 0
M  V30 41 H 2.154304 1.871100 1.050527 0
M  V30 42 H 1.922458 2.833492 -0.502471 0
M  V30 43 H -2.612731 3.296621 1.502574 0
M  V30 44 H -4.919634 2.622624 1.283400 0
M  V30 45 H -7.443951 -0.038503 -1.123093 0
M  V30 46 H -7.400484 -0.512342 0.585090 0
M  V30 47 H -7.793757 1.166388 0.192869 0
M  V30 48 H -3.886318 -0.681892 -1.179215 0
M  V30 49 H -1.481677 -0.042297 -0.995405 0
M  V30 50 H 4.412138 -4.303991 1.515835 0
M  V30 51 H 2.804127 -5.899188 2.312964 0
M  V30 END ATOM
M  V30 BEGIN BOND
M  V30 1 1 1 2
M  V30 2 1 2 3
M  V30 3 2 3 4
M  V30 4 1 4 5
M  V30 5 2 5 6
M  V30 6 1 6 7
M  V30 7 2 7 8
M  V30 8 1 8 9
M  V30 9 1 9 10
M  V30 10 1 10 11
M  V30 11 1 11 12
M  V30 12 1 10 13
M  V30 13 1 13 14
M  V30 14 1 14 15
M  V30 15 2 15 16
M  V30 16 1 15 17
M  V30 17 2 17 18
M  V30 18 1 18 19
M  V30 19 2 19 20
M  V30 20 1 20 21
M  V30 21 1 21 22
M  V30 22 1 20 23
M  V30 23 2 23 24
M  V30 24 1 10 25
M  V30 25 1 25 26
M  V30 26 2 26 27
M  V30 27 1 6 28
M  V30 28 2 28 29
M  V30 29 1 29 3
M  V30 30 1 26 8
M  V30 31 1 24 17
M  V30 32 1 1 30
M  V30 33 1 1 31
M  V30 34 1 1 32
M  V30 35 1 4 33
M  V30 36 1 5 34
M  V30 37 1 7 35
M  V30 38 1 9 36
M  V30 39 1 9 37
M  V30 40 1 11 38
M  V30 41 1 11 39
M  V30 42 1 12 40
M  V30 43 1 13 41
M  V30 44 1 13 42
M  V30 45 1 18 43
M  V30 46 1 19 44
M  V30 47 1 22 45
M  V30 48 1 22 46
M  V30 49 1 22 47
M  V30 50 1 23 48
M  V30 51 1 24 49
M  V30 52 1 28 50
M  V30 53 1 29 51
M  V30 END BOND
M  V30 END CTAB
M  END
>  <Dataset>  (998) 
ChEMBL_Kinases

>  <Ligand_Instance>  (998) 
nan

>  <PDB_ID>  (998) 
nan

>  <Standardized_SMILES>  (998) 
COc1ccc(/C=C2\CC(CO)(COC(=O)c3ccc(OC)cc3)OC2=O)cc1

>  <Name>  (998) 
nan

>  <Pocket>  (998) 
nan

>  <ATP_Site>  (998) 
nan

>  <Peripheral>  (998) 
nan

>  <Num_H_Atoms_ProtBoundConf>  (998) 
nan

>  <Num_Resolved_Atoms>  (998) 
nan

>  <Num_Not_Resolved_Atoms>  (998) 
nan

$$$$
CHEMBL4584365
     RDKit          3D

  0  0  0  0  0  0  0  0  0  0999 V3000
M  V30 BEGIN CTAB
M  V30 COUNTS 55 60 0 0 0
M  V30 BEGIN ATOM
M  V30 1 C 1.204769 -3.840186 4.248398 0
M  V30 2 N 2.396563 -3.614482 3.447878 0
M  V30 3 C 3.519942 -4.490358 3.608261 0
M  V30 4 C 4.766402 -4.010871 2.951373 0
M  V30 5 O 4.799145 -2.643060 2.639386 0
M  V30 6 C 3.643215 -2.051550 2.144660 0
M  V30 7 C 2.383748 -2.517076 2.531963 0
M  V30 8 C 1.203399 -1.946241 2.054553 0
M  V30 9 N 1.340520 -0.901526 1.182958 0
M  V30 10 N 2.516355 -0.453304 0.810120 0
M  V30 11 C 2.802918 0.562152 -0.036406 0
M  V30 12 C 1.833123 1.405702 -0.739406 0
M  V30 13 C 2.316301 2.399482 -1.567693 0
M  V30 14 C 1.349237 3.175357 -2.213310 0
M  V30 15 C -0.015816 2.976505 -2.046614 0
M  V30 16 C -0.944814 3.758980 -2.697180 0
M  V30 17 C -2.287626 3.511927 -2.489623 0
M  V30 18 C -2.640460 2.487940 -1.636263 0
M  V30 19 C -1.751380 1.678542 -0.963399 0
M  V30 20 N -2.137126 0.625934 -0.088252 0
M  V30 21 C -3.511465 0.270217 0.197448 0
M  V30 22 C -3.570735 -0.870927 1.178575 0
M  V30 23 C -2.802361 -2.038384 0.612003 0
M  V30 24 N -3.344260 -2.394864 -0.657887 0
M  V30 25 C -4.488536 -1.654929 -1.084466 0
M  V30 26 C -4.152141 -0.179009 -1.093769 0
M  V30 27 C -0.423042 1.963533 -1.202446 0
M  V30 28 N 0.503713 1.207419 -0.573272 0
M  V30 29 N 4.166338 0.636252 -0.096912 0
M  V30 30 N 4.699697 -0.309459 0.692371 0
M  V30 31 C 3.675687 -0.989639 1.258681 0
M  V30 32 H 1.317981 -4.714949 4.882032 0
M  V30 33 H 0.405668 -4.092286 3.498461 0
M  V30 34 H 0.839483 -2.934076 4.755264 0
M  V30 35 H 3.250867 -5.540273 3.327929 0
M  V30 36 H 3.717517 -4.547028 4.711484 0
M  V30 37 H 4.938261 -4.597486 2.006869 0
M  V30 38 H 5.662968 -4.186262 3.615386 0
M  V30 39 H 0.275929 -2.368384 2.405717 0
M  V30 40 H 3.359260 2.605956 -1.740392 0
M  V30 41 H 1.660802 3.964932 -2.871475 0
M  V30 42 H -0.621510 4.552564 -3.358507 0
M  V30 43 H -3.036256 4.122368 -2.997040 0
M  V30 44 H -3.691754 2.344858 -1.513077 0
M  V30 45 H -1.372052 0.085335 0.371654 0
M  V30 46 H -4.043930 1.164915 0.594878 0
M  V30 47 H -3.189904 -0.582894 2.183922 0
M  V30 48 H -4.634369 -1.206742 1.246070 0
M  V30 49 H -1.707826 -1.893729 0.612759 0
M  V30 50 H -2.994347 -2.921768 1.293844 0
M  V30 51 H -2.603087 -2.531057 -1.349026 0
M  V30 52 H -4.676302 -1.920781 -2.155459 0
M  V30 53 H -5.401042 -1.913234 -0.549348 0
M  V30 54 H -3.484349 0.000462 -1.958998 0
M  V30 55 H -5.078237 0.414541 -1.277429 0
M  V30 END ATOM
M  V30 BEGIN BOND
M  V30 1 1 1 2
M  V30 2 1 2 3
M  V30 3 1 3 4
M  V30 4 1 4 5
M  V30 5 1 5 6
M  V30 6 2 6 7
M  V30 7 1 7 8
M  V30 8 2 8 9
M  V30 9 1 9 10
M  V30 10 1 10 11
M  V30 11 1 11 12
M  V30 12 2 12 13
M  V30 13 1 13 14
M  V30 14 2 14 15
M  V30 15 1 15 16
M  V30 16 2 16 17
M  V30 17 1 17 18
M  V30 18 2 18 19
M  V30 19 1 19 20
M  V30 20 1 20 21
M  V30 21 1 21 22
M  V30 22 1 22 23
M  V30 23 1 23 24
M  V30 24 1 24 25
M  V30 25 1 25 26
M  V30 26 1 19 27
M  V30 27 2 27 28
M  V30 28 2 11 29
M  V30 29 1 29 30
M  V30 30 2 30 31
M  V30 31 1 7 2
M  V30 32 1 31 10
M  V30 33 1 31 6
M  V30 34 1 28 12
M  V30 35 1 27 15
M  V30 36 1 26 21
M  V30 37 1 1 32
M  V30 38 1 1 33
M  V30 39 1 1 34
M  V30 40 1 3 35
M  V30 41 1 3 36
M  V30 42 1 4 37
M  V30 43 1 4 38
M  V30 44 1 8 39
M  V30 45 1 13 40
M  V30 46 1 14 41
M  V30 47 1 16 42
M  V30 48 1 17 43
M  V30 49 1 18 44
M  V30 50 1 20 45
M  V30 51 1 21 46
M  V30 52 1 22 47
M  V30 53 1 22 48
M  V30 54 1 23 49
M  V30 55 1 23 50
M  V30 56 1 24 51
M  V30 57 1 25 52
M  V30 58 1 25 53
M  V30 59 1 26 54
M  V30 60 1 26 55
M  V30 END BOND
M  V30 END CTAB
M  END
>  <Dataset>  (999) 
ChEMBL_Kinases

>  <Ligand_Instance>  (999) 
nan

>  <PDB_ID>  (999) 
nan

>  <Standardized_SMILES>  (999) 
CN1CCOc2c1cnn1c(-c3ccc4cccc(NC5CCNCC5)c4n3)nnc21

>  <Name>  (999) 
nan

>  <Pocket>  (999) 
nan

>  <ATP_Site>  (999) 
nan

>  <Peripheral>  (999) 
nan

>  <Num_H_Atoms_ProtBoundConf>  (999) 
nan

>  <Num_Resolved_Atoms>  (999) 
nan

>  <Num_Not_Resolved_Atoms>  (999) 
nan

$$$$
