nan
     RDKit          3D

  0  0  0  0  0  0  0  0  0  0999 V3000
M  V30 BEGIN CTAB
M  V30 COUNTS 41 44 0 0 0
M  V30 BEGIN ATOM
M  V30 1 H 1.683682 -3.795959 2.285373 0 MASS=2
M  V30 2 C 0.717981 -3.506317 1.754009 0
M  V30 3 H 0.345670 -2.653372 2.316919 0 MASS=2
M  V30 4 C 1.086023 -3.244781 0.337443 0
M  V30 5 C 0.525946 -2.026039 -0.291058 0 CFG=1
M  V30 6 C -0.957341 -1.917168 -0.378367 0
M  V30 7 C -1.671881 -1.931269 0.886359 0
M  V30 8 N -2.258262 -1.937279 1.884384 0
M  V30 9 N 1.103161 -0.830382 0.356875 0
M  V30 10 C 0.688337 0.426021 0.113746 0
M  V30 11 C 1.500657 1.203177 0.930374 0
M  V30 12 C 1.438381 2.659512 1.027217 0
M  V30 13 N 2.541310 3.453626 1.020875 0
M  V30 14 C 2.424098 4.803233 1.113712 0
M  V30 15 N 1.209905 5.400414 1.215262 0
M  V30 16 C 0.083681 4.681755 1.227666 0
M  V30 17 N -1.220382 4.963581 1.313623 0
M  V30 18 C -1.986745 3.836755 1.281072 0
M  V30 19 C -1.066225 2.815248 1.167530 0
M  V30 20 C 0.220634 3.307319 1.132206 0
M  V30 21 C 2.376956 0.406093 1.639298 0
M  V30 22 N 2.095135 -0.842430 1.253020 0
M  V30 23 C 0.697051 -4.466100 -0.473700 0
M  V30 24 H 1.555763 -4.845939 -1.103971 0 MASS=2
M  V30 25 H -0.150448 -4.260931 -1.134744 0 MASS=2
M  V30 26 C 0.343156 -5.491363 0.568360 0
M  V30 27 H 1.212952 -6.119530 0.842187 0 MASS=2
M  V30 28 H -0.475056 -6.164286 0.214975 0 MASS=2
M  V30 29 C -0.124110 -4.748965 1.795954 0
M  V30 30 H 0.126264 -5.358021 2.716785 0 MASS=2
M  V30 31 H -1.200437 -4.594241 1.852959 0 MASS=2
M  V30 32 H 2.215903 -3.155040 0.210069 0
M  V30 33 H 0.900771 -1.939587 -1.357876 0
M  V30 34 H -1.408403 -2.686648 -1.050329 0
M  V30 35 H -1.257456 -0.937183 -0.866760 0
M  V30 36 H -0.097926 0.714702 -0.567197 0
M  V30 37 H 3.301960 5.442080 1.109097 0
M  V30 38 H -1.608682 5.937774 1.396432 0
M  V30 39 H -3.066676 3.839705 1.337450 0
M  V30 40 H -1.431564 1.787445 1.120477 0
M  V30 41 H 3.139052 0.678340 2.357379 0
M  V30 END ATOM
M  V30 BEGIN BOND
M  V30 1 1 1 2
M  V30 2 1 2 3
M  V30 3 1 2 4
M  V30 4 1 4 5
M  V30 5 1 5 6
M  V30 6 1 6 7
M  V30 7 3 7 8
M  V30 8 1 5 9
M  V30 9 1 9 10
M  V30 10 2 10 11
M  V30 11 1 11 12
M  V30 12 2 12 13
M  V30 13 1 13 14
M  V30 14 2 14 15
M  V30 15 1 15 16
M  V30 16 1 16 17
M  V30 17 1 17 18
M  V30 18 2 18 19
M  V30 19 1 19 20
M  V30 20 1 11 21
M  V30 21 2 21 22
M  V30 22 1 4 23
M  V30 23 1 23 24
M  V30 24 1 23 25
M  V30 25 1 23 26
M  V30 26 1 26 27
M  V30 27 1 26 28
M  V30 28 1 26 29
M  V30 29 1 29 30
M  V30 30 1 29 31
M  V30 31 1 29 2
M  V30 32 1 22 9
M  V30 33 1 20 12
M  V30 34 2 20 16
M  V30 35 1 4 32
M  V30 36 1 5 33 CFG=3
M  V30 37 1 6 34
M  V30 38 1 6 35
M  V30 39 1 10 36
M  V30 40 1 14 37
M  V30 41 1 17 38
M  V30 42 1 18 39
M  V30 43 1 19 40
M  V30 44 1 21 41
M  V30 END BOND
M  V30 END CTAB
M  END
>  <Dataset>  (1) 
PKIs

>  <Ligand_Instance>  (1) 
nan

>  <PDB_ID>  (1) 
nan

>  <Standardized_SMILES>  (1) 
[2H]C1([2H])C([C@@H](CC#N)n2cc(-c3ncnc4[nH]ccc34)cn2)C([2H])([2H])C([2H])([2H])C1([2H])[2H]

>  <Name>  (1) 
Deuruxolitinib

>  <Pocket>  (1) 
nan

>  <ATP_Site>  (1) 
nan

>  <Peripheral>  (1) 
nan

>  <Num_H_Atoms_ProtBoundConf>  (1) 
nan

>  <Num_Resolved_Atoms>  (1) 
nan

>  <Num_Not_Resolved_Atoms>  (1) 
nan

$$$$
nan
     RDKit          3D

  0  0  0  0  0  0  0  0  0  0999 V3000
M  V30 BEGIN CTAB
M  V30 COUNTS 53 56 0 0 0
M  V30 BEGIN ATOM
M  V30 1 N -7.418228 2.186373 -2.773533 0
M  V30 2 C -6.545571 2.931230 -2.619853 0
M  V30 3 C -5.440234 3.881919 -2.402006 0
M  V30 4 N -4.332226 3.128627 -1.852971 0
M  V30 5 C -3.221701 3.976658 -1.614404 0
M  V30 6 O -3.468810 5.185079 -1.939282 0
M  V30 7 C -1.945191 3.518479 -1.061651 0
M  V30 8 C -1.692692 2.202071 -0.722436 0
M  V30 9 C -0.446241 1.898408 -0.208288 0
M  V30 10 C 0.575482 2.796994 -0.001938 0
M  V30 11 C 1.869798 2.423779 0.543389 0
M  V30 12 C 2.844883 3.370720 0.726278 0
M  V30 13 C 4.056154 2.973803 1.247852 0
M  V30 14 N 4.267382 1.692654 1.565793 0
M  V30 15 C 3.333668 0.746776 1.397865 0
M  V30 16 N 3.639240 -0.588836 1.763820 0
M  V30 17 C 2.826306 -1.749036 1.669979 0
M  V30 18 C 1.553947 -1.808535 1.147897 0
M  V30 19 C 0.779872 -2.945314 1.069550 0
M  V30 20 C 1.281891 -4.123783 1.536911 0
M  V30 21 N 0.517324 -5.317082 1.471023 0
M  V30 22 C -0.768096 -5.483446 0.861446 0
M  V30 23 C -1.746863 -5.917788 1.953752 0
M  V30 24 O -1.422974 -7.245322 2.229494 0
M  V30 25 C -0.197385 -7.223131 2.874214 0
M  V30 26 C 0.904882 -6.600651 2.022594 0
M  V30 27 C 2.542110 -4.114759 2.064598 0
M  V30 28 C 3.287985 -2.964367 2.128038 0
M  V30 29 N 2.166351 1.164961 0.888529 0
M  V30 30 C 0.274051 4.089903 -0.354911 0
M  V30 31 C -0.965326 4.483426 -0.883100 0
M  V30 32 H -5.781524 4.634651 -1.691600 0
M  V30 33 H -5.217168 4.329896 -3.380659 0
M  V30 34 H -4.248615 2.105829 -1.623745 0
M  V30 35 H -2.468259 1.464333 -0.868875 0
M  V30 36 H -0.319105 0.855070 0.034174 0
M  V30 37 H 2.760506 4.400497 0.502552 0
M  V30 38 H 4.867080 3.669389 1.417484 0
M  V30 39 H 4.596619 -0.751432 2.158905 0
M  V30 40 H 1.117255 -0.898576 0.764512 0
M  V30 41 H -0.220795 -2.848200 0.628752 0
M  V30 42 H -0.740333 -6.329923 0.128687 0
M  V30 43 H -1.212634 -4.577244 0.420575 0
M  V30 44 H -2.796610 -5.789443 1.612660 0
M  V30 45 H -1.627549 -5.342874 2.877770 0
M  V30 46 H 0.111547 -8.270225 3.066219 0
M  V30 47 H -0.268977 -6.726277 3.875322 0
M  V30 48 H 1.015741 -7.303669 1.147379 0
M  V30 49 H 1.793694 -6.590155 2.648691 0
M  V30 50 H 3.019770 -5.011523 2.459024 0
M  V30 51 H 4.289721 -3.014104 2.560614 0
M  V30 52 H 0.971864 4.899171 -0.250306 0
M  V30 53 H -1.165947 5.511018 -1.149180 0
M  V30 END ATOM
M  V30 BEGIN BOND
M  V30 1 3 1 2
M  V30 2 1 2 3
M  V30 3 1 3 4
M  V30 4 1 4 5
M  V30 5 2 5 6
M  V30 6 1 5 7
M  V30 7 2 7 8
M  V30 8 1 8 9
M  V30 9 2 9 10
M  V30 10 1 10 11
M  V30 11 2 11 12
M  V30 12 1 12 13
M  V30 13 2 13 14
M  V30 14 1 14 15
M  V30 15 1 15 16
M  V30 16 1 16 17
M  V30 17 2 17 18
M  V30 18 1 18 19
M  V30 19 2 19 20
M  V30 20 1 20 21
M  V30 21 1 21 22
M  V30 22 1 22 23
M  V30 23 1 23 24
M  V30 24 1 24 25
M  V30 25 1 25 26
M  V30 26 1 20 27
M  V30 27 2 27 28
M  V30 28 2 15 29
M  V30 29 1 10 30
M  V30 30 2 30 31
M  V30 31 1 31 7
M  V30 32 1 29 11
M  V30 33 1 28 17
M  V30 34 1 26 21
M  V30 35 1 3 32
M  V30 36 1 3 33
M  V30 37 1 4 34
M  V30 38 1 8 35
M  V30 39 1 9 36
M  V30 40 1 12 37
M  V30 41 1 13 38
M  V30 42 1 16 39
M  V30 43 1 18 40
M  V30 44 1 19 41
M  V30 45 1 22 42
M  V30 46 1 22 43
M  V30 47 1 23 44
M  V30 48 1 23 45
M  V30 49 1 25 46
M  V30 50 1 25 47
M  V30 51 1 26 48
M  V30 52 1 26 49
M  V30 53 1 27 50
M  V30 54 1 28 51
M  V30 55 1 30 52
M  V30 56 1 31 53
M  V30 END BOND
M  V30 END CTAB
M  END
>  <Dataset>  (2) 
PKIs

>  <Ligand_Instance>  (2) 
nan

>  <PDB_ID>  (2) 
nan

>  <Standardized_SMILES>  (2) 
N#CCNC(=O)c1ccc(-c2ccnc(Nc3ccc(N4CCOCC4)cc3)n2)cc1

>  <Name>  (2) 
Momelotinib

>  <Pocket>  (2) 
nan

>  <ATP_Site>  (2) 
nan

>  <Peripheral>  (2) 
nan

>  <Num_H_Atoms_ProtBoundConf>  (2) 
nan

>  <Num_Resolved_Atoms>  (2) 
nan

>  <Num_Not_Resolved_Atoms>  (2) 
nan

$$$$
nan
     RDKit          3D

  0  0  0  0  0  0  0  0  0  0999 V3000
M  V30 BEGIN CTAB
M  V30 COUNTS 55 58 0 0 0
M  V30 BEGIN ATOM
M  V30 1 N -2.539993 0.835287 3.039764 0
M  V30 2 C -1.738040 0.072463 2.067055 0
M  V30 3 C -0.336641 0.581341 2.209489 0
M  V30 4 O -0.328804 1.482427 3.116687 0
M  V30 5 N 0.767532 0.139458 1.471105 0
M  V30 6 C 2.107466 0.568227 1.548842 0 CFG=1
M  V30 7 C 3.135093 -0.442726 1.884947 0
M  V30 8 C 2.876992 -1.081956 3.248873 0
M  V30 9 O 2.905775 -0.050558 4.190258 0
M  V30 10 C 2.560546 1.294993 0.308821 0
M  V30 11 C 3.288360 2.483997 0.348709 0
M  V30 12 C 3.677328 3.107018 -0.819597 0
M  V30 13 C 3.364011 2.582455 -2.053232 0
M  V30 14 Cl 3.941261 3.510971 -3.415432 0
M  V30 15 C 2.643038 1.404359 -2.113544 0
M  V30 16 C 2.260851 0.792466 -0.940975 0
M  V30 17 C -1.881137 -1.345690 2.424949 0
M  V30 18 C -2.830826 -2.179212 1.620415 0
M  V30 19 N -3.061838 -1.667144 0.301827 0
M  V30 20 C -2.957902 -2.479241 -0.832823 0
M  V30 21 N -4.064721 -2.614632 -1.622079 0
M  V30 22 C -4.040038 -3.381258 -2.734448 0
M  V30 23 N -2.940114 -4.055012 -3.136787 0
M  V30 24 C -1.836056 -3.954699 -2.400440 0
M  V30 25 N -0.599418 -4.489657 -2.525299 0
M  V30 26 C 0.158607 -4.064167 -1.495639 0
M  V30 27 C -0.608323 -3.241540 -0.697579 0
M  V30 28 C -1.846395 -3.176332 -1.263212 0
M  V30 29 C -3.411506 -0.260019 0.199773 0
M  V30 30 C -2.198462 0.483533 0.715631 0
M  V30 31 H -3.030378 1.631990 2.624227 0
M  V30 32 H -2.026052 1.004686 3.911266 0
M  V30 33 H 0.611867 -0.607802 0.757833 0
M  V30 34 H 2.149384 1.355144 2.336218 0
M  V30 35 H 4.083271 0.142737 2.050886 0
M  V30 36 H 3.389984 -1.168428 1.104841 0
M  V30 37 H 1.948389 -1.667799 3.279106 0
M  V30 38 H 3.704378 -1.764046 3.526739 0
M  V30 39 H 2.115162 -0.133060 4.806464 0
M  V30 40 H 3.502750 2.844649 1.355868 0
M  V30 41 H 4.237240 4.023477 -0.618901 0
M  V30 42 H 2.426430 1.040161 -3.108345 0
M  V30 43 H 1.703828 -0.118943 -1.076459 0
M  V30 44 H -2.086991 -1.461216 3.530253 0
M  V30 45 H -0.867714 -1.831896 2.325634 0
M  V30 46 H -3.819232 -2.157780 2.136521 0
M  V30 47 H -2.532015 -3.260222 1.614095 0
M  V30 48 H -4.970897 -3.433046 -3.307020 0
M  V30 49 H -0.224334 -5.127782 -3.261942 0
M  V30 50 H 1.212559 -4.309619 -1.293038 0
M  V30 51 H -0.275554 -2.760893 0.186489 0
M  V30 52 H -3.592302 0.050426 -0.836687 0
M  V30 53 H -4.310365 -0.030444 0.828419 0
M  V30 54 H -1.429184 0.358211 -0.078939 0
M  V30 55 H -2.441788 1.585408 0.667662 0
M  V30 END ATOM
M  V30 BEGIN BOND
M  V30 1 1 1 2
M  V30 2 1 2 3
M  V30 3 2 3 4
M  V30 4 1 3 5
M  V30 5 1 5 6
M  V30 6 1 6 7
M  V30 7 1 7 8
M  V30 8 1 8 9
M  V30 9 1 6 10
M  V30 10 2 10 11
M  V30 11 1 11 12
M  V30 12 2 12 13
M  V30 13 1 13 14
M  V30 14 1 13 15
M  V30 15 2 15 16
M  V30 16 1 2 17
M  V30 17 1 17 18
M  V30 18 1 18 19
M  V30 19 1 19 20
M  V30 20 2 20 21
M  V30 21 1 21 22
M  V30 22 2 22 23
M  V30 23 1 23 24
M  V30 24 1 24 25
M  V30 25 1 25 26
M  V30 26 2 26 27
M  V30 27 1 27 28
M  V30 28 1 19 29
M  V30 29 1 29 30
M  V30 30 1 30 2
M  V30 31 1 16 10
M  V30 32 1 28 20
M  V30 33 2 28 24
M  V30 34 1 1 31
M  V30 35 1 1 32
M  V30 36 1 5 33
M  V30 37 1 6 34 CFG=1
M  V30 38 1 7 35
M  V30 39 1 7 36
M  V30 40 1 8 37
M  V30 41 1 8 38
M  V30 42 1 9 39
M  V30 43 1 11 40
M  V30 44 1 12 41
M  V30 45 1 15 42
M  V30 46 1 16 43
M  V30 47 1 17 44
M  V30 48 1 17 45
M  V30 49 1 18 46
M  V30 50 1 18 47
M  V30 51 1 22 48
M  V30 52 1 25 49
M  V30 53 1 26 50
M  V30 54 1 27 51
M  V30 55 1 29 52
M  V30 56 1 29 53
M  V30 57 1 30 54
M  V30 58 1 30 55
M  V30 END BOND
M  V30 END CTAB
M  END
>  <Dataset>  (3) 
PKIs

>  <Ligand_Instance>  (3) 
nan

>  <PDB_ID>  (3) 
nan

>  <Standardized_SMILES>  (3) 
NC1(C(=O)N[C@@H](CCO)c2ccc(Cl)cc2)CCN(c2ncnc3[nH]ccc23)CC1

>  <Name>  (3) 
Capivasertib

>  <Pocket>  (3) 
nan

>  <ATP_Site>  (3) 
nan

>  <Peripheral>  (3) 
nan

>  <Num_H_Atoms_ProtBoundConf>  (3) 
nan

>  <Num_Resolved_Atoms>  (3) 
nan

>  <Num_Not_Resolved_Atoms>  (3) 
nan

$$$$
nan
     RDKit          3D

  0  0  0  0  0  0  0  0  0  0999 V3000
M  V30 BEGIN CTAB
M  V30 COUNTS 40 42 0 0 0
M  V30 BEGIN ATOM
M  V30 1 C -0.477313 -3.150593 4.136846 0
M  V30 2 C 0.723107 -3.442692 3.732812 0
M  V30 3 C 1.238155 -3.207292 2.403467 0
M  V30 4 O 2.403407 -3.497259 2.030843 0
M  V30 5 N 0.629309 -2.636619 1.255369 0
M  V30 6 C 1.492549 -2.574757 0.089064 0
M  V30 7 C 1.006654 -1.452240 -0.783048 0 CFG=2
M  V30 8 N 1.109191 -0.165868 -0.183922 0
M  V30 9 C 0.726553 1.059789 -0.792907 0
M  V30 10 N 0.214678 1.159280 -2.026703 0
M  V30 11 C -0.146849 2.300854 -2.606463 0
M  V30 12 N -0.000746 3.470241 -1.928217 0
M  V30 13 C 0.507611 3.458005 -0.679326 0
M  V30 14 N 0.749446 4.455731 0.187988 0
M  V30 15 C 1.265419 3.960851 1.324222 0
M  V30 16 C 1.335786 2.591354 1.124730 0
M  V30 17 C 0.864463 2.256010 -0.127542 0
M  V30 18 C -0.398030 -1.767080 -1.160151 0
M  V30 19 C -1.348704 -1.884704 -0.014323 0
M  V30 20 C -0.745743 -2.175971 1.316302 0 CFG=2
M  V30 21 C -0.910404 -0.934794 2.180645 0
M  V30 22 H -1.480066 -2.847025 4.283466 0
M  V30 23 H -0.816290 -3.343314 5.132847 0
M  V30 24 H 1.407184 -3.898302 4.429033 0
M  V30 25 H 1.302759 -3.522766 -0.469322 0
M  V30 26 H 2.538934 -2.436788 0.369418 0
M  V30 27 H 1.627928 -1.477853 -1.702432 0
M  V30 28 H 1.499401 -0.141079 0.780185 0
M  V30 29 H -0.545581 2.192240 -3.618228 0
M  V30 30 H 0.552651 5.461286 -0.023011 0
M  V30 31 H 1.561676 4.518286 2.205706 0
M  V30 32 H 1.710989 1.883269 1.856215 0
M  V30 33 H -0.354003 -2.738393 -1.729032 0
M  V30 34 H -0.727327 -1.017407 -1.910075 0
M  V30 35 H -1.967917 -0.961344 0.006085 0
M  V30 36 H -2.074136 -2.686217 -0.272544 0
M  V30 37 H -1.302236 -2.995402 1.821105 0
M  V30 38 H -1.850062 -0.973001 2.804365 0
M  V30 39 H -0.014504 -0.653535 2.737982 0
M  V30 40 H -1.104461 -0.033344 1.524379 0
M  V30 END ATOM
M  V30 BEGIN BOND
M  V30 1 2 1 2
M  V30 2 1 2 3
M  V30 3 2 3 4
M  V30 4 1 3 5
M  V30 5 1 5 6
M  V30 6 1 6 7
M  V30 7 1 7 8
M  V30 8 1 8 9
M  V30 9 2 9 10
M  V30 10 1 10 11
M  V30 11 2 11 12
M  V30 12 1 12 13
M  V30 13 1 13 14
M  V30 14 1 14 15
M  V30 15 2 15 16
M  V30 16 1 16 17
M  V30 17 1 7 18
M  V30 18 1 18 19
M  V30 19 1 19 20
M  V30 20 1 20 21
M  V30 21 1 20 5
M  V30 22 1 17 9
M  V30 23 2 17 13
M  V30 24 1 1 22
M  V30 25 1 1 23
M  V30 26 1 2 24
M  V30 27 1 6 25
M  V30 28 1 6 26
M  V30 29 1 7 27 CFG=3
M  V30 30 1 8 28
M  V30 31 1 11 29
M  V30 32 1 14 30
M  V30 33 1 15 31
M  V30 34 1 16 32
M  V30 35 1 18 33
M  V30 36 1 18 34
M  V30 37 1 19 35
M  V30 38 1 19 36
M  V30 39 1 20 37 CFG=1
M  V30 40 1 21 38
M  V30 41 1 21 39
M  V30 42 1 21 40
M  V30 END BOND
M  V30 END CTAB
M  END
>  <Dataset>  (4) 
PKIs

>  <Ligand_Instance>  (4) 
nan

>  <PDB_ID>  (4) 
nan

>  <Standardized_SMILES>  (4) 
C=CC(=O)N1C[C@H](Nc2ncnc3[nH]ccc23)CC[C@@H]1C

>  <Name>  (4) 
Ritlecitinib

>  <Pocket>  (4) 
nan

>  <ATP_Site>  (4) 
nan

>  <Peripheral>  (4) 
nan

>  <Num_H_Atoms_ProtBoundConf>  (4) 
nan

>  <Num_Resolved_Atoms>  (4) 
nan

>  <Num_Not_Resolved_Atoms>  (4) 
nan

$$$$
nan
     RDKit          3D

  0  0  0  0  0  0  0  0  0  0999 V3000
M  V30 BEGIN CTAB
M  V30 COUNTS 44 47 0 0 0
M  V30 BEGIN ATOM
M  V30 1 C -0.652645 -4.140312 0.587111 0
M  V30 2 C -0.560794 -2.684795 0.205961 0
M  V30 3 C -0.720970 -2.497294 -1.301306 0
M  V30 4 N -0.324998 -1.162794 -1.601744 0
M  V30 5 C -0.353530 0.212273 -1.626742 0
M  V30 6 O -1.336090 0.654112 -1.065765 0
M  V30 7 C 0.376946 1.354519 -2.078355 0
M  V30 8 C 0.662988 2.403794 -2.865942 0
M  V30 9 N 1.820280 2.972429 -2.386322 0
M  V30 10 N 2.177507 2.249148 -1.339290 0
M  V30 11 C 3.219038 2.363421 -0.504255 0
M  V30 12 C 3.437999 1.510283 0.556097 0
M  V30 13 C 2.550382 0.495645 0.772092 0
M  V30 14 N 1.520381 0.396041 -0.069876 0
M  V30 15 C 1.348733 1.227931 -1.068426 0
M  V30 16 N 2.299618 -0.578222 1.653535 0
M  V30 17 C 1.381739 -0.787483 2.735952 0
M  V30 18 C 1.357061 -2.276109 3.111601 0
M  V30 19 C 0.013855 -0.323897 2.557255 0
M  V30 20 C -0.314222 0.817004 3.307971 0
M  V30 21 C -1.516360 1.490857 3.382236 0
M  V30 22 F -1.684262 2.586243 4.156382 0
M  V30 23 C -2.557669 0.995692 2.623134 0
M  V30 24 C -2.277981 -0.146092 1.853092 0
M  V30 25 C -1.041118 -0.811910 1.796789 0
M  V30 26 O -1.295357 -1.825607 0.925867 0
M  V30 27 H -0.138529 -4.700999 -0.220360 0
M  V30 28 H -0.052601 -4.290252 1.499548 0
M  V30 29 H -1.652856 -4.525567 0.754936 0
M  V30 30 H 0.534593 -2.433895 0.369906 0
M  V30 31 H -0.112206 -3.262206 -1.770798 0
M  V30 32 H -1.772900 -2.716233 -1.609526 0
M  V30 33 H 0.540127 -1.136454 -2.168877 0
M  V30 34 H -0.167158 2.328389 -3.533332 0
M  V30 35 H 3.969361 3.125167 -0.588097 0
M  V30 36 H 4.151964 1.355745 1.343414 0
M  V30 37 H 3.067296 -1.110835 1.210886 0
M  V30 38 H 1.857353 -0.265546 3.648441 0
M  V30 39 H 1.772538 -2.456984 4.124802 0
M  V30 40 H 1.827866 -2.888784 2.335866 0
M  V30 41 H 0.287386 -2.627407 3.192134 0
M  V30 42 H 0.443900 1.293690 3.946015 0
M  V30 43 H -3.484852 1.536053 2.696929 0
M  V30 44 H -3.203928 -0.389576 1.328646 0
M  V30 END ATOM
M  V30 BEGIN BOND
M  V30 1 1 1 2
M  V30 2 1 2 3
M  V30 3 1 3 4
M  V30 4 1 4 5
M  V30 5 2 5 6
M  V30 6 1 5 7
M  V30 7 1 7 8
M  V30 8 2 8 9
M  V30 9 1 9 10
M  V30 10 1 10 11
M  V30 11 2 11 12
M  V30 12 1 12 13
M  V30 13 2 13 14
M  V30 14 1 14 15
M  V30 15 1 13 16
M  V30 16 1 16 17
M  V30 17 1 17 18
M  V30 18 1 17 19
M  V30 19 2 19 20
M  V30 20 1 20 21
M  V30 21 1 21 22
M  V30 22 2 21 23
M  V30 23 1 23 24
M  V30 24 2 24 25
M  V30 25 1 25 26
M  V30 26 1 26 2
M  V30 27 2 15 7
M  V30 28 1 25 19
M  V30 29 1 15 10
M  V30 30 1 1 27
M  V30 31 1 1 28
M  V30 32 1 1 29
M  V30 33 1 2 30
M  V30 34 1 3 31
M  V30 35 1 3 32
M  V30 36 1 4 33
M  V30 37 1 8 34
M  V30 38 1 11 35
M  V30 39 1 12 36
M  V30 40 1 16 37
M  V30 41 1 17 38
M  V30 42 1 18 39
M  V30 43 1 18 40
M  V30 44 1 18 41
M  V30 45 1 20 42
M  V30 46 1 23 43
M  V30 47 1 24 44
M  V30 END BOND
M  V30 END CTAB
M  END
>  <Dataset>  (5) 
PKIs

>  <Ligand_Instance>  (5) 
nan

>  <PDB_ID>  (5) 
nan

>  <Standardized_SMILES>  (5) 
CC1CNC(=O)c2cnn3ccc(nc23)NC(C)c2cc(F)ccc2O1

>  <Name>  (5) 
Repotrectinib

>  <Pocket>  (5) 
nan

>  <ATP_Site>  (5) 
nan

>  <Peripheral>  (5) 
nan

>  <Num_H_Atoms_ProtBoundConf>  (5) 
nan

>  <Num_Resolved_Atoms>  (5) 
nan

>  <Num_Not_Resolved_Atoms>  (5) 
nan

$$$$
nan
     RDKit          3D

  0  0  0  0  0  0  0  0  0  0999 V3000
M  V30 BEGIN CTAB
M  V30 COUNTS 57 60 0 0 0
M  V30 BEGIN ATOM
M  V30 1 C 3.456266 -3.482752 1.944981 0
M  V30 2 C 3.975836 -3.118768 0.577537 0
M  V30 3 C 3.827126 -1.708686 0.210434 0
M  V30 4 O 4.313192 -1.622992 -0.975120 0
M  V30 5 N 3.262957 -0.624226 0.983765 0
M  V30 6 C 2.682863 -0.499520 2.305969 0
M  V30 7 C 2.811977 0.982042 2.587007 0
M  V30 8 C 2.435072 1.573855 1.224037 0 CFG=2
M  V30 9 N 1.010289 1.470055 1.015633 0
M  V30 10 C 0.544959 1.999985 -0.215431 0
M  V30 11 N 1.402506 2.548150 -1.090320 0
M  V30 12 C 0.960406 3.059668 -2.275907 0
M  V30 13 N -0.350563 3.049540 -2.644646 0
M  V30 14 C -1.262596 2.502145 -1.787447 0
M  V30 15 C -0.774306 1.996749 -0.600849 0
M  V30 16 C -1.824694 1.421998 0.268866 0
M  V30 17 N -2.649815 0.485634 -0.506221 0
M  V30 18 C -2.817580 -0.872072 -0.218508 0
M  V30 19 C -3.618812 -1.670698 -1.006388 0
M  V30 20 N -3.791241 -2.981226 -0.744576 0
M  V30 21 C -3.193649 -3.596983 0.301917 0
M  V30 22 O -3.339090 -4.941514 0.613295 0
M  V30 23 C -4.144784 -5.816624 -0.151476 0
M  V30 24 C -2.376104 -2.850274 1.131585 0
M  V30 25 C -1.692920 -3.463476 2.294226 0
M  V30 26 F -2.670589 -3.976291 3.146403 0
M  V30 27 F -0.849679 -4.471874 1.892521 0
M  V30 28 F -1.038932 -2.470946 3.003035 0
M  V30 29 C -2.218888 -1.493906 0.831747 0
M  V30 30 C -3.312112 1.088881 -1.647002 0
M  V30 31 C -2.723541 2.419238 -2.048446 0
M  V30 32 C 3.243180 0.682184 0.307634 0
M  V30 33 H 2.434118 -3.159224 2.143967 0
M  V30 34 H 3.414845 -4.616068 1.960295 0
M  V30 35 H 4.206123 -3.232051 2.703944 0
M  V30 36 H 5.079109 -3.360486 0.604193 0
M  V30 37 H 3.542546 -3.804605 -0.192637 0
M  V30 38 H 1.583173 -0.722374 2.287498 0
M  V30 39 H 3.200507 -1.106514 3.078040 0
M  V30 40 H 2.131639 1.337567 3.360094 0
M  V30 41 H 3.888369 1.193658 2.776820 0
M  V30 42 H 2.819520 2.613538 1.142572 0
M  V30 43 H 0.436190 1.026623 1.759785 0
M  V30 44 H 1.701120 3.485939 -2.934295 0
M  V30 45 H -2.539376 2.269862 0.489140 0
M  V30 46 H -1.504002 1.053396 1.229397 0
M  V30 47 H -4.148374 -1.282571 -1.873722 0
M  V30 48 H -5.132811 -5.939697 0.331978 0
M  V30 49 H -3.668950 -6.813018 -0.293115 0
M  V30 50 H -4.307094 -5.375012 -1.148578 0
M  V30 51 H -1.569431 -0.960763 1.513410 0
M  V30 52 H -3.306710 0.465695 -2.557465 0
M  V30 53 H -4.367855 1.242868 -1.331721 0
M  V30 54 H -2.841020 2.601977 -3.137177 0
M  V30 55 H -3.279002 3.208495 -1.479868 0
M  V30 56 H 2.751644 0.640603 -0.660297 0
M  V30 57 H 4.261005 1.101113 0.190580 0
M  V30 END ATOM
M  V30 BEGIN BOND
M  V30 1 1 1 2
M  V30 2 1 2 3
M  V30 3 2 3 4
M  V30 4 1 3 5
M  V30 5 1 5 6
M  V30 6 1 6 7
M  V30 7 1 7 8
M  V30 8 1 8 9
M  V30 9 1 9 10
M  V30 10 2 10 11
M  V30 11 1 11 12
M  V30 12 2 12 13
M  V30 13 1 13 14
M  V30 14 2 14 15
M  V30 15 1 15 16
M  V30 16 1 16 17
M  V30 17 1 17 18
M  V30 18 2 18 19
M  V30 19 1 19 20
M  V30 20 2 20 21
M  V30 21 1 21 22
M  V30 22 1 22 23
M  V30 23 1 21 24
M  V30 24 1 24 25
M  V30 25 1 25 26
M  V30 26 1 25 27
M  V30 27 1 25 28
M  V30 28 2 24 29
M  V30 29 1 17 30
M  V30 30 1 30 31
M  V30 31 1 8 32
M  V30 32 1 32 5
M  V30 33 1 15 10
M  V30 34 1 29 18
M  V30 35 1 31 14
M  V30 36 1 1 33
M  V30 37 1 1 34
M  V30 38 1 1 35
M  V30 39 1 2 36
M  V30 40 1 2 37
M  V30 41 1 6 38
M  V30 42 1 6 39
M  V30 43 1 7 40
M  V30 44 1 7 41
M  V30 45 1 8 42 CFG=1
M  V30 46 1 9 43
M  V30 47 1 12 44
M  V30 48 1 16 45
M  V30 49 1 16 46
M  V30 50 1 19 47
M  V30 51 1 23 48
M  V30 52 1 23 49
M  V30 53 1 23 50
M  V30 54 1 29 51
M  V30 55 1 30 52
M  V30 56 1 30 53
M  V30 57 1 31 54
M  V30 58 1 31 55
M  V30 59 1 32 56
M  V30 60 1 32 57
M  V30 END BOND
M  V30 END CTAB
M  END
>  <Dataset>  (6) 
PKIs

>  <Ligand_Instance>  (6) 
nan

>  <PDB_ID>  (6) 
nan

>  <Standardized_SMILES>  (6) 
CCC(=O)N1CC[C@H](Nc2ncnc3c2CN(c2cnc(OC)c(C(F)(F)F)c2)CC3)C1

>  <Name>  (6) 
Leniolisib

>  <Pocket>  (6) 
nan

>  <ATP_Site>  (6) 
nan

>  <Peripheral>  (6) 
nan

>  <Num_H_Atoms_ProtBoundConf>  (6) 
nan

>  <Num_Resolved_Atoms>  (6) 
nan

>  <Num_Not_Resolved_Atoms>  (6) 
nan

$$$$
nan
     RDKit          3D

  0  0  0  0  0  0  0  0  0  0999 V3000
M  V30 BEGIN CTAB
M  V30 COUNTS 72 77 0 0 0
M  V30 BEGIN ATOM
M  V30 1 C 8.341777 -1.618489 6.244001 0
M  V30 2 C 7.045880 -1.744609 5.474092 0
M  V30 3 C 5.926280 -1.953099 6.462701 0
M  V30 4 C 7.140752 -2.944411 4.548767 0
M  V30 5 C 6.865538 -0.533909 4.654653 0
M  V30 6 C 6.195699 0.556855 5.136701 0
M  V30 7 C 6.205334 1.495685 4.142070 0
M  V30 8 N 5.732743 2.830033 3.837793 0
M  V30 9 C 4.445227 3.019649 3.207490 0
M  V30 10 O 3.820028 1.917180 2.982323 0
M  V30 11 N 3.722566 4.172552 2.783386 0
M  V30 12 C 2.491051 3.647277 2.227402 0
M  V30 13 C 2.705041 3.304919 0.910129 0
M  V30 14 C 1.684276 2.746671 0.169251 0
M  V30 15 C 0.471963 2.569227 0.835182 0
M  V30 16 C -0.614502 1.929061 0.111271 0
M  V30 17 C -0.620913 1.448142 -1.169106 0
M  V30 18 N -1.813473 0.907307 -1.526523 0
M  V30 19 C -2.503028 1.089396 -0.410446 0
M  V30 20 N -1.839709 1.689711 0.588862 0
M  V30 21 S -4.168638 0.371000 -0.766454 0
M  V30 22 C -3.678543 -0.101095 -2.456052 0
M  V30 23 C -4.457059 -0.734715 -3.406725 0
M  V30 24 C -3.895453 -0.994790 -4.625845 0
M  V30 25 O -4.503487 -1.618929 -5.690814 0
M  V30 26 C -5.835541 -2.147684 -5.600228 0
M  V30 27 C -5.820960 -3.291985 -4.630797 0
M  V30 28 N -7.045278 -3.949097 -4.365854 0
M  V30 29 C -6.708606 -5.034376 -3.436927 0
M  V30 30 C -7.714634 -5.185439 -2.350394 0
M  V30 31 O -8.974739 -5.221588 -2.989752 0
M  V30 32 C -9.267136 -3.930431 -3.363000 0
M  V30 33 C -8.102707 -3.124542 -3.863862 0
M  V30 34 C -2.589817 -0.590001 -4.781563 0
M  V30 35 C -1.839199 0.032674 -3.830978 0
M  V30 36 C -2.364127 0.312260 -2.585940 0
M  V30 37 C 0.263780 2.919153 2.161185 0
M  V30 38 C 1.295678 3.473357 2.887016 0
M  V30 39 N 6.874427 0.941377 3.103337 0
M  V30 40 O 7.269555 -0.274839 3.407875 0
M  V30 41 H 9.150270 -1.901697 5.540859 0
M  V30 42 H 8.353424 -2.245481 7.158244 0
M  V30 43 H 8.459143 -0.550525 6.492757 0
M  V30 44 H 4.978807 -1.485367 6.147883 0
M  V30 45 H 6.228812 -1.680945 7.496873 0
M  V30 46 H 5.724699 -3.057849 6.505140 0
M  V30 47 H 6.136752 -3.353339 4.277175 0
M  V30 48 H 7.627489 -2.684830 3.596633 0
M  V30 49 H 7.706522 -3.775828 5.013415 0
M  V30 50 H 5.694595 0.863781 6.042490 0
M  V30 51 H 6.153831 3.782665 3.980137 0
M  V30 52 H 4.274186 5.025268 2.995624 0
M  V30 53 H 3.642501 3.427848 0.348515 0
M  V30 54 H 1.824471 2.469355 -0.866733 0
M  V30 55 H 0.295936 1.534094 -1.775119 0
M  V30 56 H -5.461788 -0.962967 -3.148328 0
M  V30 57 H -6.505198 -1.324053 -5.350195 0
M  V30 58 H -6.098151 -2.513359 -6.616291 0
M  V30 59 H -5.193986 -3.103953 -3.749256 0
M  V30 60 H -5.189818 -4.095328 -5.187557 0
M  V30 61 H -5.724380 -4.856409 -2.947711 0
M  V30 62 H -6.592991 -5.998284 -3.977111 0
M  V30 63 H -7.620246 -6.133710 -1.821540 0
M  V30 64 H -7.746464 -4.311862 -1.675595 0
M  V30 65 H -10.093777 -4.014052 -4.125035 0
M  V30 66 H -9.775836 -3.437655 -2.479704 0
M  V30 67 H -8.509590 -2.510098 -4.702680 0
M  V30 68 H -7.686151 -2.490326 -3.046295 0
M  V30 69 H -2.098595 -0.778376 -5.755071 0
M  V30 70 H -0.810791 0.292183 -4.101036 0
M  V30 71 H -0.678065 2.780245 2.663552 0
M  V30 72 H 1.276611 3.793264 3.912369 0
M  V30 END ATOM
M  V30 BEGIN BOND
M  V30 1 1 1 2
M  V30 2 1 2 3
M  V30 3 1 2 4
M  V30 4 1 2 5
M  V30 5 2 5 6
M  V30 6 1 6 7
M  V30 7 1 7 8
M  V30 8 1 8 9
M  V30 9 2 9 10
M  V30 10 1 9 11
M  V30 11 1 11 12
M  V30 12 2 12 13
M  V30 13 1 13 14
M  V30 14 2 14 15
M  V30 15 1 15 16
M  V30 16 2 16 17
M  V30 17 1 17 18
M  V30 18 1 18 19
M  V30 19 2 19 20
M  V30 20 1 19 21
M  V30 21 1 21 22
M  V30 22 2 22 23
M  V30 23 1 23 24
M  V30 24 1 24 25
M  V30 25 1 25 26
M  V30 26 1 26 27
M  V30 27 1 27 28
M  V30 28 1 28 29
M  V30 29 1 29 30
M  V30 30 1 30 31
M  V30 31 1 31 32
M  V30 32 1 32 33
M  V30 33 2 24 34
M  V30 34 1 34 35
M  V30 35 2 35 36
M  V30 36 1 15 37
M  V30 37 2 37 38
M  V30 38 2 7 39
M  V30 39 1 39 40
M  V30 40 1 40 5
M  V30 41 1 38 12
M  V30 42 1 20 16
M  V30 43 1 36 22
M  V30 44 1 36 18
M  V30 45 1 33 28
M  V30 46 1 1 41
M  V30 47 1 1 42
M  V30 48 1 1 43
M  V30 49 1 3 44
M  V30 50 1 3 45
M  V30 51 1 3 46
M  V30 52 1 4 47
M  V30 53 1 4 48
M  V30 54 1 4 49
M  V30 55 1 6 50
M  V30 56 1 8 51
M  V30 57 1 11 52
M  V30 58 1 13 53
M  V30 59 1 14 54
M  V30 60 1 17 55
M  V30 61 1 23 56
M  V30 62 1 26 57
M  V30 63 1 26 58
M  V30 64 1 27 59
M  V30 65 1 27 60
M  V30 66 1 29 61
M  V30 67 1 29 62
M  V30 68 1 30 63
M  V30 69 1 30 64
M  V30 70 1 32 65
M  V30 71 1 32 66
M  V30 72 1 33 67
M  V30 73 1 33 68
M  V30 74 1 34 69
M  V30 75 1 35 70
M  V30 76 1 37 71
M  V30 77 1 38 72
M  V30 END BOND
M  V30 END CTAB
M  END
>  <Dataset>  (7) 
PKIs

>  <Ligand_Instance>  (7) 
nan

>  <PDB_ID>  (7) 
nan

>  <Standardized_SMILES>  (7) 
CC(C)(C)c1cc(NC(=O)Nc2ccc(-c3cn4c(n3)sc3cc(OCCN5CCOCC5)ccc34)cc2)no1

>  <Name>  (7) 
Quizartinib

>  <Pocket>  (7) 
nan

>  <ATP_Site>  (7) 
nan

>  <Peripheral>  (7) 
nan

>  <Num_H_Atoms_ProtBoundConf>  (7) 
nan

>  <Num_Resolved_Atoms>  (7) 
nan

>  <Num_Not_Resolved_Atoms>  (7) 
nan

$$$$
nan
     RDKit          3D

  0  0  0  0  0  0  0  0  0  0999 V3000
M  V30 BEGIN CTAB
M  V30 COUNTS 55 57 0 0 0
M  V30 BEGIN ATOM
M  V30 1 C 1.808764 -1.958681 3.543854 0
M  V30 2 O 2.252558 -0.831375 2.835896 0
M  V30 3 C 3.631131 -0.464176 3.055968 0
M  V30 4 C 4.559527 -1.042467 3.840181 0
M  V30 5 C 5.812772 -0.436315 3.833787 0
M  V30 6 C 5.931621 0.700494 3.006060 0
M  V30 7 F 7.244445 1.028642 3.231511 0
M  V30 8 C 4.771144 1.116521 2.262228 0
M  V30 9 C 3.384588 0.520863 2.209315 0
M  V30 10 C 3.120114 1.577954 1.300776 0
M  V30 11 O 2.031795 0.914873 1.314778 0
M  V30 12 N 3.224346 2.699090 0.506716 0
M  V30 13 C 2.154981 3.154722 -0.314689 0
M  V30 14 C 0.999289 2.228673 -0.375642 0
M  V30 15 C -0.145990 2.216177 0.418363 0
M  V30 16 C -1.032572 1.197572 0.154977 0
M  V30 17 C -0.921087 0.201994 -0.789919 0
M  V30 18 C -1.951378 -0.818503 -0.898248 0
M  V30 19 N -2.355311 -1.450490 0.232911 0
M  V30 20 N -3.290344 -2.349789 -0.026513 0
M  V30 21 C -3.899367 -3.170959 0.995287 0 CFG=1
M  V30 22 C -5.366695 -2.740438 1.088244 0
M  V30 23 C -3.864665 -4.638410 0.734002 0
M  V30 24 F -4.493484 -5.053871 -0.396015 0
M  V30 25 F -4.531395 -5.259747 1.800885 0
M  V30 26 F -2.539797 -5.089072 0.828500 0
M  V30 27 C -3.504204 -2.309887 -1.336221 0
M  V30 28 N -4.410472 -3.083910 -2.096492 0
M  V30 29 C -2.690806 -1.370434 -1.912080 0
M  V30 30 C -2.588260 -0.986538 -3.275691 0
M  V30 31 N -1.791087 -0.007714 -3.891430 0
M  V30 32 O -3.321950 -1.609647 -4.084321 0
M  V30 33 C 0.230521 0.262139 -1.548710 0
M  V30 34 C 1.185765 1.247436 -1.363621 0
M  V30 35 H 2.498558 -2.829375 3.417885 0
M  V30 36 H 0.822126 -2.319629 3.176461 0
M  V30 37 H 1.729501 -1.816216 4.641106 0
M  V30 38 H 4.060817 -1.887445 4.308253 0
M  V30 39 H 6.399549 -1.037585 4.504554 0
M  V30 40 H 5.428935 1.961902 1.859233 0
M  V30 41 H 4.195649 2.953272 0.750950 0
M  V30 42 H 2.550650 3.364500 -1.315233 0
M  V30 43 H 1.820848 4.149362 0.077307 0
M  V30 44 H -0.192632 3.008680 1.135653 0
M  V30 45 H -1.926015 1.207422 0.790844 0
M  V30 46 H -3.476992 -2.962645 2.000361 0
M  V30 47 H -5.873864 -3.129319 0.195062 0
M  V30 48 H -5.362529 -1.631059 1.174716 0
M  V30 49 H -5.829937 -3.204435 1.984060 0
M  V30 50 H -5.439714 -3.189212 -2.234380 0
M  V30 51 H -4.119761 -3.834148 -2.788842 0
M  V30 52 H -2.439665 0.804851 -3.746441 0
M  V30 53 H -0.973143 0.370074 -4.383322 0
M  V30 54 H 0.382950 -0.502398 -2.300683 0
M  V30 55 H 2.045254 1.187736 -2.024946 0
M  V30 END ATOM
M  V30 BEGIN BOND
M  V30 1 1 1 2
M  V30 2 1 2 3
M  V30 3 2 3 4
M  V30 4 1 4 5
M  V30 5 2 5 6
M  V30 6 1 6 7
M  V30 7 1 6 8
M  V30 8 2 8 9
M  V30 9 1 9 10
M  V30 10 2 10 11
M  V30 11 1 10 12
M  V30 12 1 12 13
M  V30 13 1 13 14
M  V30 14 2 14 15
M  V30 15 1 15 16
M  V30 16 2 16 17
M  V30 17 1 17 18
M  V30 18 2 18 19
M  V30 19 1 19 20
M  V30 20 1 20 21
M  V30 21 1 21 22
M  V30 22 1 21 23
M  V30 23 1 23 24
M  V30 24 1 23 25
M  V30 25 1 23 26
M  V30 26 1 20 27
M  V30 27 1 27 28
M  V30 28 2 27 29
M  V30 29 1 29 30
M  V30 30 1 30 31
M  V30 31 2 30 32
M  V30 32 1 17 33
M  V30 33 2 33 34
M  V30 34 1 9 3
M  V30 35 1 34 14
M  V30 36 1 29 18
M  V30 37 1 1 35
M  V30 38 1 1 36
M  V30 39 1 1 37
M  V30 40 1 4 38
M  V30 41 1 5 39
M  V30 42 1 8 40
M  V30 43 1 12 41
M  V30 44 1 13 42
M  V30 45 1 13 43
M  V30 46 1 15 44
M  V30 47 1 16 45
M  V30 48 1 21 46 CFG=1
M  V30 49 1 22 47
M  V30 50 1 22 48
M  V30 51 1 22 49
M  V30 52 1 28 50
M  V30 53 1 28 51
M  V30 54 1 31 52
M  V30 55 1 31 53
M  V30 56 1 33 54
M  V30 57 1 34 55
M  V30 END BOND
M  V30 END CTAB
M  END
>  <Dataset>  (8) 
PKIs

>  <Ligand_Instance>  (8) 
nan

>  <PDB_ID>  (8) 
nan

>  <Standardized_SMILES>  (8) 
COc1ccc(F)cc1C(=O)NCc1ccc(-c2nn([C@@H](C)C(F)(F)F)c(N)c2C(N)=O)cc1

>  <Name>  (8) 
Pirtobrutinib

>  <Pocket>  (8) 
nan

>  <ATP_Site>  (8) 
nan

>  <Peripheral>  (8) 
nan

>  <Num_H_Atoms_ProtBoundConf>  (8) 
nan

>  <Num_Resolved_Atoms>  (8) 
nan

>  <Num_Not_Resolved_Atoms>  (8) 
nan

$$$$
nan
     RDKit          3D

  0  0  0  0  0  0  0  0  0  0999 V3000
M  V30 BEGIN CTAB
M  V30 COUNTS 43 45 0 0 0
M  V30 BEGIN ATOM
M  V30 1 C -1.209839 -4.904624 -1.597249 0
M  V30 2 C 0.187741 -4.506403 -1.165721 0
M  V30 3 C 0.175205 -4.496613 0.348328 0
M  V30 4 S 1.753329 -4.045080 0.964860 0
M  V30 5 O 1.809259 -4.112256 2.447228 0
M  V30 6 O 2.753536 -5.039789 0.410669 0
M  V30 7 N 2.251946 -2.484435 0.447508 0
M  V30 8 C 1.380151 -1.434748 0.891724 0
M  V30 9 C 0.876679 -0.640398 -0.315402 0
M  V30 10 C 1.623691 0.560247 0.167496 0
M  V30 11 N 0.805470 1.740188 0.324823 0
M  V30 12 C 0.300485 2.063955 -1.004451 0
M  V30 13 C 0.369654 2.630216 1.371193 0
M  V30 14 N 0.817553 3.905581 1.192918 0
M  V30 15 C 0.514970 4.878548 2.073178 0
M  V30 16 N -0.244189 4.568556 3.142156 0
M  V30 17 C -0.713853 3.329489 3.369560 0
M  V30 18 N -1.467481 2.717274 4.300683 0
M  V30 19 C -1.627653 1.397031 4.003715 0
M  V30 20 C -0.938812 1.138130 2.812429 0
M  V30 21 C -0.395199 2.344655 2.459062 0
M  V30 22 C 2.056681 -0.179433 1.374518 0
M  V30 23 H -1.413136 -4.405971 -2.571432 0
M  V30 24 H -1.988711 -4.659690 -0.851172 0
M  V30 25 H -1.233519 -5.994002 -1.788060 0
M  V30 26 H 0.923917 -5.227650 -1.564186 0
M  V30 27 H 0.419814 -3.494698 -1.528790 0
M  V30 28 H -0.004726 -5.555899 0.654180 0
M  V30 29 H -0.670322 -3.926870 0.756351 0
M  V30 30 H 3.239446 -2.355457 0.727241 0
M  V30 31 H 0.538649 -1.787947 1.487023 0
M  V30 32 H -0.219941 -0.482065 -0.307134 0
M  V30 33 H 1.247172 -0.988734 -1.295207 0
M  V30 34 H 2.515037 0.810610 -0.467659 0
M  V30 35 H -0.264530 3.022988 -1.026818 0
M  V30 36 H -0.268238 1.224835 -1.403940 0
M  V30 37 H 1.193619 2.266523 -1.666730 0
M  V30 38 H 0.882527 5.900542 1.916782 0
M  V30 39 H -1.874958 3.191689 5.139027 0
M  V30 40 H -2.182458 0.657404 4.568946 0
M  V30 41 H -0.851698 0.185659 2.279294 0
M  V30 42 H 3.173990 -0.351380 1.445217 0
M  V30 43 H 1.733709 0.160644 2.366632 0
M  V30 END ATOM
M  V30 BEGIN BOND
M  V30 1 1 1 2
M  V30 2 1 2 3
M  V30 3 1 3 4
M  V30 4 2 4 5
M  V30 5 2 4 6
M  V30 6 1 4 7
M  V30 7 1 7 8
M  V30 8 1 8 9
M  V30 9 1 9 10
M  V30 10 1 10 11
M  V30 11 1 11 12
M  V30 12 1 11 13
M  V30 13 2 13 14
M  V30 14 1 14 15
M  V30 15 2 15 16
M  V30 16 1 16 17
M  V30 17 1 17 18
M  V30 18 1 18 19
M  V30 19 2 19 20
M  V30 20 1 20 21
M  V30 21 1 10 22
M  V30 22 1 22 8
M  V30 23 1 21 13
M  V30 24 2 21 17
M  V30 25 1 1 23
M  V30 26 1 1 24
M  V30 27 1 1 25
M  V30 28 1 2 26
M  V30 29 1 2 27
M  V30 30 1 3 28
M  V30 31 1 3 29
M  V30 32 1 7 30
M  V30 33 1 8 31
M  V30 34 1 9 32
M  V30 35 1 9 33
M  V30 36 1 10 34
M  V30 37 1 12 35
M  V30 38 1 12 36
M  V30 39 1 12 37
M  V30 40 1 15 38
M  V30 41 1 18 39
M  V30 42 1 19 40
M  V30 43 1 20 41
M  V30 44 1 22 42
M  V30 45 1 22 43
M  V30 END BOND
M  V30 END CTAB
M  END
>  <Dataset>  (9) 
PKIs

>  <Ligand_Instance>  (9) 
nan

>  <PDB_ID>  (9) 
nan

>  <Standardized_SMILES>  (9) 
CCCS(=O)(=O)NC1CC(N(C)c2ncnc3[nH]ccc23)C1

>  <Name>  (9) 
Abrocitinib

>  <Pocket>  (9) 
nan

>  <ATP_Site>  (9) 
nan

>  <Peripheral>  (9) 
nan

>  <Num_H_Atoms_ProtBoundConf>  (9) 
nan

>  <Num_Resolved_Atoms>  (9) 
nan

>  <Num_Not_Resolved_Atoms>  (9) 
nan

$$$$
nan
     RDKit          3D

  0  0  0  0  0  0  0  0  0  0999 V3000
M  V30 BEGIN CTAB
M  V30 COUNTS 53 56 0 0 0
M  V30 BEGIN ATOM
M  V30 1 H 3.876484 -3.860893 2.014158 0 MASS=2
M  V30 2 C 4.664892 -3.153012 1.677880 0
M  V30 3 H 5.539736 -3.308245 2.350412 0 MASS=2
M  V30 4 H 5.041088 -3.377331 0.652528 0 MASS=2
M  V30 5 N 4.235851 -1.778612 1.837872 0
M  V30 6 C 2.978108 -1.486136 1.232884 0
M  V30 7 O 2.603742 -2.556645 0.720065 0
M  V30 8 C 2.427239 -0.142872 1.317443 0
M  V30 9 N 3.186094 0.800174 1.901485 0
M  V30 10 N 2.782648 2.055513 1.989489 0
M  V30 11 C 1.597633 2.469625 1.505517 0
M  V30 12 N 1.312947 3.851125 1.679974 0
M  V30 13 C 0.648369 4.053636 2.907228 0
M  V30 14 O 0.062874 4.052465 4.036706 0
M  V30 15 C 0.179769 5.338792 3.467560 0
M  V30 16 C 1.024253 6.557386 3.263404 0
M  V30 17 C -0.355276 6.387005 2.569494 0
M  V30 18 C 0.799849 1.520238 0.901792 0
M  V30 19 C 1.195679 0.180742 0.791772 0
M  V30 20 N 0.353257 -0.740343 0.167533 0
M  V30 21 C -0.336567 -1.903150 0.598915 0
M  V30 22 C -0.343049 -2.408854 1.874942 0
M  V30 23 C -1.015393 -3.536646 2.278755 0
M  V30 24 C -1.747329 -4.226562 1.335734 0
M  V30 25 C -1.753515 -3.734318 0.047329 0
M  V30 26 C -2.535143 -4.470899 -0.957361 0
M  V30 27 N -3.248272 -5.588012 -0.725083 0
M  V30 28 C -3.842720 -6.007984 -1.851904 0
M  V30 29 N -3.485835 -5.119491 -2.819153 0
M  V30 30 C -3.942343 -5.245227 -4.193707 0
M  V30 31 N -2.707346 -4.214312 -2.260867 0
M  V30 32 C -1.065915 -2.598715 -0.319992 0
M  V30 33 O -1.147431 -2.202417 -1.640779 0
M  V30 34 C -2.139268 -1.323242 -2.133891 0
M  V30 35 H 4.822784 -1.065992 2.364329 0
M  V30 36 H 1.477363 4.734067 1.123740 0
M  V30 37 H -0.320587 5.245189 4.452767 0
M  V30 38 H 1.912149 6.456275 2.617556 0
M  V30 39 H 1.066459 7.340014 4.067289 0
M  V30 40 H -1.137893 7.100020 2.919373 0
M  V30 41 H -0.294548 6.220452 1.484013 0
M  V30 42 H -0.147267 1.894775 0.524579 0
M  V30 43 H 0.284119 -0.420015 -0.806730 0
M  V30 44 H 0.233125 -1.869674 2.627481 0
M  V30 45 H -0.987781 -3.892549 3.295506 0
M  V30 46 H -2.297207 -5.116866 1.583273 0
M  V30 47 H -4.463382 -6.899735 -1.858744 0
M  V30 48 H -4.878962 -4.652630 -4.359898 0
M  V30 49 H -4.101754 -6.311215 -4.465359 0
M  V30 50 H -3.168089 -4.854574 -4.877294 0
M  V30 51 H -1.849252 -0.250460 -2.058107 0
M  V30 52 H -3.091925 -1.428131 -1.577027 0
M  V30 53 H -2.316395 -1.525718 -3.207278 0
M  V30 END ATOM
M  V30 BEGIN BOND
M  V30 1 1 1 2
M  V30 2 1 2 3
M  V30 3 1 2 4
M  V30 4 1 2 5
M  V30 5 1 5 6
M  V30 6 2 6 7
M  V30 7 1 6 8
M  V30 8 2 8 9
M  V30 9 1 9 10
M  V30 10 2 10 11
M  V30 11 1 11 12
M  V30 12 1 12 13
M  V30 13 2 13 14
M  V30 14 1 13 15
M  V30 15 1 15 16
M  V30 16 1 16 17
M  V30 17 1 11 18
M  V30 18 2 18 19
M  V30 19 1 19 20
M  V30 20 1 20 21
M  V30 21 2 21 22
M  V30 22 1 22 23
M  V30 23 2 23 24
M  V30 24 1 24 25
M  V30 25 1 25 26
M  V30 26 1 26 27
M  V30 27 2 27 28
M  V30 28 1 28 29
M  V30 29 1 29 30
M  V30 30 1 29 31
M  V30 31 2 25 32
M  V30 32 1 32 33
M  V30 33 1 33 34
M  V30 34 1 19 8
M  V30 35 1 32 21
M  V30 36 1 17 15
M  V30 37 2 31 26
M  V30 38 1 5 35
M  V30 39 1 12 36
M  V30 40 1 15 37
M  V30 41 1 16 38
M  V30 42 1 16 39
M  V30 43 1 17 40
M  V30 44 1 17 41
M  V30 45 1 18 42
M  V30 46 1 20 43
M  V30 47 1 22 44
M  V30 48 1 23 45
M  V30 49 1 24 46
M  V30 50 1 28 47
M  V30 51 1 30 48
M  V30 52 1 30 49
M  V30 53 1 30 50
M  V30 54 1 34 51
M  V30 55 1 34 52
M  V30 56 1 34 53
M  V30 END BOND
M  V30 END CTAB
M  END
>  <Dataset>  (10) 
PKIs

>  <Ligand_Instance>  (10) 
nan

>  <PDB_ID>  (10) 
nan

>  <Standardized_SMILES>  (10) 
[2H]C([2H])([2H])NC(=O)c1nnc(NC(=O)C2CC2)cc1Nc1cccc(-c2ncn(C)n2)c1OC

>  <Name>  (10) 
Deucravacitinib

>  <Pocket>  (10) 
nan

>  <ATP_Site>  (10) 
nan

>  <Peripheral>  (10) 
nan

>  <Num_H_Atoms_ProtBoundConf>  (10) 
nan

>  <Num_Resolved_Atoms>  (10) 
nan

>  <Num_Not_Resolved_Atoms>  (10) 
nan

$$$$
nan
     RDKit          3D

  0  0  0  0  0  0  0  0  0  0999 V3000
M  V30 BEGIN CTAB
M  V30 COUNTS 53 56 0 0 0
M  V30 BEGIN ATOM
M  V30 1 C 0.839285 -2.890713 5.969088 0
M  V30 2 C 1.908022 -2.137578 5.741730 0
M  V30 3 C 2.141066 -2.966607 4.563487 0
M  V30 4 O 1.272760 -3.850106 4.439578 0
M  V30 5 N 3.256721 -2.711207 3.722978 0
M  V30 6 C 4.405328 -1.809785 3.583136 0
M  V30 7 C 4.174141 -1.277410 2.190305 0
M  V30 8 C 3.791869 -2.541251 1.422500 0 CFG=2
M  V30 9 N 2.624745 -2.306334 0.592247 0
M  V30 10 N 1.747548 -1.300295 0.666170 0
M  V30 11 C 0.803494 -1.466970 -0.305523 0
M  V30 12 C -0.294420 -0.549039 -0.500119 0
M  V30 13 C -1.227067 0.209723 -0.649903 0
M  V30 14 C -2.341078 1.102732 -0.847717 0
M  V30 15 C -2.177694 2.468875 -0.947804 0
M  V30 16 C -3.249233 3.327345 -1.138018 0
M  V30 17 O -3.112931 4.705837 -1.242106 0
M  V30 18 C -1.801880 5.256365 -1.147420 0
M  V30 19 C -4.487317 2.726658 -1.220469 0
M  V30 20 C -4.712464 1.367069 -1.127644 0
M  V30 21 O -6.006169 0.853552 -1.223639 0
M  V30 22 C -7.052347 1.771855 -1.416258 0
M  V30 23 C -3.607177 0.555395 -0.937806 0
M  V30 24 C 1.105645 -2.622466 -1.011656 0
M  V30 25 C 0.467436 -3.221940 -2.078143 0
M  V30 26 N -0.701359 -2.615795 -2.597517 0
M  V30 27 N 0.983486 -4.365324 -2.585700 0
M  V30 28 C 2.093468 -4.848524 -2.014681 0
M  V30 29 N 2.708026 -4.256829 -0.975567 0
M  V30 30 C 2.253407 -3.115930 -0.416000 0
M  V30 31 C 3.536476 -3.513095 2.528310 0
M  V30 32 H 0.207391 -2.698200 6.828275 0
M  V30 33 H 0.253739 -2.625969 6.863379 0
M  V30 34 H 2.210768 -1.317516 6.366760 0
M  V30 35 H 4.395148 -0.977496 4.288797 0
M  V30 36 H 5.371020 -2.351471 3.564202 0
M  V30 37 H 3.290750 -0.610729 2.139975 0
M  V30 38 H 5.041249 -0.754609 1.753571 0
M  V30 39 H 4.662830 -2.830140 0.789364 0
M  V30 40 H -1.173958 2.881714 -0.874566 0
M  V30 41 H -1.188314 4.984054 -2.024765 0
M  V30 42 H -1.275640 4.854505 -0.239234 0
M  V30 43 H -1.802466 6.343863 -1.036721 0
M  V30 44 H -5.330157 3.416148 -1.371314 0
M  V30 45 H -7.065296 2.601646 -0.670419 0
M  V30 46 H -8.030647 1.234589 -1.293351 0
M  V30 47 H -7.067639 2.226694 -2.429133 0
M  V30 48 H -3.807094 -0.523489 -0.866452 0
M  V30 49 H -0.869278 -2.288885 -3.576875 0
M  V30 50 H -1.480983 -2.480218 -1.930150 0
M  V30 51 H 2.580938 -5.761206 -2.353282 0
M  V30 52 H 4.512243 -4.019745 2.764556 0
M  V30 53 H 2.809673 -4.295731 2.339149 0
M  V30 END ATOM
M  V30 BEGIN BOND
M  V30 1 2 1 2
M  V30 2 1 2 3
M  V30 3 2 3 4
M  V30 4 1 3 5
M  V30 5 1 5 6
M  V30 6 1 6 7
M  V30 7 1 7 8
M  V30 8 1 8 9
M  V30 9 1 9 10
M  V30 10 2 10 11
M  V30 11 1 11 12
M  V30 12 3 12 13
M  V30 13 1 13 14
M  V30 14 2 14 15
M  V30 15 1 15 16
M  V30 16 1 16 17
M  V30 17 1 17 18
M  V30 18 2 16 19
M  V30 19 1 19 20
M  V30 20 1 20 21
M  V30 21 1 21 22
M  V30 22 2 20 23
M  V30 23 1 11 24
M  V30 24 2 24 25
M  V30 25 1 25 26
M  V30 26 1 25 27
M  V30 27 2 27 28
M  V30 28 1 28 29
M  V30 29 2 29 30
M  V30 30 1 8 31
M  V30 31 1 31 5
M  V30 32 1 30 9
M  V30 33 1 23 14
M  V30 34 1 30 24
M  V30 35 1 1 32
M  V30 36 1 1 33
M  V30 37 1 2 34
M  V30 38 1 6 35
M  V30 39 1 6 36
M  V30 40 1 7 37
M  V30 41 1 7 38
M  V30 42 1 8 39 CFG=3
M  V30 43 1 15 40
M  V30 44 1 18 41
M  V30 45 1 18 42
M  V30 46 1 18 43
M  V30 47 1 19 44
M  V30 48 1 22 45
M  V30 49 1 22 46
M  V30 50 1 22 47
M  V30 51 1 23 48
M  V30 52 1 26 49
M  V30 53 1 26 50
M  V30 54 1 28 51
M  V30 55 1 31 52
M  V30 56 1 31 53
M  V30 END BOND
M  V30 END CTAB
M  END
>  <Dataset>  (11) 
PKIs

>  <Ligand_Instance>  (11) 
nan

>  <PDB_ID>  (11) 
nan

>  <Standardized_SMILES>  (11) 
C=CC(=O)N1CC[C@H](n2nc(C#Cc3cc(OC)cc(OC)c3)c3c(N)ncnc32)C1

>  <Name>  (11) 
Futibatinib

>  <Pocket>  (11) 
nan

>  <ATP_Site>  (11) 
nan

>  <Peripheral>  (11) 
nan

>  <Num_H_Atoms_ProtBoundConf>  (11) 
nan

>  <Num_Resolved_Atoms>  (11) 
nan

>  <Num_Not_Resolved_Atoms>  (11) 
nan

$$$$
nan
     RDKit          3D

  0  0  0  0  0  0  0  0  0  0999 V3000
M  V30 BEGIN CTAB
M  V30 COUNTS 67 71 0 0 0
M  V30 BEGIN ATOM
M  V30 1 C 1.871679 -0.650632 3.458161 0
M  V30 2 C 1.525430 0.538140 2.913053 0
M  V30 3 C 2.496317 1.529150 2.393018 0
M  V30 4 O 2.522825 1.956050 1.172932 0
M  V30 5 C 2.643977 1.382099 0.011097 0
M  V30 6 C 1.527885 0.523477 -0.514168 0
M  V30 7 C 1.930661 -0.591389 -1.256626 0
M  V30 8 C 1.053022 -1.440925 -1.852112 0
M  V30 9 C -0.307534 -1.154065 -1.691882 0
M  V30 10 C -0.664004 -0.047959 -0.952617 0
M  V30 11 C 0.163447 0.850692 -0.325934 0
M  V30 12 O 0.086083 1.936967 0.406551 0
M  V30 13 C -0.873797 2.739627 0.909317 0
M  V30 14 C -1.775004 3.488737 -0.018008 0
M  V30 15 N -2.610682 2.740148 -0.888525 0
M  V30 16 C -3.281714 3.641654 -1.831246 0
M  V30 17 C -4.433931 4.160374 -1.034331 0
M  V30 18 C -4.954372 2.880328 -0.404902 0
M  V30 19 C -3.709229 2.089729 -0.175072 0
M  V30 20 N 1.216453 -2.598433 -2.614631 0
M  V30 21 C 1.880845 -3.806369 -2.474279 0
M  V30 22 N 2.699137 -4.728175 -2.959548 0
M  V30 23 C 2.976576 -5.819862 -2.201845 0
M  V30 24 C 2.451599 -6.027357 -0.943669 0
M  V30 25 C 1.618141 -5.022556 -0.526615 0
M  V30 26 N 1.353960 -3.965148 -1.271150 0
M  V30 27 C 0.901739 -4.905547 0.738392 0
M  V30 28 C 0.627674 -6.130542 1.306635 0
M  V30 29 C -0.062456 -6.070315 2.524757 0
M  V30 30 C -0.412863 -4.847309 3.062983 0
M  V30 31 C -0.108526 -3.642472 2.443170 0
M  V30 32 C 0.562798 -3.676561 1.256320 0
M  V30 33 C -0.564233 -2.405068 3.183526 0
M  V30 34 O 0.217769 -2.202972 4.291439 0
M  V30 35 C 1.542275 -1.935337 4.087465 0
M  V30 36 H 2.983701 -0.708620 3.427519 0
M  V30 37 H 0.445725 0.765574 2.862208 0
M  V30 38 H 2.372445 2.453603 3.082573 0
M  V30 39 H 3.532662 1.172902 2.783169 0
M  V30 40 H 2.913598 2.143222 -0.804778 0
M  V30 41 H 3.589685 0.728935 -0.014581 0
M  V30 42 H 2.962563 -0.846005 -1.401960 0
M  V30 43 H -1.096670 -1.758139 -2.125105 0
M  V30 44 H -1.702168 0.188526 -0.799515 0
M  V30 45 H -1.584019 2.204340 1.628115 0
M  V30 46 H -0.447989 3.543860 1.600002 0
M  V30 47 H -1.152398 4.215874 -0.594184 0
M  V30 48 H -2.455020 4.102506 0.639400 0
M  V30 49 H -3.618444 3.138362 -2.743270 0
M  V30 50 H -2.520546 4.426500 -2.055127 0
M  V30 51 H -4.092196 4.894032 -0.278684 0
M  V30 52 H -5.196173 4.589532 -1.724879 0
M  V30 53 H -5.592836 2.390604 -1.189289 0
M  V30 54 H -5.524947 3.053125 0.524406 0
M  V30 55 H -3.437088 1.966418 0.871888 0
M  V30 56 H -3.902672 1.057187 -0.569379 0
M  V30 57 H 0.808341 -2.796093 -3.548836 0
M  V30 58 H 3.638612 -6.577506 -2.581192 0
M  V30 59 H 2.588696 -6.836204 -0.251004 0
M  V30 60 H 0.913237 -7.075651 0.865713 0
M  V30 61 H -0.310861 -7.012485 3.030286 0
M  V30 62 H -0.946351 -4.910357 4.012074 0
M  V30 63 H 0.843447 -2.796085 0.700827 0
M  V30 64 H -0.503786 -1.579669 2.449190 0
M  V30 65 H -1.594217 -2.609921 3.507325 0
M  V30 66 H 2.031581 -2.039056 5.103481 0
M  V30 67 H 1.952901 -2.777704 3.476727 0
M  V30 END ATOM
M  V30 BEGIN BOND
M  V30 1 2 1 2
M  V30 2 1 2 3
M  V30 3 1 3 4
M  V30 4 1 4 5
M  V30 5 1 5 6
M  V30 6 1 6 7
M  V30 7 2 7 8
M  V30 8 1 8 9
M  V30 9 2 9 10
M  V30 10 1 10 11
M  V30 11 1 11 12
M  V30 12 1 12 13
M  V30 13 1 13 14
M  V30 14 1 14 15
M  V30 15 1 15 16
M  V30 16 1 16 17
M  V30 17 1 17 18
M  V30 18 1 18 19
M  V30 19 1 8 20
M  V30 20 1 20 21
M  V30 21 1 21 22
M  V30 22 2 22 23
M  V30 23 1 23 24
M  V30 24 2 24 25
M  V30 25 1 25 26
M  V30 26 1 25 27
M  V30 27 1 27 28
M  V30 28 2 28 29
M  V30 29 1 29 30
M  V30 30 2 30 31
M  V30 31 1 31 32
M  V30 32 1 31 33
M  V30 33 1 33 34
M  V30 34 1 34 35
M  V30 35 1 35 1
M  V30 36 2 11 6
M  V30 37 1 19 15
M  V30 38 2 26 21
M  V30 39 2 32 27
M  V30 40 1 1 36
M  V30 41 1 2 37
M  V30 42 1 3 38
M  V30 43 1 3 39
M  V30 44 1 5 40
M  V30 45 1 5 41
M  V30 46 1 7 42
M  V30 47 1 9 43
M  V30 48 1 10 44
M  V30 49 1 13 45
M  V30 50 1 13 46
M  V30 51 1 14 47
M  V30 52 1 14 48
M  V30 53 1 16 49
M  V30 54 1 16 50
M  V30 55 1 17 51
M  V30 56 1 17 52
M  V30 57 1 18 53
M  V30 58 1 18 54
M  V30 59 1 19 55
M  V30 60 1 19 56
M  V30 61 1 20 57
M  V30 62 1 23 58
M  V30 63 1 24 59
M  V30 64 1 28 60
M  V30 65 1 29 61
M  V30 66 1 30 62
M  V30 67 1 32 63
M  V30 68 1 33 64
M  V30 69 1 33 65
M  V30 70 1 35 66
M  V30 71 1 35 67
M  V30 END BOND
M  V30 END CTAB
M  END
>  <Dataset>  (12) 
PKIs

>  <Ligand_Instance>  (12) 
nan

>  <PDB_ID>  (12) 
nan

>  <Standardized_SMILES>  (12) 
C1=C/COCc2cc(ccc2OCCN2CCCC2)Nc2nccc(n2)-c2cccc(c2)COC/1

>  <Name>  (12) 
Pacritinib

>  <Pocket>  (12) 
nan

>  <ATP_Site>  (12) 
nan

>  <Peripheral>  (12) 
nan

>  <Num_H_Atoms_ProtBoundConf>  (12) 
nan

>  <Num_Resolved_Atoms>  (12) 
nan

>  <Num_Not_Resolved_Atoms>  (12) 
nan

$$$$
nan
     RDKit          3D

  0  0  0  0  0  0  0  0  0  0999 V3000
M  V30 BEGIN CTAB
M  V30 COUNTS 65 69 0 0 0
M  V30 BEGIN ATOM
M  V30 1 C 2.427970 -2.174433 5.627561 0
M  V30 2 N 2.739298 -1.806609 4.264555 0
M  V30 3 C 3.879269 -0.962969 4.241917 0
M  V30 4 C 4.637016 -0.856447 2.972036 0
M  V30 5 C 4.429518 -1.995448 1.993592 0
M  V30 6 C 4.980027 -1.599021 0.668878 0
M  V30 7 O 4.471941 -0.510115 0.028352 0
M  V30 8 C 3.289122 -0.169398 -0.523190 0
M  V30 9 C 2.041411 -0.686307 -0.764194 0
M  V30 10 N 1.086085 0.035285 -1.375074 0
M  V30 11 C 1.300764 1.302106 -1.782481 0
M  V30 12 C 0.185038 1.969216 -2.436210 0
M  V30 13 C 0.351106 3.287467 -2.798847 0
M  V30 14 C -0.725993 3.932550 -3.415517 0
M  V30 15 C -1.884504 3.187338 -3.614414 0
M  V30 16 C -2.081432 1.885391 -3.268968 0
M  V30 17 C -3.322226 1.136047 -3.498997 0
M  V30 18 N -4.196191 1.023236 -2.363569 0
M  V30 19 N -3.988097 -0.072715 -1.612592 0
M  V30 20 C -4.721504 -0.351625 -0.521139 0
M  V30 21 C -4.387936 -1.591047 0.212273 0
M  V30 22 C -3.344751 -2.359688 -0.285266 0
M  V30 23 C -2.938185 -3.557168 0.305735 0
M  V30 24 C -3.598991 -4.009966 1.446743 0
M  V30 25 C -4.628041 -3.238483 1.924990 0
M  V30 26 C -5.331264 -3.699274 3.109020 0
M  V30 27 N -5.885294 -4.067823 4.058733 0
M  V30 28 C -5.026890 -2.045544 1.327982 0
M  V30 29 C -5.734266 0.485747 -0.117766 0
M  V30 30 C -5.973699 1.631477 -0.878118 0
M  V30 31 C -5.192960 1.866963 -1.984802 0
M  V30 32 O -5.331312 2.882651 -2.744938 0
M  V30 33 C -0.981265 1.270297 -2.652659 0
M  V30 34 N 2.511356 1.876885 -1.577466 0
M  V30 35 C 3.503979 1.158085 -0.955363 0
M  V30 36 C 3.037908 -2.497841 2.025370 0
M  V30 37 C 2.813042 -3.002156 3.472794 0
M  V30 38 H 1.346461 -2.503297 5.596083 0
M  V30 39 H 3.031049 -3.001945 6.026990 0
M  V30 40 H 2.408978 -1.285917 6.301655 0
M  V30 41 H 4.529768 -1.202895 5.134918 0
M  V30 42 H 3.512305 0.081171 4.477113 0
M  V30 43 H 5.733849 -0.907258 3.272587 0
M  V30 44 H 4.564710 0.111706 2.437059 0
M  V30 45 H 5.076499 -2.849112 2.382925 0
M  V30 46 H 6.107018 -1.578010 0.747201 0
M  V30 47 H 4.804934 -2.493572 -0.020822 0
M  V30 48 H 1.982066 -1.699045 -0.419812 0
M  V30 49 H 1.273691 3.817879 -2.620058 0
M  V30 50 H -0.685403 4.977672 -3.738237 0
M  V30 51 H -2.700384 3.712672 -4.094740 0
M  V30 52 H -3.844538 1.636700 -4.368699 0
M  V30 53 H -3.037938 0.123798 -3.861944 0
M  V30 54 H -2.763456 -2.107106 -1.160205 0
M  V30 55 H -2.140229 -4.170963 -0.053072 0
M  V30 56 H -3.296070 -4.931177 1.906930 0
M  V30 57 H -5.839750 -1.454246 1.723235 0
M  V30 58 H -6.329072 0.274169 0.758833 0
M  V30 59 H -6.756302 2.337447 -0.616300 0
M  V30 60 H -1.128949 0.218556 -2.367986 0
M  V30 61 H 4.360202 1.850779 -0.919935 0
M  V30 62 H 2.905949 -3.349952 1.357241 0
M  V30 63 H 2.264909 -1.693587 1.930696 0
M  V30 64 H 1.870549 -3.548866 3.563150 0
M  V30 65 H 3.658041 -3.650069 3.721019 0
M  V30 END ATOM
M  V30 BEGIN BOND
M  V30 1 1 1 2
M  V30 2 1 2 3
M  V30 3 1 3 4
M  V30 4 1 4 5
M  V30 5 1 5 6
M  V30 6 1 6 7
M  V30 7 1 7 8
M  V30 8 2 8 9
M  V30 9 1 9 10
M  V30 10 2 10 11
M  V30 11 1 11 12
M  V30 12 2 12 13
M  V30 13 1 13 14
M  V30 14 2 14 15
M  V30 15 1 15 16
M  V30 16 1 16 17
M  V30 17 1 17 18
M  V30 18 1 18 19
M  V30 19 2 19 20
M  V30 20 1 20 21
M  V30 21 2 21 22
M  V30 22 1 22 23
M  V30 23 2 23 24
M  V30 24 1 24 25
M  V30 25 1 25 26
M  V30 26 3 26 27
M  V30 27 2 25 28
M  V30 28 1 20 29
M  V30 29 2 29 30
M  V30 30 1 30 31
M  V30 31 2 31 32
M  V30 32 2 16 33
M  V30 33 1 11 34
M  V30 34 2 34 35
M  V30 35 1 5 36
M  V30 36 1 36 37
M  V30 37 1 37 2
M  V30 38 1 35 8
M  V30 39 1 33 12
M  V30 40 1 31 18
M  V30 41 1 28 21
M  V30 42 1 1 38
M  V30 43 1 1 39
M  V30 44 1 1 40
M  V30 45 1 3 41
M  V30 46 1 3 42
M  V30 47 1 4 43
M  V30 48 1 4 44
M  V30 49 1 5 45
M  V30 50 1 6 46
M  V30 51 1 6 47
M  V30 52 1 9 48
M  V30 53 1 13 49
M  V30 54 1 14 50
M  V30 55 1 15 51
M  V30 56 1 17 52
M  V30 57 1 17 53
M  V30 58 1 22 54
M  V30 59 1 23 55
M  V30 60 1 24 56
M  V30 61 1 28 57
M  V30 62 1 29 58
M  V30 63 1 30 59
M  V30 64 1 33 60
M  V30 65 1 35 61
M  V30 66 1 36 62
M  V30 67 1 36 63
M  V30 68 1 37 64
M  V30 69 1 37 65
M  V30 END BOND
M  V30 END CTAB
M  END
>  <Dataset>  (13) 
PKIs

>  <Ligand_Instance>  (13) 
nan

>  <PDB_ID>  (13) 
nan

>  <Standardized_SMILES>  (13) 
CN1CCC(COc2cnc(-c3cccc(Cn4nc(-c5cccc(C#N)c5)ccc4=O)c3)nc2)CC1

>  <Name>  (13) 
Tepotinib

>  <Pocket>  (13) 
nan

>  <ATP_Site>  (13) 
nan

>  <Peripheral>  (13) 
nan

>  <Num_H_Atoms_ProtBoundConf>  (13) 
nan

>  <Num_Resolved_Atoms>  (13) 
nan

>  <Num_Not_Resolved_Atoms>  (13) 
nan

$$$$
nan
     RDKit          3D

  0  0  0  0  0  0  0  0  0  0999 V3000
M  V30 BEGIN CTAB
M  V30 COUNTS 62 65 0 0 0
M  V30 BEGIN ATOM
M  V30 1 C 1.966631 0.780410 8.414742 0
M  V30 2 C 1.806216 0.140232 7.080315 0
M  V30 3 C 2.758929 0.081276 6.056016 0
M  V30 4 C 2.096742 -0.616882 5.053221 0
M  V30 5 C 2.611846 -0.946211 3.804688 0
M  V30 6 C 1.755274 -1.646389 2.972831 0
M  V30 7 O 2.211608 -2.004096 1.714358 0
M  V30 8 C 2.091085 -1.194167 0.603430 0
M  V30 9 C 2.571516 -1.648852 -0.604966 0
M  V30 10 C 2.432226 -0.813579 -1.688383 0
M  V30 11 N 1.849361 0.398062 -1.566677 0
M  V30 12 C 1.394485 0.815725 -0.394585 0
M  V30 13 N 0.835926 2.111793 -0.560194 0
M  V30 14 C -0.535514 2.357560 -0.847523 0
M  V30 15 C -0.991409 3.630291 -1.180232 0
M  V30 16 C -2.332609 3.794207 -1.447933 0
M  V30 17 C -3.169416 2.700990 -1.377203 0
M  V30 18 C -2.739797 1.411160 -1.045172 0
M  V30 19 C -3.799773 0.374372 -1.029067 0
M  V30 20 S -3.927190 -0.518225 -2.557940 0
M  V30 21 O -4.297988 0.345285 -3.709338 0
M  V30 22 O -4.973817 -1.577484 -2.382026 0
M  V30 23 N -2.416454 -1.350177 -2.867166 0
M  V30 24 C -2.151082 -2.301525 -1.823813 0
M  V30 25 C -0.894325 -3.080985 -1.937276 0
M  V30 26 N -0.713711 -3.902393 -3.074912 0
M  V30 27 C -0.517052 -3.265185 -4.332260 0
M  V30 28 C 0.335849 -4.867432 -2.791327 0
M  V30 29 C -1.393359 1.298271 -0.787047 0
M  V30 30 N 1.524944 0.001868 0.683619 0
M  V30 31 C 0.463743 -2.017054 3.315909 0
M  V30 32 C -0.018464 -1.667644 4.580986 0
M  V30 33 C 0.822142 -0.960198 5.443995 0
M  V30 34 N 0.666796 -0.477547 6.708951 0
M  V30 35 H 1.101083 1.432341 8.620635 0
M  V30 36 H 2.878962 1.424515 8.400965 0
M  V30 37 H 2.108855 -0.009563 9.174869 0
M  V30 38 H 3.735398 0.494219 6.102558 0
M  V30 39 H 3.604199 -0.687079 3.479865 0
M  V30 40 H 3.026481 -2.613230 -0.655692 0
M  V30 41 H 2.835758 -1.236032 -2.617139 0
M  V30 42 H 1.483435 2.924533 -0.461615 0
M  V30 43 H -0.219105 4.409680 -1.198679 0
M  V30 44 H -2.644025 4.786121 -1.698753 0
M  V30 45 H -4.191603 2.911523 -1.599282 0
M  V30 46 H -3.611030 -0.403551 -0.245372 0
M  V30 47 H -4.767930 0.829770 -0.737789 0
M  V30 48 H -2.548000 -1.804361 -3.803144 0
M  V30 49 H -2.121691 -1.759296 -0.854177 0
M  V30 50 H -2.992384 -3.063331 -1.803865 0
M  V30 51 H 0.023017 -2.457167 -1.784665 0
M  V30 52 H -0.876640 -3.773055 -1.040287 0
M  V30 53 H -0.276790 -2.194848 -4.305769 0
M  V30 54 H -1.401493 -3.504568 -4.989257 0
M  V30 55 H 0.390420 -3.729756 -4.839510 0
M  V30 56 H -0.151549 -5.758826 -2.333170 0
M  V30 57 H 1.089206 -4.447291 -2.068426 0
M  V30 58 H 0.835702 -5.211847 -3.720150 0
M  V30 59 H -1.059090 0.324571 -0.533483 0
M  V30 60 H -0.147260 -2.564240 2.610205 0
M  V30 61 H -1.017639 -1.939737 4.883987 0
M  V30 62 H -0.210830 -0.587214 7.272830 0
M  V30 END ATOM
M  V30 BEGIN BOND
M  V30 1 1 1 2
M  V30 2 2 2 3
M  V30 3 1 3 4
M  V30 4 2 4 5
M  V30 5 1 5 6
M  V30 6 1 6 7
M  V30 7 1 7 8
M  V30 8 2 8 9
M  V30 9 1 9 10
M  V30 10 2 10 11
M  V30 11 1 11 12
M  V30 12 1 12 13
M  V30 13 1 13 14
M  V30 14 2 14 15
M  V30 15 1 15 16
M  V30 16 2 16 17
M  V30 17 1 17 18
M  V30 18 1 18 19
M  V30 19 1 19 20
M  V30 20 2 20 21
M  V30 21 2 20 22
M  V30 22 1 20 23
M  V30 23 1 23 24
M  V30 24 1 24 25
M  V30 25 1 25 26
M  V30 26 1 26 27
M  V30 27 1 26 28
M  V30 28 2 18 29
M  V30 29 2 12 30
M  V30 30 2 6 31
M  V30 31 1 31 32
M  V30 32 2 32 33
M  V30 33 1 33 34
M  V30 34 1 34 2
M  V30 35 1 33 4
M  V30 36 1 30 8
M  V30 37 1 29 14
M  V30 38 1 1 35
M  V30 39 1 1 36
M  V30 40 1 1 37
M  V30 41 1 3 38
M  V30 42 1 5 39
M  V30 43 1 9 40
M  V30 44 1 10 41
M  V30 45 1 13 42
M  V30 46 1 15 43
M  V30 47 1 16 44
M  V30 48 1 17 45
M  V30 49 1 19 46
M  V30 50 1 19 47
M  V30 51 1 23 48
M  V30 52 1 24 49
M  V30 53 1 24 50
M  V30 54 1 25 51
M  V30 55 1 25 52
M  V30 56 1 27 53
M  V30 57 1 27 54
M  V30 58 1 27 55
M  V30 59 1 28 56
M  V30 60 1 28 57
M  V30 61 1 28 58
M  V30 62 1 29 59
M  V30 63 1 31 60
M  V30 64 1 32 61
M  V30 65 1 34 62
M  V30 END BOND
M  V30 END CTAB
M  END
>  <Dataset>  (14) 
PKIs

>  <Ligand_Instance>  (14) 
nan

>  <PDB_ID>  (14) 
nan

>  <Standardized_SMILES>  (14) 
Cc1cc2cc(Oc3ccnc(Nc4cccc(CS(=O)(=O)NCCN(C)C)c4)n3)ccc2[nH]1

>  <Name>  (14) 
Surufatinib

>  <Pocket>  (14) 
nan

>  <ATP_Site>  (14) 
nan

>  <Peripheral>  (14) 
nan

>  <Num_H_Atoms_ProtBoundConf>  (14) 
nan

>  <Num_Resolved_Atoms>  (14) 
nan

>  <Num_Not_Resolved_Atoms>  (14) 
nan

$$$$
nan
     RDKit          3D

  0  0  0  0  0  0  0  0  0  0999 V3000
M  V30 BEGIN CTAB
M  V30 COUNTS 46 50 0 0 0
M  V30 BEGIN ATOM
M  V30 1 N -1.474453 -5.047814 1.225271 0
M  V30 2 C -1.200776 -3.852796 0.508182 0
M  V30 3 O -2.357915 -3.457004 0.760328 0
M  V30 4 C 0.054457 -3.566439 -0.130488 0
M  V30 5 C 1.016357 -4.528506 -0.016251 0
M  V30 6 N 2.203987 -4.322835 -0.586806 0
M  V30 7 C 2.473725 -3.201550 -1.265310 0
M  V30 8 N 3.614029 -2.859414 -1.891916 0
M  V30 9 C 3.426322 -1.646105 -2.441698 0
M  V30 10 C 2.138097 -1.270458 -2.125748 0
M  V30 11 C 1.511761 -2.232941 -1.382982 0
M  V30 12 C 0.266989 -2.391578 -0.813707 0
M  V30 13 N -0.729020 -1.400654 -0.940441 0
M  V30 14 C -0.996428 -0.118006 -1.469836 0 CFG=2
M  V30 15 C -0.248598 1.026895 -0.830795 0 CFG=2
M  V30 16 C -0.971111 1.580033 0.385902 0
M  V30 17 C -2.343383 2.035832 -0.001529 0 CFG=2
M  V30 18 C -3.107169 0.802895 -0.431263 0
M  V30 19 C -2.454840 0.233501 -1.647830 0 CFG=1
M  V30 20 C -2.493309 1.358128 -2.692186 0
M  V30 21 C -1.630386 2.506214 -2.277240 0 CFG=1
M  V30 22 O -1.578433 3.411283 -3.322397 0
M  V30 23 C -2.310023 3.113342 -1.046453 0
M  V30 24 C -0.237562 2.150298 -1.864590 0
M  V30 25 H -1.874625 -5.976474 0.916161 0
M  V30 26 H -1.347898 -5.305506 2.232532 0
M  V30 27 H 0.833484 -5.444129 0.523015 0
M  V30 28 H 4.501475 -3.443832 -1.942093 0
M  V30 29 H 4.147027 -1.058096 -3.028930 0
M  V30 30 H 1.715041 -0.347298 -2.436322 0
M  V30 31 H -1.619328 -1.669174 -0.482287 0
M  V30 32 H -0.604675 -0.133340 -2.540411 0
M  V30 33 H 0.770654 0.734410 -0.564820 0
M  V30 34 H -1.086107 0.801186 1.176746 0
M  V30 35 H -0.342805 2.408108 0.757098 0
M  V30 36 H -2.861984 2.461816 0.883032 0
M  V30 37 H -4.125375 1.120312 -0.731918 0
M  V30 38 H -3.152564 0.123234 0.425953 0
M  V30 39 H -2.995606 -0.630744 -2.040978 0
M  V30 40 H -2.304075 0.972171 -3.710493 0
M  V30 41 H -3.549424 1.712883 -2.668486 0
M  V30 42 H -0.920528 3.043928 -3.970731 0
M  V30 43 H -1.723425 3.948194 -0.622279 0
M  V30 44 H -3.360426 3.370030 -1.290994 0
M  V30 45 H 0.431039 1.906935 -2.712342 0
M  V30 46 H 0.189432 3.025113 -1.336224 0
M  V30 END ATOM
M  V30 BEGIN BOND
M  V30 1 1 1 2
M  V30 2 2 2 3
M  V30 3 1 2 4
M  V30 4 2 4 5
M  V30 5 1 5 6
M  V30 6 2 6 7
M  V30 7 1 7 8
M  V30 8 1 8 9
M  V30 9 2 9 10
M  V30 10 1 10 11
M  V30 11 2 11 12
M  V30 12 1 12 13
M  V30 13 1 13 14
M  V30 14 1 14 15
M  V30 15 1 15 16
M  V30 16 1 16 17
M  V30 17 1 17 18
M  V30 18 1 18 19
M  V30 19 1 19 20
M  V30 20 1 20 21
M  V30 21 1 21 22 CFG=3
M  V30 22 1 21 23
M  V30 23 1 21 24
M  V30 24 1 12 4
M  V30 25 1 19 14
M  V30 26 1 11 7
M  V30 27 1 24 15
M  V30 28 1 23 17
M  V30 29 1 1 25
M  V30 30 1 1 26
M  V30 31 1 5 27
M  V30 32 1 8 28
M  V30 33 1 9 29
M  V30 34 1 10 30
M  V30 35 1 13 31
M  V30 36 1 14 32 CFG=3
M  V30 37 1 15 33 CFG=1
M  V30 38 1 16 34
M  V30 39 1 16 35
M  V30 40 1 17 36 CFG=1
M  V30 41 1 18 37
M  V30 42 1 18 38
M  V30 43 1 19 39 CFG=3
M  V30 44 1 20 40
M  V30 45 1 20 41
M  V30 46 1 22 42
M  V30 47 1 23 43
M  V30 48 1 23 44
M  V30 49 1 24 45
M  V30 50 1 24 46
M  V30 END BOND
M  V30 END CTAB
M  END
>  <Dataset>  (15) 
PKIs

>  <Ligand_Instance>  (15) 
nan

>  <PDB_ID>  (15) 
nan

>  <Standardized_SMILES>  (15) 
NC(=O)c1cnc2[nH]ccc2c1N[C@@H]1[C@@H]2C[C@@H]3C[C@H]1C[C@@](O)(C3)C2

>  <Name>  (15) 
Peficitinib

>  <Pocket>  (15) 
nan

>  <ATP_Site>  (15) 
nan

>  <Peripheral>  (15) 
nan

>  <Num_H_Atoms_ProtBoundConf>  (15) 
nan

>  <Num_Resolved_Atoms>  (15) 
nan

>  <Num_Not_Resolved_Atoms>  (15) 
nan

$$$$
nan
     RDKit          3D

  0  0  0  0  0  0  0  0  0  0999 V3000
M  V30 BEGIN CTAB
M  V30 COUNTS 49 52 0 0 0
M  V30 BEGIN ATOM
M  V30 1 O 2.133112 -0.712202 2.218742 0
M  V30 2 C 1.433672 -0.134727 1.319544 0
M  V30 3 N 2.033936 1.028304 0.821007 0
M  V30 4 C 3.295534 1.520573 1.268208 0
M  V30 5 C 3.562847 2.401330 2.300173 0
M  V30 6 C 4.876639 2.743677 2.560179 0
M  V30 7 C 5.911849 2.221202 1.808738 0
M  V30 8 O 7.211651 2.600900 2.115456 0
M  V30 9 C 7.796551 3.752260 1.485653 0
M  V30 10 F 6.962474 4.816137 1.853032 0
M  V30 11 F 7.764019 3.697271 0.129360 0
M  V30 12 Cl 9.381406 4.109282 2.172086 0
M  V30 13 C 5.654526 1.336986 0.771417 0
M  V30 14 C 4.337481 1.001499 0.520095 0
M  V30 15 C 0.125068 -0.636774 0.849171 0
M  V30 16 C -0.627432 -0.011849 -0.123556 0
M  V30 17 N -1.808444 -0.578506 -0.461167 0
M  V30 18 C -2.222975 -1.727394 0.150416 0
M  V30 19 N -3.458627 -2.077206 -0.461225 0
M  V30 20 C -4.171629 -3.010670 -1.360192 0
M  V30 21 C -4.750431 -2.102060 -2.440615 0
M  V30 22 C -5.205230 -0.936547 -1.576695 0 CFG=1
M  V30 23 O -6.590009 -0.856845 -1.465611 0
M  V30 24 C -4.659761 -1.260816 -0.197335 0
M  V30 25 C -1.513513 -2.382692 1.120498 0
M  V30 26 C -2.053233 -3.550652 1.728166 0
M  V30 27 C -1.231560 -4.267581 2.606920 0
M  V30 28 C -1.859019 -5.386051 3.112735 0
M  V30 29 N -3.092197 -5.350350 2.529009 0
M  V30 30 N -3.140436 -4.293042 1.760683 0
M  V30 31 C -0.313459 -1.794195 1.452553 0
M  V30 32 H 1.565241 1.595647 0.080357 0
M  V30 33 H 2.679902 2.742346 2.814790 0
M  V30 34 H 5.001070 3.439825 3.385914 0
M  V30 35 H 6.504454 0.957332 0.214020 0
M  V30 36 H 4.246843 0.297676 -0.318901 0
M  V30 37 H -0.229104 0.905454 -0.567581 0
M  V30 38 H -4.984902 -3.514672 -0.843168 0
M  V30 39 H -3.513282 -3.723715 -1.848263 0
M  V30 40 H -5.634429 -2.570438 -2.903779 0
M  V30 41 H -3.997370 -1.742811 -3.154114 0
M  V30 42 H -4.829202 0.031916 -1.906204 0
M  V30 43 H -6.806432 0.077183 -1.199199 0
M  V30 44 H -5.337070 -1.870597 0.405586 0
M  V30 45 H -4.445253 -0.331064 0.327546 0
M  V30 46 H -0.205364 -4.096212 2.950256 0
M  V30 47 H -1.527439 -6.147863 3.801006 0
M  V30 48 H -3.964722 -4.043234 1.225486 0
M  V30 49 H 0.287150 -2.273490 2.214401 0
M  V30 END ATOM
M  V30 BEGIN BOND
M  V30 1 2 1 2
M  V30 2 1 2 3
M  V30 3 1 3 4
M  V30 4 2 4 5
M  V30 5 1 5 6
M  V30 6 2 6 7
M  V30 7 1 7 8
M  V30 8 1 8 9
M  V30 9 1 9 10
M  V30 10 1 9 11
M  V30 11 1 9 12
M  V30 12 1 7 13
M  V30 13 2 13 14
M  V30 14 1 2 15
M  V30 15 2 15 16
M  V30 16 1 16 17
M  V30 17 2 17 18
M  V30 18 1 18 19
M  V30 19 1 19 20
M  V30 20 1 20 21
M  V30 21 1 21 22
M  V30 22 1 22 23
M  V30 23 1 22 24
M  V30 24 1 18 25
M  V30 25 1 25 26
M  V30 26 2 26 27
M  V30 27 1 27 28
M  V30 28 2 28 29
M  V30 29 1 29 30
M  V30 30 2 25 31
M  V30 31 1 14 4
M  V30 32 1 31 15
M  V30 33 1 24 19
M  V30 34 1 30 26
M  V30 35 1 3 32
M  V30 36 1 5 33
M  V30 37 1 6 34
M  V30 38 1 13 35
M  V30 39 1 14 36
M  V30 40 1 16 37
M  V30 41 1 20 38
M  V30 42 1 20 39
M  V30 43 1 21 40
M  V30 44 1 21 41
M  V30 45 1 22 42 CFG=3
M  V30 46 1 23 43
M  V30 47 1 24 44
M  V30 48 1 24 45
M  V30 49 1 27 46
M  V30 50 1 28 47
M  V30 51 1 30 48
M  V30 52 1 31 49
M  V30 END BOND
M  V30 END CTAB
M  END
>  <Dataset>  (16) 
PKIs

>  <Ligand_Instance>  (16) 
nan

>  <PDB_ID>  (16) 
nan

>  <Standardized_SMILES>  (16) 
O=C(Nc1ccc(OC(F)(F)Cl)cc1)c1cnc(N2CC[C@@H](O)C2)c(-c2ccn[nH]2)c1

>  <Name>  (16) 
Asciminib

>  <Pocket>  (16) 
nan

>  <ATP_Site>  (16) 
nan

>  <Peripheral>  (16) 
nan

>  <Num_H_Atoms_ProtBoundConf>  (16) 
nan

>  <Num_Resolved_Atoms>  (16) 
nan

>  <Num_Not_Resolved_Atoms>  (16) 
nan

$$$$
nan
     RDKit          3D

  0  0  0  0  0  0  0  0  0  0999 V3000
M  V30 BEGIN CTAB
M  V30 COUNTS 69 72 0 0 0
M  V30 BEGIN ATOM
M  V30 1 C 4.513155 -2.101170 6.013813 0
M  V30 2 C 3.802157 -2.322389 4.723731 0
M  V30 3 N 3.741195 -1.175581 3.851962 0
M  V30 4 C 2.899988 -0.135035 4.397834 0
M  V30 5 C 3.301455 1.228924 3.872136 0
M  V30 6 N 3.883885 1.124358 2.545984 0
M  V30 7 C 3.314664 1.555208 1.304433 0
M  V30 8 C 4.038980 1.607735 0.132788 0
M  V30 9 C 3.421432 2.025022 -1.025903 0
M  V30 10 C 2.098934 2.405289 -1.108294 0
M  V30 11 N 1.476636 2.843374 -2.310765 0
M  V30 12 C 0.076301 3.090866 -2.338196 0
M  V30 13 C -0.653948 1.999131 -2.769958 0
M  V30 14 C -2.044990 2.065545 -2.854117 0
M  V30 15 N -2.772891 0.912356 -3.317359 0
M  V30 16 C -2.975869 0.939724 -4.751867 0
M  V30 17 C -3.312704 -0.224212 -2.626663 0
M  V30 18 O -3.932329 -1.151229 -3.226285 0
M  V30 19 N -3.229422 -0.458853 -1.225886 0
M  V30 20 C -3.901067 -1.713411 -0.989766 0
M  V30 21 C -2.980363 -2.752294 -1.104119 0
M  V30 22 Cl -1.267415 -2.589262 -1.476118 0
M  V30 23 C -3.390087 -4.070598 -0.919665 0
M  V30 24 O -2.535918 -5.154301 -1.018871 0
M  V30 25 C -2.926074 -6.494108 -0.835008 0
M  V30 26 C -4.709821 -4.357183 -0.622590 0
M  V30 27 C -5.585585 -3.299107 -0.519088 0
M  V30 28 O -6.938189 -3.473263 -0.224374 0
M  V30 29 C -7.482263 -4.751121 -0.012496 0
M  V30 30 C -5.217399 -1.989275 -0.694284 0
M  V30 31 Cl -6.207913 -0.569265 -0.594251 0
M  V30 32 N -2.651692 3.232275 -2.499041 0
M  V30 33 C -1.924737 4.278639 -2.083544 0
M  V30 34 N -0.584903 4.210623 -2.004138 0
M  V30 35 C 1.392686 2.344872 0.077703 0
M  V30 36 C 1.986003 1.930425 1.253051 0
M  V30 37 C 5.154503 0.491336 2.682882 0
M  V30 38 C 5.066542 -0.715068 3.539497 0
M  V30 39 H 3.909330 -2.540014 6.833179 0
M  V30 40 H 4.681361 -1.037798 6.278079 0
M  V30 41 H 5.480649 -2.682739 6.050761 0
M  V30 42 H 2.764689 -2.633744 4.914504 0
M  V30 43 H 4.284087 -3.200262 4.217868 0
M  V30 44 H 3.044700 -0.121716 5.494595 0
M  V30 45 H 1.851064 -0.390752 4.199972 0
M  V30 46 H 3.970301 1.773710 4.567642 0
M  V30 47 H 2.379673 1.829037 3.779002 0
M  V30 48 H 5.070230 1.335988 0.089141 0
M  V30 49 H 4.005308 2.060633 -1.939666 0
M  V30 50 H 2.086906 2.970914 -3.159503 0
M  V30 51 H -0.212597 1.051536 -3.061793 0
M  V30 52 H -3.843916 0.321909 -5.056557 0
M  V30 53 H -2.045397 0.486811 -5.190307 0
M  V30 54 H -3.012357 1.962014 -5.176251 0
M  V30 55 H -2.740111 0.251652 -0.646821 0
M  V30 56 H -2.058808 -7.122002 -1.156179 0
M  V30 57 H -3.833941 -6.729132 -1.410892 0
M  V30 58 H -3.099963 -6.666862 0.241097 0
M  V30 59 H -5.097145 -5.356953 -0.466223 0
M  V30 60 H -8.585612 -4.672694 -0.125537 0
M  V30 61 H -7.182637 -5.172004 0.975078 0
M  V30 62 H -7.145723 -5.500137 -0.765008 0
M  V30 63 H -2.404753 5.212463 -1.799699 0
M  V30 64 H 0.350874 2.647288 0.004931 0
M  V30 65 H 1.313179 1.936556 2.080389 0
M  V30 66 H 5.824927 1.248038 3.188688 0
M  V30 67 H 5.657378 0.300471 1.704899 0
M  V30 68 H 5.707601 -0.590963 4.430512 0
M  V30 69 H 5.546602 -1.566000 2.965255 0
M  V30 END ATOM
M  V30 BEGIN BOND
M  V30 1 1 1 2
M  V30 2 1 2 3
M  V30 3 1 3 4
M  V30 4 1 4 5
M  V30 5 1 5 6
M  V30 6 1 6 7
M  V30 7 2 7 8
M  V30 8 1 8 9
M  V30 9 2 9 10
M  V30 10 1 10 11
M  V30 11 1 11 12
M  V30 12 2 12 13
M  V30 13 1 13 14
M  V30 14 1 14 15
M  V30 15 1 15 16
M  V30 16 1 15 17
M  V30 17 2 17 18
M  V30 18 1 17 19
M  V30 19 1 19 20
M  V30 20 2 20 21
M  V30 21 1 21 22
M  V30 22 1 21 23
M  V30 23 1 23 24
M  V30 24 1 24 25
M  V30 25 2 23 26
M  V30 26 1 26 27
M  V30 27 1 27 28
M  V30 28 1 28 29
M  V30 29 2 27 30
M  V30 30 1 30 31
M  V30 31 2 14 32
M  V30 32 1 32 33
M  V30 33 2 33 34
M  V30 34 1 10 35
M  V30 35 2 35 36
M  V30 36 1 6 37
M  V30 37 1 37 38
M  V30 38 1 38 3
M  V30 39 1 36 7
M  V30 40 1 34 12
M  V30 41 1 30 20
M  V30 42 1 1 39
M  V30 43 1 1 40
M  V30 44 1 1 41
M  V30 45 1 2 42
M  V30 46 1 2 43
M  V30 47 1 4 44
M  V30 48 1 4 45
M  V30 49 1 5 46
M  V30 50 1 5 47
M  V30 51 1 8 48
M  V30 52 1 9 49
M  V30 53 1 11 50
M  V30 54 1 13 51
M  V30 55 1 16 52
M  V30 56 1 16 53
M  V30 57 1 16 54
M  V30 58 1 19 55
M  V30 59 1 25 56
M  V30 60 1 25 57
M  V30 61 1 25 58
M  V30 62 1 26 59
M  V30 63 1 29 60
M  V30 64 1 29 61
M  V30 65 1 29 62
M  V30 66 1 33 63
M  V30 67 1 35 64
M  V30 68 1 36 65
M  V30 69 1 37 66
M  V30 70 1 37 67
M  V30 71 1 38 68
M  V30 72 1 38 69
M  V30 END BOND
M  V30 END CTAB
M  END
>  <Dataset>  (17) 
PKIs

>  <Ligand_Instance>  (17) 
nan

>  <PDB_ID>  (17) 
nan

>  <Standardized_SMILES>  (17) 
CCN1CCN(c2ccc(Nc3cc(N(C)C(=O)Nc4c(Cl)c(OC)cc(OC)c4Cl)ncn3)cc2)CC1

>  <Name>  (17) 
Infigratinib

>  <Pocket>  (17) 
nan

>  <ATP_Site>  (17) 
nan

>  <Peripheral>  (17) 
nan

>  <Num_H_Atoms_ProtBoundConf>  (17) 
nan

>  <Num_Resolved_Atoms>  (17) 
nan

>  <Num_Not_Resolved_Atoms>  (17) 
nan

$$$$
nan
     RDKit          3D

  0  0  0  0  0  0  0  0  0  0999 V3000
M  V30 BEGIN CTAB
M  V30 COUNTS 41 45 0 0 0
M  V30 BEGIN ATOM
M  V30 1 C 2.201132 -2.388733 0.243352 0
M  V30 2 C 1.522612 -1.084901 -0.011387 0 CFG=1
M  V30 3 C 2.163727 -0.367187 -1.170465 0
M  V30 4 C 2.674807 -1.226113 -2.144680 0
M  V30 5 C 3.300713 -0.725431 -3.283293 0
M  V30 6 C 3.378204 0.657391 -3.377910 0
M  V30 7 N 3.915778 1.433417 -4.343691 0
M  V30 8 C 3.759602 2.731992 -4.009631 0
M  V30 9 C 3.093712 2.745044 -2.779129 0
M  V30 10 N 2.876428 1.465383 -2.422669 0
M  V30 11 C 2.263927 1.006315 -1.307359 0
M  V30 12 N 0.124519 -1.257755 -0.356753 0
M  V30 13 N -0.334162 -1.437372 -1.584066 0
M  V30 14 N -1.654422 -1.565119 -1.588560 0
M  V30 15 C -2.051432 -1.461898 -0.306167 0
M  V30 16 N -3.256443 -1.512794 0.285215 0
M  V30 17 C -3.376277 -1.375117 1.637757 0
M  V30 18 C -2.261831 -1.180589 2.427324 0
M  V30 19 C -2.425603 -1.037237 3.869725 0
M  V30 20 C -3.609292 -1.073261 4.577254 0
M  V30 21 N -3.295832 -0.899475 5.878701 0
M  V30 22 N -1.979334 -0.755488 6.033786 0
M  V30 23 C -1.272793 -0.548901 7.289188 0
M  V30 24 C -1.424845 -0.838279 4.798928 0
M  V30 25 N -1.041569 -1.129039 1.828555 0
M  V30 26 C -0.924463 -1.266099 0.483991 0
M  V30 27 H 1.680110 -3.168905 -0.335486 0
M  V30 28 H 3.293819 -2.337313 -0.013806 0
M  V30 29 H 2.134865 -2.617064 1.333565 0
M  V30 30 H 1.612219 -0.368063 0.834947 0
M  V30 31 H 2.630288 -2.302299 -2.100199 0
M  V30 32 H 3.710088 -1.359570 -4.061761 0
M  V30 33 H 4.090723 3.602427 -4.590741 0
M  V30 34 H 2.801164 3.632988 -2.207557 0
M  V30 35 H 1.850446 1.592911 -0.522989 0
M  V30 36 H -4.375541 -1.422213 2.083831 0
M  V30 37 H -4.578501 -1.217197 4.119270 0
M  V30 38 H -1.927178 -0.825108 8.132529 0
M  V30 39 H -0.284740 -1.016877 7.282017 0
M  V30 40 H -1.084031 0.561090 7.344939 0
M  V30 41 H -0.367760 -0.759612 4.588507 0
M  V30 END ATOM
M  V30 BEGIN BOND
M  V30 1 1 1 2
M  V30 2 1 2 3
M  V30 3 1 3 4
M  V30 4 2 4 5
M  V30 5 1 5 6
M  V30 6 2 6 7
M  V30 7 1 7 8
M  V30 8 2 8 9
M  V30 9 1 9 10
M  V30 10 1 10 11
M  V30 11 1 2 12
M  V30 12 1 12 13
M  V30 13 2 13 14
M  V30 14 1 14 15
M  V30 15 2 15 16
M  V30 16 1 16 17
M  V30 17 2 17 18
M  V30 18 1 18 19
M  V30 19 1 19 20
M  V30 20 2 20 21
M  V30 21 1 21 22
M  V30 22 1 22 23
M  V30 23 1 22 24
M  V30 24 1 18 25
M  V30 25 2 25 26
M  V30 26 2 11 3
M  V30 27 1 26 12
M  V30 28 1 10 6
M  V30 29 1 26 15
M  V30 30 2 24 19
M  V30 31 1 1 27
M  V30 32 1 1 28
M  V30 33 1 1 29
M  V30 34 1 2 30 CFG=1
M  V30 35 1 4 31
M  V30 36 1 5 32
M  V30 37 1 8 33
M  V30 38 1 9 34
M  V30 39 1 11 35
M  V30 40 1 17 36
M  V30 41 1 20 37
M  V30 42 1 23 38
M  V30 43 1 23 39
M  V30 44 1 23 40
M  V30 45 1 24 41
M  V30 END BOND
M  V30 END CTAB
M  END
>  <Dataset>  (18) 
PKIs

>  <Ligand_Instance>  (18) 
nan

>  <PDB_ID>  (18) 
nan

>  <Standardized_SMILES>  (18) 
C[C@@H](c1ccc2nccn2c1)n1nnc2ncc(-c3cnn(C)c3)nc21

>  <Name>  (18) 
Savolitinib

>  <Pocket>  (18) 
nan

>  <ATP_Site>  (18) 
nan

>  <Peripheral>  (18) 
nan

>  <Num_H_Atoms_ProtBoundConf>  (18) 
nan

>  <Num_Resolved_Atoms>  (18) 
nan

>  <Num_Not_Resolved_Atoms>  (18) 
nan

$$$$
nan
     RDKit          3D

  0  0  0  0  0  0  0  0  0  0999 V3000
M  V30 BEGIN CTAB
M  V30 COUNTS 63 68 0 0 0
M  V30 BEGIN ATOM
M  V30 1 C 5.527329 2.686283 4.047084 0
M  V30 2 N 5.512243 1.479016 4.818511 0
M  V30 3 C 6.119601 0.363999 4.162453 0
M  V30 4 C 5.472903 0.033530 2.815301 0
M  V30 5 N 4.049546 0.123970 2.988847 0
M  V30 6 C 3.210780 0.271148 1.850896 0
M  V30 7 C 3.804056 0.264007 0.607810 0
M  V30 8 C 3.036105 0.406614 -0.530130 0
M  V30 9 C 1.655580 0.560612 -0.468896 0
M  V30 10 N 0.825614 0.714748 -1.635648 0
M  V30 11 C -0.593545 0.865906 -1.454700 0
M  V30 12 N -1.028555 2.149735 -1.285741 0
M  V30 13 C -2.350867 2.377005 -1.109850 0
M  V30 14 C -3.241564 1.299017 -1.104551 0
M  V30 15 C -4.627466 1.238145 -0.947484 0
M  V30 16 C -4.935332 -0.103898 -1.034726 0
M  V30 17 N -3.837834 -0.859304 -1.233407 0
M  V30 18 C -2.776107 -0.008689 -1.279384 0
M  V30 19 N -1.448685 -0.179720 -1.450633 0
M  V30 20 C -3.868291 -2.306287 -1.371211 0
M  V30 21 C -4.040455 -2.611139 -2.862572 0
M  V30 22 C -4.365973 -4.065027 -2.986565 0
M  V30 23 C -3.205985 -4.863982 -2.489800 0
M  V30 24 C -2.601872 -4.402319 -1.212052 0
M  V30 25 C -2.561668 -2.930726 -0.993954 0
M  V30 26 C -5.024271 -2.814641 -0.573426 0
M  V30 27 N -6.243011 -2.189349 -1.057354 0
M  V30 28 C -6.263910 -0.749859 -0.930368 0
M  V30 29 O -7.351823 -0.111749 -0.744374 0
M  V30 30 N 1.084203 0.565197 0.773660 0
M  V30 31 C 1.842401 0.425304 1.879190 0
M  V30 32 C 3.648854 0.045491 4.377401 0
M  V30 33 C 4.144092 1.207964 5.210409 0
M  V30 34 H 5.218667 3.514893 4.741558 0
M  V30 35 H 6.480621 2.862315 3.538105 0
M  V30 36 H 4.716547 2.660151 3.266049 0
M  V30 37 H 6.012347 -0.528247 4.807565 0
M  V30 38 H 7.200745 0.578615 4.029300 0
M  V30 39 H 5.720001 -1.031076 2.617308 0
M  V30 40 H 5.870871 0.718024 2.032704 0
M  V30 41 H 4.837557 0.156066 0.385443 0
M  V30 42 H 3.422312 0.411571 -1.535433 0
M  V30 43 H 1.326854 0.704889 -2.549763 0
M  V30 44 H -2.797962 3.364031 -0.966724 0
M  V30 45 H -5.314891 2.067715 -0.790498 0
M  V30 46 H -4.765833 -1.923553 -3.333582 0
M  V30 47 H -3.068269 -2.433150 -3.348814 0
M  V30 48 H -4.527106 -4.323014 -4.056519 0
M  V30 49 H -5.328190 -4.331714 -2.493105 0
M  V30 50 H -2.464210 -4.942961 -3.331686 0
M  V30 51 H -3.541808 -5.927958 -2.337723 0
M  V30 52 H -3.071708 -4.919153 -0.354391 0
M  V30 53 H -1.524485 -4.742707 -1.227940 0
M  V30 54 H -2.219855 -2.738590 0.025962 0
M  V30 55 H -1.802052 -2.527523 -1.721084 0
M  V30 56 H -4.824361 -2.510865 0.494928 0
M  V30 57 H -5.091595 -3.921052 -0.519276 0
M  V30 58 H -7.108055 -2.639996 -1.484830 0
M  V30 59 H 1.344171 0.435790 2.835764 0
M  V30 60 H 2.542275 0.102196 4.427862 0
M  V30 61 H 4.022536 -0.937246 4.749484 0
M  V30 62 H 4.042918 0.912257 6.278124 0
M  V30 63 H 3.470402 2.076722 5.066770 0
M  V30 END ATOM
M  V30 BEGIN BOND
M  V30 1 1 1 2
M  V30 2 1 2 3
M  V30 3 1 3 4
M  V30 4 1 4 5
M  V30 5 1 5 6
M  V30 6 2 6 7
M  V30 7 1 7 8
M  V30 8 2 8 9
M  V30 9 1 9 10
M  V30 10 1 10 11
M  V30 11 2 11 12
M  V30 12 1 12 13
M  V30 13 2 13 14
M  V30 14 1 14 15
M  V30 15 2 15 16
M  V30 16 1 16 17
M  V30 17 1 17 18
M  V30 18 2 18 19
M  V30 19 1 17 20
M  V30 20 1 20 21
M  V30 21 1 21 22
M  V30 22 1 22 23
M  V30 23 1 23 24
M  V30 24 1 24 25
M  V30 25 1 20 26
M  V30 26 1 26 27
M  V30 27 1 27 28
M  V30 28 2 28 29
M  V30 29 1 9 30
M  V30 30 2 30 31
M  V30 31 1 5 32
M  V30 32 1 32 33
M  V30 33 1 33 2
M  V30 34 1 31 6
M  V30 35 1 19 11
M  V30 36 1 25 20
M  V30 37 1 18 14
M  V30 38 1 28 16
M  V30 39 1 1 34
M  V30 40 1 1 35
M  V30 41 1 1 36
M  V30 42 1 3 37
M  V30 43 1 3 38
M  V30 44 1 4 39
M  V30 45 1 4 40
M  V30 46 1 7 41
M  V30 47 1 8 42
M  V30 48 1 10 43
M  V30 49 1 13 44
M  V30 50 1 15 45
M  V30 51 1 21 46
M  V30 52 1 21 47
M  V30 53 1 22 48
M  V30 54 1 22 49
M  V30 55 1 23 50
M  V30 56 1 23 51
M  V30 57 1 24 52
M  V30 58 1 24 53
M  V30 59 1 25 54
M  V30 60 1 25 55
M  V30 61 1 26 56
M  V30 62 1 26 57
M  V30 63 1 27 58
M  V30 64 1 31 59
M  V30 65 1 32 60
M  V30 66 1 32 61
M  V30 67 1 33 62
M  V30 68 1 33 63
M  V30 END BOND
M  V30 END CTAB
M  END
>  <Dataset>  (19) 
PKIs

>  <Ligand_Instance>  (19) 
nan

>  <PDB_ID>  (19) 
nan

>  <Standardized_SMILES>  (19) 
CN1CCN(c2ccc(Nc3ncc4cc5n(c4n3)C3(CCCCC3)CNC5=O)nc2)CC1

>  <Name>  (19) 
Trilaciclib

>  <Pocket>  (19) 
nan

>  <ATP_Site>  (19) 
nan

>  <Peripheral>  (19) 
nan

>  <Num_H_Atoms_ProtBoundConf>  (19) 
nan

>  <Num_Resolved_Atoms>  (19) 
nan

>  <Num_Not_Resolved_Atoms>  (19) 
nan

$$$$
nan
     RDKit          3D

  0  0  0  0  0  0  0  0  0  0999 V3000
M  V30 BEGIN CTAB
M  V30 COUNTS 51 54 0 0 0
M  V30 BEGIN ATOM
M  V30 1 C 2.745067 -5.722151 4.242141 0
M  V30 2 O 2.149012 -4.991534 3.179244 0
M  V30 3 C 2.639399 -3.774522 2.757343 0
M  V30 4 C 3.745250 -3.181074 3.339658 0
M  V30 5 C 4.227578 -1.962882 2.909824 0
M  V30 6 N 5.299443 -1.341806 3.432650 0
M  V30 7 C 5.711915 -0.147461 2.947712 0
M  V30 8 C 5.025230 0.457582 1.893064 0
M  V30 9 C 3.910401 -0.175243 1.340423 0
M  V30 10 O 3.366948 0.567811 0.316976 0
M  V30 11 C 2.091188 1.104309 0.287059 0
M  V30 12 C 1.911896 1.731965 -0.954028 0
M  V30 13 C 0.707924 2.370622 -1.275909 0
M  V30 14 C -0.315015 2.381816 -0.358712 0
M  V30 15 N -1.597382 2.980281 -0.518254 0
M  V30 16 C -2.528800 2.082800 -1.075716 0
M  V30 17 O -2.174036 0.908845 -1.365792 0
M  V30 18 N -3.886114 2.414921 -1.344518 0
M  V30 19 C -4.836971 1.519688 -1.906539 0
M  V30 20 C -5.600003 0.725940 -1.075027 0
M  V30 21 C -6.447021 -0.056275 -1.833145 0
M  V30 22 C -7.480365 -1.082976 -1.526645 0
M  V30 23 O -6.178698 0.278586 -3.073596 0
M  V30 24 N -5.259640 1.180333 -3.151851 0
M  V30 25 C -0.137415 1.764120 0.861619 0
M  V30 26 Cl -1.362883 1.703332 2.126600 0
M  V30 27 C 1.042722 1.133251 1.188015 0
M  V30 28 C 3.536112 -1.382797 1.868111 0
M  V30 29 C 2.431552 -1.936188 1.257763 0
M  V30 30 C 1.962881 -3.159670 1.703832 0
M  V30 31 O 0.855365 -3.769463 1.131447 0
M  V30 32 C 0.229729 -3.076530 0.068575 0
M  V30 33 H 2.935844 -5.029033 5.104559 0
M  V30 34 H 3.656665 -6.228828 3.907726 0
M  V30 35 H 2.024569 -6.482705 4.625434 0
M  V30 36 H 4.251880 -3.674431 4.151890 0
M  V30 37 H 6.575789 0.223865 3.461386 0
M  V30 38 H 5.513734 1.403705 1.655010 0
M  V30 39 H 2.611757 1.816630 -1.788415 0
M  V30 40 H 0.494847 2.867562 -2.193015 0
M  V30 41 H -1.933033 3.955605 -0.288623 0
M  V30 42 H -4.162429 3.403613 -1.093982 0
M  V30 43 H -5.624526 0.637603 0.020119 0
M  V30 44 H -7.299584 -1.530990 -0.507702 0
M  V30 45 H -8.500784 -0.637856 -1.441176 0
M  V30 46 H -7.430521 -1.943063 -2.220738 0
M  V30 47 H 1.331861 0.612426 2.089451 0
M  V30 48 H 1.908756 -1.484919 0.450477 0
M  V30 49 H -0.724920 -3.556379 -0.244724 0
M  V30 50 H 0.899630 -2.959273 -0.810099 0
M  V30 51 H -0.067101 -2.065870 0.454759 0
M  V30 END ATOM
M  V30 BEGIN BOND
M  V30 1 1 1 2
M  V30 2 1 2 3
M  V30 3 2 3 4
M  V30 4 1 4 5
M  V30 5 2 5 6
M  V30 6 1 6 7
M  V30 7 2 7 8
M  V30 8 1 8 9
M  V30 9 1 9 10
M  V30 10 1 10 11
M  V30 11 2 11 12
M  V30 12 1 12 13
M  V30 13 2 13 14
M  V30 14 1 14 15
M  V30 15 1 15 16
M  V30 16 2 16 17
M  V30 17 1 16 18
M  V30 18 1 18 19
M  V30 19 1 19 20
M  V30 20 2 20 21
M  V30 21 1 21 22
M  V30 22 1 21 23
M  V30 23 1 23 24
M  V30 24 1 14 25
M  V30 25 1 25 26
M  V30 26 2 25 27
M  V30 27 2 9 28
M  V30 28 1 28 29
M  V30 29 2 29 30
M  V30 30 1 30 31
M  V30 31 1 31 32
M  V30 32 1 30 3
M  V30 33 1 28 5
M  V30 34 1 27 11
M  V30 35 2 24 19
M  V30 36 1 1 33
M  V30 37 1 1 34
M  V30 38 1 1 35
M  V30 39 1 4 36
M  V30 40 1 7 37
M  V30 41 1 8 38
M  V30 42 1 12 39
M  V30 43 1 13 40
M  V30 44 1 15 41
M  V30 45 1 18 42
M  V30 46 1 20 43
M  V30 47 1 22 44
M  V30 48 1 22 45
M  V30 49 1 22 46
M  V30 50 1 27 47
M  V30 51 1 29 48
M  V30 52 1 32 49
M  V30 53 1 32 50
M  V30 54 1 32 51
M  V30 END BOND
M  V30 END CTAB
M  END
>  <Dataset>  (20) 
PKIs

>  <Ligand_Instance>  (20) 
nan

>  <PDB_ID>  (20) 
nan

>  <Standardized_SMILES>  (20) 
COc1cc2nccc(Oc3ccc(NC(=O)Nc4cc(C)on4)c(Cl)c3)c2cc1OC

>  <Name>  (20) 
Tivozanib

>  <Pocket>  (20) 
nan

>  <ATP_Site>  (20) 
nan

>  <Peripheral>  (20) 
nan

>  <Num_H_Atoms_ProtBoundConf>  (20) 
nan

>  <Num_Resolved_Atoms>  (20) 
nan

>  <Num_Not_Resolved_Atoms>  (20) 
nan

$$$$
nan
     RDKit          3D

  0  0  0  0  0  0  0  0  0  0999 V3000
M  V30 BEGIN CTAB
M  V30 COUNTS 75 79 0 0 0
M  V30 BEGIN ATOM
M  V30 1 C 1.464518 3.558812 -3.123855 0
M  V30 2 C 0.498353 2.643917 -3.206177 0
M  V30 3 C -0.500461 1.984767 -2.371848 0
M  V30 4 O -1.226290 1.142473 -2.925426 0
M  V30 5 N -0.687068 2.243446 -0.995748 0
M  V30 6 C -1.603194 1.686732 -0.077096 0
M  V30 7 C -2.556584 0.743574 -0.324070 0
M  V30 8 C -3.455754 0.217087 0.574130 0
M  V30 9 N -4.442230 -0.768343 0.203772 0
M  V30 10 C -4.302527 -1.400477 -1.094383 0
M  V30 11 N -5.220415 -1.686252 -2.017642 0
M  V30 12 C -4.839012 -2.309860 -3.141940 0
M  V30 13 C -3.542218 -2.688109 -3.424579 0
M  V30 14 C -2.599133 -2.386555 -2.458194 0
M  V30 15 N -1.165845 -2.621309 -2.406622 0
M  V30 16 C -0.167610 -2.075579 -3.080626 0
M  V30 17 C 0.989621 -2.665826 -2.600766 0
M  V30 18 C 2.369740 -2.351725 -3.035345 0
M  V30 19 N 3.082660 -1.496781 -2.166538 0
M  V30 20 C 3.285294 -1.897630 -0.824739 0
M  V30 21 C 4.047499 -0.622029 -2.735916 0
M  V30 22 C 0.631338 -3.569860 -1.631974 0
M  V30 23 C 1.373652 -4.464167 -0.793461 0
M  V30 24 C 2.367200 -5.356213 -1.135027 0
M  V30 25 C 3.004976 -6.156288 -0.200792 0
M  V30 26 C 2.670768 -6.100185 1.150758 0
M  V30 27 C 1.676772 -5.220544 1.560164 0
M  V30 28 C 1.073945 -4.444860 0.574780 0
M  V30 29 N -0.716151 -3.502170 -1.549945 0
M  V30 30 N -3.032580 -1.768335 -1.364856 0
M  V30 31 C -3.389183 0.700563 1.886568 0
M  V30 32 O -4.309408 0.146645 2.753659 0
M  V30 33 C -4.453990 0.451967 4.118146 0
M  V30 34 C -2.420665 1.669929 2.174246 0
M  V30 35 C -1.554401 2.144564 1.217276 0
M  V30 36 N -0.645269 3.101870 1.773545 0
M  V30 37 C 0.790792 2.780774 1.838236 0
M  V30 38 C 1.515470 4.096853 1.657361 0
M  V30 39 O 1.085316 4.932032 2.703609 0
M  V30 40 C -0.196095 5.418610 2.439832 0
M  V30 41 C -1.222565 4.326836 2.240273 0
M  V30 42 H 2.187884 4.029051 -3.750744 0
M  V30 43 H 1.862861 4.181340 -2.308941 0
M  V30 44 H 0.570618 2.386894 -4.265399 0
M  V30 45 H -0.012665 2.971689 -0.685360 0
M  V30 46 H -2.588649 0.410759 -1.346755 0
M  V30 47 H -5.203167 -0.970866 0.886227 0
M  V30 48 H -5.553892 -2.557385 -3.908980 0
M  V30 49 H -3.117050 -3.179883 -4.269536 0
M  V30 50 H -0.294430 -1.313524 -3.850267 0
M  V30 51 H 2.947309 -3.279707 -3.214801 0
M  V30 52 H 2.353377 -1.844787 -4.044958 0
M  V30 53 H 4.049481 -1.177503 -0.392484 0
M  V30 54 H 2.375635 -1.829829 -0.185223 0
M  V30 55 H 3.800077 -2.876347 -0.770770 0
M  V30 56 H 4.023997 -0.540678 -3.817631 0
M  V30 57 H 5.080945 -0.978726 -2.435394 0
M  V30 58 H 3.987612 0.425688 -2.327763 0
M  V30 59 H 2.614810 -5.393362 -2.195047 0
M  V30 60 H 3.777123 -6.846058 -0.505429 0
M  V30 61 H 3.112946 -6.680664 1.924999 0
M  V30 62 H 1.377644 -5.138651 2.590315 0
M  V30 63 H 0.294509 -3.761908 0.945921 0
M  V30 64 H -3.573852 0.959159 4.518204 0
M  V30 65 H -5.345723 1.085766 4.317501 0
M  V30 66 H -4.585504 -0.540384 4.634089 0
M  V30 67 H -2.434982 1.989108 3.205654 0
M  V30 68 H 1.087010 1.990664 1.147522 0
M  V30 69 H 0.975470 2.462276 2.906060 0
M  V30 70 H 2.616281 3.992287 1.718172 0
M  V30 71 H 1.208165 4.512599 0.679045 0
M  V30 72 H -0.501734 6.025958 3.319253 0
M  V30 73 H -0.126790 6.115277 1.580198 0
M  V30 74 H -1.723163 4.125906 3.217838 0
M  V30 75 H -1.992371 4.700654 1.532222 0
M  V30 END ATOM
M  V30 BEGIN BOND
M  V30 1 2 1 2
M  V30 2 1 2 3
M  V30 3 2 3 4
M  V30 4 1 3 5
M  V30 5 1 5 6
M  V30 6 2 6 7
M  V30 7 1 7 8
M  V30 8 1 8 9
M  V30 9 1 9 10
M  V30 10 2 10 11
M  V30 11 1 11 12
M  V30 12 2 12 13
M  V30 13 1 13 14
M  V30 14 1 14 15
M  V30 15 1 15 16
M  V30 16 2 16 17
M  V30 17 1 17 18
M  V30 18 1 18 19
M  V30 19 1 19 20
M  V30 20 1 19 21
M  V30 21 1 17 22
M  V30 22 1 22 23
M  V30 23 2 23 24
M  V30 24 1 24 25
M  V30 25 2 25 26
M  V30 26 1 26 27
M  V30 27 2 27 28
M  V30 28 2 22 29
M  V30 29 2 14 30
M  V30 30 2 8 31
M  V30 31 1 31 32
M  V30 32 1 32 33
M  V30 33 1 31 34
M  V30 34 2 34 35
M  V30 35 1 35 36
M  V30 36 1 36 37
M  V30 37 1 37 38
M  V30 38 1 38 39
M  V30 39 1 39 40
M  V30 40 1 40 41
M  V30 41 1 35 6
M  V30 42 1 41 36
M  V30 43 1 30 10
M  V30 44 1 29 15
M  V30 45 1 28 23
M  V30 46 1 1 42
M  V30 47 1 1 43
M  V30 48 1 2 44
M  V30 49 1 5 45
M  V30 50 1 7 46
M  V30 51 1 9 47
M  V30 52 1 12 48
M  V30 53 1 13 49
M  V30 54 1 16 50
M  V30 55 1 18 51
M  V30 56 1 18 52
M  V30 57 1 20 53
M  V30 58 1 20 54
M  V30 59 1 20 55
M  V30 60 1 21 56
M  V30 61 1 21 57
M  V30 62 1 21 58
M  V30 63 1 24 59
M  V30 64 1 25 60
M  V30 65 1 26 61
M  V30 66 1 27 62
M  V30 67 1 28 63
M  V30 68 1 33 64
M  V30 69 1 33 65
M  V30 70 1 33 66
M  V30 71 1 34 67
M  V30 72 1 37 68
M  V30 73 1 37 69
M  V30 74 1 38 70
M  V30 75 1 38 71
M  V30 76 1 40 72
M  V30 77 1 40 73
M  V30 78 1 41 74
M  V30 79 1 41 75
M  V30 END BOND
M  V30 END CTAB
M  END
>  <Dataset>  (21) 
PKIs

>  <Ligand_Instance>  (21) 
nan

>  <PDB_ID>  (21) 
nan

>  <Standardized_SMILES>  (21) 
C=CC(=O)Nc1cc(Nc2nccc(-n3cc(CN(C)C)c(-c4ccccc4)n3)n2)c(OC)cc1N1CCOCC1

>  <Name>  (21) 
Lazertinib

>  <Pocket>  (21) 
nan

>  <ATP_Site>  (21) 
nan

>  <Peripheral>  (21) 
nan

>  <Num_H_Atoms_ProtBoundConf>  (21) 
nan

>  <Num_Resolved_Atoms>  (21) 
nan

>  <Num_Not_Resolved_Atoms>  (21) 
nan

$$$$
nan
     RDKit          3D

  0  0  0  0  0  0  0  0  0  0999 V3000
M  V30 BEGIN CTAB
M  V30 COUNTS 48 50 0 0 0
M  V30 BEGIN ATOM
M  V30 1 H 7.283855 -0.176717 -1.666871 0 MASS=2
M  V30 2 C 6.694064 -0.705961 -2.428491 0
M  V30 3 H 6.489329 -1.755377 -2.119243 0 MASS=2
M  V30 4 H 7.303164 -0.747097 -3.360871 0 MASS=2
M  V30 5 N 5.413293 -0.024421 -2.662458 0
M  V30 6 C 4.782733 0.783803 -1.658229 0
M  V30 7 O 5.408463 0.862007 -0.570157 0
M  V30 8 C 3.518376 1.410830 -1.997619 0
M  V30 9 C 2.932360 2.190930 -0.995797 0
M  V30 10 C 1.719130 2.802848 -1.297226 0
M  V30 11 O 0.981324 3.622345 -0.421113 0
M  V30 12 C 0.044363 2.945807 0.382952 0
M  V30 13 C 0.530222 2.508809 1.596201 0
M  V30 14 C -0.325390 1.834744 2.446872 0
M  V30 15 C -1.626447 1.644947 2.012185 0
M  V30 16 N -2.470663 0.936011 2.942228 0
M  V30 17 C -2.464440 -0.467190 2.773447 0
M  V30 18 O -1.737756 -0.910553 1.851765 0
M  V30 19 N -3.208139 -1.382431 3.559324 0
M  V30 20 C -3.279787 -2.793308 3.482980 0
M  V30 21 C -4.084319 -3.457002 4.370630 0
M  V30 22 C -4.207694 -4.826154 4.361063 0
M  V30 23 C -3.527205 -5.609194 3.455728 0
M  V30 24 Cl -3.680854 -7.344273 3.440369 0
M  V30 25 C -2.714774 -4.968275 2.555996 0
M  V30 26 C -1.959806 -5.776249 1.558569 0
M  V30 27 F -1.194216 -4.976444 0.733236 0
M  V30 28 F -1.126119 -6.666560 2.205184 0
M  V30 29 F -2.901484 -6.473412 0.799395 0
M  V30 30 C -2.611931 -3.594971 2.590641 0
M  V30 31 C -2.125641 2.077753 0.799134 0
M  V30 32 C -1.261233 2.752918 -0.048221 0
M  V30 33 C 1.111764 2.653534 -2.527161 0
M  V30 34 C 1.762201 1.860195 -3.467382 0
M  V30 35 N 2.934671 1.263549 -3.188599 0
M  V30 36 H 4.999071 -0.172105 -3.609883 0
M  V30 37 H 3.321046 2.373554 -0.002505 0
M  V30 38 H 1.554824 2.675912 1.902032 0
M  V30 39 H 0.023131 1.479453 3.403714 0
M  V30 40 H -3.074768 1.342489 3.712806 0
M  V30 41 H -3.763542 -0.876855 4.282917 0
M  V30 42 H -4.651514 -2.878316 5.116729 0
M  V30 43 H -4.862181 -5.265949 5.094675 0
M  V30 44 H -1.967338 -3.168488 1.867352 0
M  V30 45 H -3.154151 1.897098 0.518860 0
M  V30 46 H -1.581570 3.123217 -1.018183 0
M  V30 47 H 0.181126 3.090948 -2.834103 0
M  V30 48 H 1.318478 1.716389 -4.448148 0
M  V30 END ATOM
M  V30 BEGIN BOND
M  V30 1 1 1 2
M  V30 2 1 2 3
M  V30 3 1 2 4
M  V30 4 1 2 5
M  V30 5 1 5 6
M  V30 6 2 6 7
M  V30 7 1 6 8
M  V30 8 2 8 9
M  V30 9 1 9 10
M  V30 10 1 10 11
M  V30 11 1 11 12
M  V30 12 2 12 13
M  V30 13 1 13 14
M  V30 14 2 14 15
M  V30 15 1 15 16
M  V30 16 1 16 17
M  V30 17 2 17 18
M  V30 18 1 17 19
M  V30 19 1 19 20
M  V30 20 2 20 21
M  V30 21 1 21 22
M  V30 22 2 22 23
M  V30 23 1 23 24
M  V30 24 1 23 25
M  V30 25 1 25 26
M  V30 26 1 26 27
M  V30 27 1 26 28
M  V30 28 1 26 29
M  V30 29 2 25 30
M  V30 30 1 15 31
M  V30 31 2 31 32
M  V30 32 2 10 33
M  V30 33 1 33 34
M  V30 34 2 34 35
M  V30 35 1 35 8
M  V30 36 1 32 12
M  V30 37 1 30 20
M  V30 38 1 5 36
M  V30 39 1 9 37
M  V30 40 1 13 38
M  V30 41 1 14 39
M  V30 42 1 16 40
M  V30 43 1 19 41
M  V30 44 1 21 42
M  V30 45 1 22 43
M  V30 46 1 30 44
M  V30 47 1 31 45
M  V30 48 1 32 46
M  V30 49 1 33 47
M  V30 50 1 34 48
M  V30 END BOND
M  V30 END CTAB
M  END
>  <Dataset>  (22) 
PKIs

>  <Ligand_Instance>  (22) 
nan

>  <PDB_ID>  (22) 
nan

>  <Standardized_SMILES>  (22) 
[2H]C([2H])([2H])NC(=O)c1cc(Oc2ccc(NC(=O)Nc3ccc(Cl)c(C(F)(F)F)c3)cc2)ccn1

>  <Name>  (22) 
Donafenib

>  <Pocket>  (22) 
nan

>  <ATP_Site>  (22) 
nan

>  <Peripheral>  (22) 
nan

>  <Num_H_Atoms_ProtBoundConf>  (22) 
nan

>  <Num_Resolved_Atoms>  (22) 
nan

>  <Num_Not_Resolved_Atoms>  (22) 
nan

$$$$
nan
     RDKit          3D

  0  0  0  0  0  0  0  0  0  0999 V3000
M  V30 BEGIN CTAB
M  V30 COUNTS 58 62 0 0 0
M  V30 BEGIN ATOM
M  V30 1 C 5.596001 -0.190857 1.517521 0
M  V30 2 C 5.097041 0.663766 2.659218 0
M  V30 3 C 6.277402 1.008755 3.535495 0
M  V30 4 N 4.410479 1.809907 2.143623 0
M  V30 5 C 3.047127 2.181183 2.416095 0
M  V30 6 O 2.595895 1.300082 3.189671 0
M  V30 7 C 2.695672 3.449437 1.688399 0
M  V30 8 O 1.353468 3.755470 1.995800 0
M  V30 9 C 0.368356 2.855940 1.638855 0
M  V30 10 C -0.886756 3.328275 2.035750 0
M  V30 11 C -2.031006 2.566518 1.769284 0
M  V30 12 C -1.838821 1.366432 1.114094 0
M  V30 13 C -0.609645 0.889323 0.717510 0
M  V30 14 C -0.423929 -0.379380 0.027222 0
M  V30 15 N -1.420502 -1.205875 -0.296862 0
M  V30 16 C -1.349845 -2.367230 -0.916201 0
M  V30 17 N -2.421997 -3.219873 -1.249853 0
M  V30 18 C -3.805259 -3.020358 -1.037516 0
M  V30 19 C -4.323056 -1.843903 -0.547318 0
M  V30 20 C -5.643085 -1.591169 -0.317028 0
M  V30 21 C -6.586049 -2.573195 -0.584150 0
M  V30 22 N -7.921462 -2.668220 -0.481706 0
M  V30 23 N -8.309178 -3.884415 -0.893204 0
M  V30 24 C -7.217400 -4.578211 -1.263389 0
M  V30 25 C -6.119037 -3.769636 -1.076554 0
M  V30 26 C -4.781495 -3.959904 -1.285494 0
M  V30 27 C -0.072453 -2.747516 -1.258832 0
M  V30 28 C 0.261648 -3.902811 -1.905901 0
M  V30 29 C 1.521078 -4.296446 -2.254776 0
M  V30 30 C 2.593258 -3.463357 -1.935398 0
M  V30 31 C 2.320589 -2.282751 -1.281932 0
M  V30 32 C 1.021233 -1.956734 -0.964303 0
M  V30 33 N 0.811940 -0.783666 -0.323311 0
M  V30 34 C 0.488816 1.666097 0.997340 0
M  V30 35 H 6.673081 0.032931 1.376798 0
M  V30 36 H 5.041340 0.093168 0.585266 0
M  V30 37 H 5.447024 -1.277289 1.767681 0
M  V30 38 H 4.410585 0.062514 3.309721 0
M  V30 39 H 6.040039 1.762070 4.316466 0
M  V30 40 H 6.512910 0.072240 4.118131 0
M  V30 41 H 7.195363 1.230678 2.955043 0
M  V30 42 H 5.135280 2.296606 1.533701 0
M  V30 43 H 3.382904 4.275232 2.034001 0
M  V30 44 H 2.870007 3.284041 0.614186 0
M  V30 45 H -1.090485 4.276231 2.559572 0
M  V30 46 H -3.035551 2.894412 2.060448 0
M  V30 47 H -2.720723 0.801452 0.920645 0
M  V30 48 H -2.271998 -4.134175 -1.713912 0
M  V30 49 H -3.715923 -0.991246 -0.296425 0
M  V30 50 H -6.047700 -0.672937 0.065449 0
M  V30 51 H -8.543982 -1.890606 -0.128703 0
M  V30 52 H -7.204859 -5.594836 -1.642501 0
M  V30 53 H -4.487759 -4.926340 -1.674700 0
M  V30 54 H -0.497032 -4.596752 -2.188334 0
M  V30 55 H 1.749954 -5.218856 -2.767237 0
M  V30 56 H 3.594208 -3.735225 -2.191197 0
M  V30 57 H 3.141257 -1.604924 -1.016268 0
M  V30 58 H 1.467637 1.368082 0.717287 0
M  V30 END ATOM
M  V30 BEGIN BOND
M  V30 1 1 1 2
M  V30 2 1 2 3
M  V30 3 1 2 4
M  V30 4 1 4 5
M  V30 5 2 5 6
M  V30 6 1 5 7
M  V30 7 1 7 8
M  V30 8 1 8 9
M  V30 9 2 9 10
M  V30 10 1 10 11
M  V30 11 2 11 12
M  V30 12 1 12 13
M  V30 13 1 13 14
M  V30 14 2 14 15
M  V30 15 1 15 16
M  V30 16 1 16 17
M  V30 17 1 17 18
M  V30 18 2 18 19
M  V30 19 1 19 20
M  V30 20 2 20 21
M  V30 21 1 21 22
M  V30 22 1 22 23
M  V30 23 2 23 24
M  V30 24 1 24 25
M  V30 25 2 25 26
M  V30 26 2 16 27
M  V30 27 1 27 28
M  V30 28 2 28 29
M  V30 29 1 29 30
M  V30 30 2 30 31
M  V30 31 1 31 32
M  V30 32 2 32 33
M  V30 33 2 13 34
M  V30 34 1 34 9
M  V30 35 1 33 14
M  V30 36 1 26 18
M  V30 37 1 32 27
M  V30 38 1 25 21
M  V30 39 1 1 35
M  V30 40 1 1 36
M  V30 41 1 1 37
M  V30 42 1 2 38
M  V30 43 1 3 39
M  V30 44 1 3 40
M  V30 45 1 3 41
M  V30 46 1 4 42
M  V30 47 1 7 43
M  V30 48 1 7 44
M  V30 49 1 10 45
M  V30 50 1 11 46
M  V30 51 1 12 47
M  V30 52 1 17 48
M  V30 53 1 19 49
M  V30 54 1 20 50
M  V30 55 1 22 51
M  V30 56 1 24 52
M  V30 57 1 26 53
M  V30 58 1 28 54
M  V30 59 1 29 55
M  V30 60 1 30 56
M  V30 61 1 31 57
M  V30 62 1 34 58
M  V30 END BOND
M  V30 END CTAB
M  END
>  <Dataset>  (23) 
PKIs

>  <Ligand_Instance>  (23) 
nan

>  <PDB_ID>  (23) 
nan

>  <Standardized_SMILES>  (23) 
CC(C)NC(=O)COc1cccc(-c2nc(Nc3ccc4[nH]ncc4c3)c3ccccc3n2)c1

>  <Name>  (23) 
Belumosudil

>  <Pocket>  (23) 
nan

>  <ATP_Site>  (23) 
nan

>  <Peripheral>  (23) 
nan

>  <Num_H_Atoms_ProtBoundConf>  (23) 
nan

>  <Num_Resolved_Atoms>  (23) 
nan

>  <Num_Not_Resolved_Atoms>  (23) 
nan

$$$$
nan
     RDKit          3D

  0  0  0  0  0  0  0  0  0  0999 V3000
M  V30 BEGIN CTAB
M  V30 COUNTS 72 75 0 0 0
M  V30 BEGIN ATOM
M  V30 1 C 5.464053 0.749953 1.534160 0
M  V30 2 C 4.706512 0.117910 0.660654 0
M  V30 3 C 3.436690 -0.587037 0.606253 0
M  V30 4 O 3.148163 -1.024918 -0.505575 0
M  V30 5 N 2.581162 -0.772459 1.715373 0
M  V30 6 C 1.344425 -1.440130 1.743150 0
M  V30 7 C 0.703588 -2.024022 0.674429 0
M  V30 8 C -0.539871 -2.645226 0.889913 0
M  V30 9 N -1.046918 -3.200438 -0.347499 0
M  V30 10 C -0.493407 -3.168653 -1.660159 0
M  V30 11 N 0.355924 -4.081997 -2.095702 0
M  V30 12 C 0.836195 -3.987258 -3.353371 0
M  V30 13 C 0.395354 -2.923093 -4.103727 0
M  V30 14 C -0.475933 -1.950427 -3.715781 0
M  V30 15 C -1.006366 -0.823858 -4.425171 0
M  V30 16 C -2.033090 -0.059296 -3.855581 0
M  V30 17 N -2.377072 0.944960 -4.676040 0
M  V30 18 C -3.393186 1.966259 -4.475332 0
M  V30 19 C -1.640786 0.905942 -5.771996 0
M  V30 20 C -1.546606 1.660640 -6.925560 0
M  V30 21 C -0.646999 1.369685 -7.922742 0
M  V30 22 C 0.184761 0.271123 -7.734686 0
M  V30 23 C 0.083574 -0.471484 -6.584965 0
M  V30 24 C -0.808463 -0.172006 -5.612689 0
M  V30 25 N -0.871816 -2.163067 -2.457203 0
M  V30 26 C -1.165042 -2.700359 2.148546 0
M  V30 27 O -2.336298 -3.377764 1.946005 0
M  V30 28 C -3.253582 -3.650613 2.955076 0
M  V30 29 C -3.827065 -2.448206 3.653611 0
M  V30 30 F -4.716526 -2.926158 4.605512 0
M  V30 31 F -4.448113 -1.623053 2.767469 0
M  V30 32 F -2.837447 -1.788465 4.354056 0
M  V30 33 N -0.502795 -2.118593 3.155898 0
M  V30 34 C 0.677297 -1.531057 2.945581 0
M  V30 35 N 1.334496 -0.971100 4.107491 0
M  V30 36 C 2.414602 -1.858010 4.499269 0
M  V30 37 C 1.292486 0.187970 5.005271 0
M  V30 38 C 0.305813 1.222974 4.622230 0
M  V30 39 N -1.075290 0.816753 4.594590 0
M  V30 40 C -1.539679 0.587624 5.946834 0
M  V30 41 C -1.825418 1.931783 4.054897 0
M  V30 42 H 5.820785 1.174693 2.451242 0
M  V30 43 H 5.674475 1.114120 2.528123 0
M  V30 44 H 5.366722 0.268010 -0.171432 0
M  V30 45 H 2.984605 -0.326622 2.568946 0
M  V30 46 H 1.168980 -1.986213 -0.279541 0
M  V30 47 H -1.948239 -3.722611 -0.387415 0
M  V30 48 H 1.517881 -4.703268 -3.732142 0
M  V30 49 H 0.786910 -2.887985 -5.089714 0
M  V30 50 H -2.571791 -0.144028 -2.904270 0
M  V30 51 H -3.531201 2.213217 -3.417854 0
M  V30 52 H -4.393115 1.661635 -4.867307 0
M  V30 53 H -3.090129 2.922893 -4.993083 0
M  V30 54 H -2.224526 2.518964 -7.028014 0
M  V30 55 H -0.619779 1.991307 -8.797479 0
M  V30 56 H 0.888445 0.054742 -8.528639 0
M  V30 57 H 0.767610 -1.286865 -6.530614 0
M  V30 58 H -2.752527 -4.284053 3.746385 0
M  V30 59 H -4.086387 -4.299271 2.587772 0
M  V30 60 H 2.035737 -2.566444 5.262800 0
M  V30 61 H 3.267302 -1.334845 4.984230 0
M  V30 62 H 2.868130 -2.418067 3.653263 0
M  V30 63 H 1.098540 -0.135088 6.049496 0
M  V30 64 H 2.300428 0.648272 4.960930 0
M  V30 65 H 0.351301 2.015317 5.431046 0
M  V30 66 H 0.594094 1.793299 3.705618 0
M  V30 67 H -1.296985 1.531788 6.518212 0
M  V30 68 H -2.672002 0.579775 5.966280 0
M  V30 69 H -1.117617 -0.284763 6.444168 0
M  V30 70 H -1.298682 2.907686 4.141638 0
M  V30 71 H -2.106974 1.755683 2.987647 0
M  V30 72 H -2.757047 2.065754 4.647854 0
M  V30 END ATOM
M  V30 BEGIN BOND
M  V30 1 2 1 2
M  V30 2 1 2 3
M  V30 3 2 3 4
M  V30 4 1 3 5
M  V30 5 1 5 6
M  V30 6 2 6 7
M  V30 7 1 7 8
M  V30 8 1 8 9
M  V30 9 1 9 10
M  V30 10 2 10 11
M  V30 11 1 11 12
M  V30 12 2 12 13
M  V30 13 1 13 14
M  V30 14 1 14 15
M  V30 15 2 15 16
M  V30 16 1 16 17
M  V30 17 1 17 18
M  V30 18 1 17 19
M  V30 19 2 19 20
M  V30 20 1 20 21
M  V30 21 2 21 22
M  V30 22 1 22 23
M  V30 23 2 23 24
M  V30 24 2 14 25
M  V30 25 2 8 26
M  V30 26 1 26 27
M  V30 27 1 27 28
M  V30 28 1 28 29
M  V30 29 1 29 30
M  V30 30 1 29 31
M  V30 31 1 29 32
M  V30 32 1 26 33
M  V30 33 2 33 34
M  V30 34 1 34 35
M  V30 35 1 35 36
M  V30 36 1 35 37
M  V30 37 1 37 38
M  V30 38 1 38 39
M  V30 39 1 39 40
M  V30 40 1 39 41
M  V30 41 1 34 6
M  V30 42 1 25 10
M  V30 43 1 24 15
M  V30 44 1 24 19
M  V30 45 1 1 42
M  V30 46 1 1 43
M  V30 47 1 2 44
M  V30 48 1 5 45
M  V30 49 1 7 46
M  V30 50 1 9 47
M  V30 51 1 12 48
M  V30 52 1 13 49
M  V30 53 1 16 50
M  V30 54 1 18 51
M  V30 55 1 18 52
M  V30 56 1 18 53
M  V30 57 1 20 54
M  V30 58 1 21 55
M  V30 59 1 22 56
M  V30 60 1 23 57
M  V30 61 1 28 58
M  V30 62 1 28 59
M  V30 63 1 36 60
M  V30 64 1 36 61
M  V30 65 1 36 62
M  V30 66 1 37 63
M  V30 67 1 37 64
M  V30 68 1 38 65
M  V30 69 1 38 66
M  V30 70 1 40 67
M  V30 71 1 40 68
M  V30 72 1 40 69
M  V30 73 1 41 70
M  V30 74 1 41 71
M  V30 75 1 41 72
M  V30 END BOND
M  V30 END CTAB
M  END
>  <Dataset>  (24) 
PKIs

>  <Ligand_Instance>  (24) 
nan

>  <PDB_ID>  (24) 
nan

>  <Standardized_SMILES>  (24) 
C=CC(=O)Nc1cc(Nc2nccc(-c3cn(C)c4ccccc34)n2)c(OCC(F)(F)F)nc1N(C)CCN(C)C

>  <Name>  (24) 
Furmonertinib

>  <Pocket>  (24) 
nan

>  <ATP_Site>  (24) 
nan

>  <Peripheral>  (24) 
nan

>  <Num_H_Atoms_ProtBoundConf>  (24) 
nan

>  <Num_Resolved_Atoms>  (24) 
nan

>  <Num_Not_Resolved_Atoms>  (24) 
nan

$$$$
nan
     RDKit          3D

  0  0  0  0  0  0  0  0  0  0999 V3000
M  V30 BEGIN CTAB
M  V30 COUNTS 43 45 0 0 0
M  V30 BEGIN ATOM
M  V30 1 C -2.910802 -3.009418 0.788492 0
M  V30 2 C -2.522774 -1.745422 0.068720 0
M  V30 3 C -3.471699 -0.615264 0.410855 0
M  V30 4 N -1.162165 -1.415817 0.453482 0
M  V30 5 C -0.514025 -0.274947 -0.057012 0
M  V30 6 N -1.178610 0.539529 -0.928680 0
M  V30 7 C -0.370111 1.555005 -1.278158 0
M  V30 8 C -0.450289 2.665968 -2.094129 0
M  V30 9 C 0.619421 3.549779 -2.232536 0
M  V30 10 Cl 0.523197 4.962626 -3.267811 0
M  V30 11 C 1.786075 3.308216 -1.537334 0
M  V30 12 Cl 3.188836 4.352305 -1.638111 0
M  V30 13 C 1.864210 2.194091 -0.720184 0
M  V30 14 C 0.788350 1.309396 -0.583900 0
M  V30 15 N 0.717460 0.175684 0.180727 0
M  V30 16 C 1.713176 -0.381037 1.017212 0 CFG=1
M  V30 17 O 1.290172 -0.229796 2.355427 0
M  V30 18 C 2.085556 -1.113988 3.077430 0 CFG=1
M  V30 19 C 1.584704 -1.345841 4.461617 0
M  V30 20 O 2.433088 -2.246378 5.129024 0
M  V30 21 C 2.090807 -2.359535 2.227469 0 CFG=2
M  V30 22 O 3.220860 -3.147556 2.475702 0
M  V30 23 C 2.141436 -1.750290 0.852631 0 CFG=2
M  V30 24 O 3.511055 -1.779957 0.482908 0
M  V30 25 H -2.328108 -3.060388 1.738033 0
M  V30 26 H -2.552581 -3.866157 0.163819 0
M  V30 27 H -4.003347 -3.017854 0.965819 0
M  V30 28 H -2.518270 -1.949060 -1.020697 0
M  V30 29 H -3.142672 -0.022576 1.283715 0
M  V30 30 H -4.451624 -1.040572 0.690444 0
M  V30 31 H -3.532876 0.074843 -0.451137 0
M  V30 32 H -0.623005 -2.011794 1.118787 0
M  V30 33 H -1.379291 2.848452 -2.640518 0
M  V30 34 H 2.778722 2.006135 -0.176173 0
M  V30 35 H 2.605045 0.316738 0.961309 0
M  V30 36 H 3.130322 -0.750479 3.111128 0
M  V30 37 H 0.533458 -1.626446 4.501708 0
M  V30 38 H 1.721849 -0.376841 5.016267 0
M  V30 39 H 3.363065 -2.009767 4.815457 0
M  V30 40 H 1.156369 -2.964368 2.385835 0
M  V30 41 H 2.957907 -3.816955 3.166235 0
M  V30 42 H 1.653058 -2.366460 0.085853 0
M  V30 43 H 3.629019 -1.943187 -0.470935 0
M  V30 END ATOM
M  V30 BEGIN BOND
M  V30 1 1 1 2
M  V30 2 1 2 3
M  V30 3 1 2 4
M  V30 4 1 4 5
M  V30 5 2 5 6
M  V30 6 1 6 7
M  V30 7 2 7 8
M  V30 8 1 8 9
M  V30 9 1 9 10
M  V30 10 2 9 11
M  V30 11 1 11 12
M  V30 12 1 11 13
M  V30 13 2 13 14
M  V30 14 1 14 15
M  V30 15 1 15 16
M  V30 16 1 16 17
M  V30 17 1 17 18
M  V30 18 1 18 19
M  V30 19 1 19 20
M  V30 20 1 18 21
M  V30 21 1 21 22
M  V30 22 1 21 23
M  V30 23 1 23 24
M  V30 24 1 15 5
M  V30 25 1 23 16
M  V30 26 1 14 7
M  V30 27 1 1 25
M  V30 28 1 1 26
M  V30 29 1 1 27
M  V30 30 1 2 28
M  V30 31 1 3 29
M  V30 32 1 3 30
M  V30 33 1 3 31
M  V30 34 1 4 32
M  V30 35 1 8 33
M  V30 36 1 13 34
M  V30 37 1 16 35 CFG=1
M  V30 38 1 18 36 CFG=1
M  V30 39 1 19 37
M  V30 40 1 19 38
M  V30 41 1 20 39
M  V30 42 1 21 40 CFG=3
M  V30 43 1 22 41
M  V30 44 1 23 42 CFG=3
M  V30 45 1 24 43
M  V30 END BOND
M  V30 END CTAB
M  END
>  <Dataset>  (25) 
PKIs

>  <Ligand_Instance>  (25) 
nan

>  <PDB_ID>  (25) 
nan

>  <Standardized_SMILES>  (25) 
CC(C)Nc1nc2cc(Cl)c(Cl)cc2n1[C@H]1O[C@@H](CO)[C@H](O)[C@@H]1O

>  <Name>  (25) 
Maribavir

>  <Pocket>  (25) 
nan

>  <ATP_Site>  (25) 
nan

>  <Peripheral>  (25) 
nan

>  <Num_H_Atoms_ProtBoundConf>  (25) 
nan

>  <Num_Resolved_Atoms>  (25) 
nan

>  <Num_Not_Resolved_Atoms>  (25) 
nan

$$$$
nan
     RDKit          3D

  0  0  0  0  0  0  0  0  0  0999 V3000
M  V30 BEGIN CTAB
M  V30 COUNTS 66 71 0 0 0
M  V30 BEGIN ATOM
M  V30 1 C 3.334372 -3.460900 7.801588 0
M  V30 2 C 2.441942 -2.442977 7.178921 0
M  V30 3 C 1.826801 -1.609049 8.301317 0
M  V30 4 O 3.041288 -1.620444 6.215523 0
M  V30 5 C 2.584351 -1.312204 4.969075 0
M  V30 6 C 1.408780 -1.753106 4.341006 0
M  V30 7 C 1.061549 -1.357503 3.069284 0
M  V30 8 C 1.852250 -0.499839 2.332054 0
M  V30 9 C 1.399228 -0.149437 0.992955 0
M  V30 10 N 1.025052 -0.938888 -0.033034 0
M  V30 11 N 0.655123 -0.243728 -1.070766 0
M  V30 12 C 0.166937 -0.601034 -2.420510 0 CFG=1
M  V30 13 C 0.651738 -1.977162 -2.662862 0
M  V30 14 C -1.254885 -0.333328 -2.431659 0
M  V30 15 O -1.684012 0.712056 -1.737417 0
M  V30 16 C -2.916891 1.082396 -1.645495 0
M  V30 17 C -3.216047 2.198660 -0.884131 0
M  V30 18 C -4.499697 2.694805 -0.709779 0
M  V30 19 C -5.493643 1.985269 -1.362517 0
M  V30 20 F -6.775028 2.448042 -1.214389 0
M  V30 21 C -5.272032 0.867375 -2.136739 0
M  V30 22 C -3.977878 0.442546 -2.258159 0
M  V30 23 C -3.588982 -0.665313 -3.002944 0
M  V30 24 O -4.491112 -1.310679 -3.597448 0
M  V30 25 C -2.244378 -1.010589 -3.061394 0
M  V30 26 C -1.965973 -2.179887 -3.889525 0
M  V30 27 C -1.903842 -3.543377 -3.691188 0
M  V30 28 C -1.611381 -4.402945 -4.710790 0
M  V30 29 C -1.361946 -3.959371 -5.989048 0
M  V30 30 C -1.413748 -2.587937 -6.234042 0
M  V30 31 F -1.156478 -2.245320 -7.508513 0
M  V30 32 C -1.712135 -1.718381 -5.192482 0
M  V30 33 C 0.766319 1.090234 -0.780208 0
M  V30 34 N 0.515495 2.230277 -1.464423 0
M  V30 35 C 0.697206 3.450769 -0.939758 0
M  V30 36 N 1.155910 3.545753 0.342826 0
M  V30 37 C 1.409343 2.411232 1.034195 0
M  V30 38 N 1.849909 2.613571 2.367262 0
M  V30 39 C 1.237279 1.138860 0.531097 0
M  V30 40 C 3.011695 -0.065770 2.947958 0
M  V30 41 C 3.362864 -0.458313 4.219592 0
M  V30 42 F 4.520792 0.038790 4.710606 0
M  V30 43 H 4.081312 -2.956449 8.458132 0
M  V30 44 H 2.693683 -4.044775 8.532346 0
M  V30 45 H 3.783921 -4.198244 7.132875 0
M  V30 46 H 1.568866 -2.957345 6.709517 0
M  V30 47 H 2.258963 -1.965639 9.252795 0
M  V30 48 H 2.192070 -0.564112 8.181057 0
M  V30 49 H 0.743664 -1.704216 8.376477 0
M  V30 50 H 0.802510 -2.424087 4.922204 0
M  V30 51 H 0.122005 -1.760852 2.670850 0
M  V30 52 H 0.656352 0.070938 -3.153876 0
M  V30 53 H 0.235492 -2.740415 -1.968930 0
M  V30 54 H 0.698829 -2.292183 -3.718610 0
M  V30 55 H 1.750741 -1.968693 -2.366016 0
M  V30 56 H -2.454843 2.786594 -0.346845 0
M  V30 57 H -4.708265 3.574055 -0.105802 0
M  V30 58 H -6.058098 0.320550 -2.643070 0
M  V30 59 H -2.123356 -3.723118 -2.629281 0
M  V30 60 H -1.614924 -5.431999 -4.343712 0
M  V30 61 H -1.143642 -4.746435 -6.702438 0
M  V30 62 H -1.705693 -0.693506 -5.584115 0
M  V30 63 H 0.443238 4.242235 -1.633959 0
M  V30 64 H 2.753414 3.175696 2.429525 0
M  V30 65 H 1.494940 2.340847 3.324386 0
M  V30 66 H 3.649464 0.583700 2.397686 0
M  V30 END ATOM
M  V30 BEGIN BOND
M  V30 1 1 1 2
M  V30 2 1 2 3
M  V30 3 1 2 4
M  V30 4 1 4 5
M  V30 5 2 5 6
M  V30 6 1 6 7
M  V30 7 2 7 8
M  V30 8 1 8 9
M  V30 9 2 9 10
M  V30 10 1 10 11
M  V30 11 1 11 12
M  V30 12 1 12 13
M  V30 13 1 12 14
M  V30 14 1 14 15
M  V30 15 1 15 16
M  V30 16 2 16 17
M  V30 17 1 17 18
M  V30 18 2 18 19
M  V30 19 1 19 20
M  V30 20 1 19 21
M  V30 21 2 21 22
M  V30 22 1 22 23
M  V30 23 2 23 24
M  V30 24 1 23 25
M  V30 25 1 25 26
M  V30 26 2 26 27
M  V30 27 1 27 28
M  V30 28 2 28 29
M  V30 29 1 29 30
M  V30 30 1 30 31
M  V30 31 2 30 32
M  V30 32 1 11 33
M  V30 33 2 33 34
M  V30 34 1 34 35
M  V30 35 2 35 36
M  V30 36 1 36 37
M  V30 37 1 37 38
M  V30 38 2 37 39
M  V30 39 1 8 40
M  V30 40 2 40 41
M  V30 41 1 41 42
M  V30 42 1 41 5
M  V30 43 1 39 9
M  V30 44 2 25 14
M  V30 45 1 32 26
M  V30 46 1 39 33
M  V30 47 1 22 16
M  V30 48 1 1 43
M  V30 49 1 1 44
M  V30 50 1 1 45
M  V30 51 1 2 46
M  V30 52 1 3 47
M  V30 53 1 3 48
M  V30 54 1 3 49
M  V30 55 1 6 50
M  V30 56 1 7 51
M  V30 57 1 12 52 CFG=3
M  V30 58 1 13 53
M  V30 59 1 13 54
M  V30 60 1 13 55
M  V30 61 1 17 56
M  V30 62 1 18 57
M  V30 63 1 21 58
M  V30 64 1 27 59
M  V30 65 1 28 60
M  V30 66 1 29 61
M  V30 67 1 32 62
M  V30 68 1 35 63
M  V30 69 1 38 64
M  V30 70 1 38 65
M  V30 71 1 40 66
M  V30 END BOND
M  V30 END CTAB
M  END
>  <Dataset>  (26) 
PKIs

>  <Ligand_Instance>  (26) 
nan

>  <PDB_ID>  (26) 
nan

>  <Standardized_SMILES>  (26) 
CC(C)Oc1ccc(-c2nn([C@@H](C)c3oc4ccc(F)cc4c(=O)c3-c3cccc(F)c3)c3ncnc(N)c23)cc1F

>  <Name>  (26) 
Umbralisib

>  <Pocket>  (26) 
nan

>  <ATP_Site>  (26) 
nan

>  <Peripheral>  (26) 
nan

>  <Num_H_Atoms_ProtBoundConf>  (26) 
nan

>  <Num_Resolved_Atoms>  (26) 
nan

>  <Num_Not_Resolved_Atoms>  (26) 
nan

$$$$
nan
     RDKit          3D

  0  0  0  0  0  0  0  0  0  0999 V3000
M  V30 BEGIN CTAB
M  V30 COUNTS 82 85 0 0 0
M  V30 BEGIN ATOM
M  V30 1 C 4.804864 -3.921968 3.223823 0
M  V30 2 C 4.234446 -4.309048 2.100432 0
M  V30 3 C 3.781659 -3.363303 1.095131 0
M  V30 4 O 3.238842 -3.811272 0.030243 0
M  V30 5 N 3.898237 -1.951484 1.204042 0
M  V30 6 C 3.367153 -1.297282 0.061877 0
M  V30 7 C 2.046516 -0.922743 -0.061474 0
M  V30 8 C 1.486376 -0.283403 -1.147752 0
M  V30 9 N 0.117624 0.068112 -1.226452 0
M  V30 10 C -0.898975 -0.086378 -0.249345 0
M  V30 11 N -0.744904 -0.552230 0.995058 0
M  V30 12 C -1.725005 -0.694531 1.897715 0
M  V30 13 C -2.976140 -0.319311 1.467740 0
M  V30 14 C -4.086458 -0.468179 2.391189 0
M  V30 15 O -3.970072 -0.886211 3.569681 0
M  V30 16 O -5.417654 -0.220455 2.239118 0
M  V30 17 C -6.410301 -0.406606 3.226050 0
M  V30 18 C -7.250633 0.800383 3.492807 0
M  V30 19 C -7.357365 -1.460412 2.619096 0
M  V30 20 C -3.219754 0.168107 0.207756 0
M  V30 21 C -4.506023 0.577588 -0.317723 0
M  V30 22 C -5.484772 1.503934 0.022752 0
M  V30 23 N -6.480373 1.440650 -0.873263 0
M  V30 24 C -7.662818 2.269318 -0.826843 0
M  V30 25 C -6.186862 0.501680 -1.792183 0
M  V30 26 C -6.936694 0.101738 -2.902571 0
M  V30 27 C -6.428179 -0.883667 -3.702571 0
M  V30 28 C -5.218460 -1.461168 -3.424049 0
M  V30 29 C -4.496694 -1.052874 -2.326952 0
M  V30 30 C -4.961513 -0.059605 -1.479930 0
M  V30 31 N -2.151619 0.258915 -0.593798 0
M  V30 32 C 2.384695 -0.014184 -2.189765 0
M  V30 33 O 1.875570 0.628186 -3.308098 0
M  V30 34 C 2.744949 0.920147 -4.384134 0
M  V30 35 C 3.706149 -0.380896 -2.082853 0
M  V30 36 C 4.229841 -1.019892 -0.979767 0
M  V30 37 N 5.598855 -1.349519 -0.987389 0
M  V30 38 C 6.183654 -2.694680 -0.943072 0
M  V30 39 C 6.615630 -0.287906 -1.036769 0
M  V30 40 C 7.365942 -0.235898 0.280681 0
M  V30 41 N 6.491480 0.042493 1.387214 0
M  V30 42 C 5.962171 1.388536 1.353645 0
M  V30 43 C 7.058394 -0.202813 2.678846 0
M  V30 44 H 5.195732 -3.247365 3.956512 0
M  V30 45 H 5.158206 -4.587812 3.994787 0
M  V30 46 H 4.125683 -5.356865 1.979163 0
M  V30 47 H 4.350560 -1.653611 2.099889 0
M  V30 48 H 1.470365 -1.188460 0.806089 0
M  V30 49 H -0.151595 0.499968 -2.145051 0
M  V30 50 H -1.517181 -1.076881 2.877533 0
M  V30 51 H -6.017908 -0.780728 4.197010 0
M  V30 52 H -6.723803 1.393854 4.271401 0
M  V30 53 H -7.497655 1.400986 2.600614 0
M  V30 54 H -8.210067 0.460252 3.932847 0
M  V30 55 H -6.687579 -2.332850 2.354856 0
M  V30 56 H -7.704700 -1.058114 1.652912 0
M  V30 57 H -8.154229 -1.746384 3.304660 0
M  V30 58 H -5.350632 2.122995 0.887882 0
M  V30 59 H -8.317204 2.063724 0.047348 0
M  V30 60 H -8.306136 2.083814 -1.721673 0
M  V30 61 H -7.411855 3.358430 -0.789577 0
M  V30 62 H -7.889038 0.578960 -3.095968 0
M  V30 63 H -7.073669 -1.140259 -4.552706 0
M  V30 64 H -4.852991 -2.233479 -4.080323 0
M  V30 65 H -3.543055 -1.505461 -2.106226 0
M  V30 66 H 3.686820 1.405043 -4.024377 0
M  V30 67 H 3.030077 0.039072 -4.963634 0
M  V30 68 H 2.263286 1.615962 -5.116303 0
M  V30 69 H 4.365381 -0.151691 -2.913841 0
M  V30 70 H 5.514777 -3.428960 -1.440969 0
M  V30 71 H 7.155003 -2.725266 -1.510481 0
M  V30 72 H 6.466993 -2.983519 0.089234 0
M  V30 73 H 6.215066 0.677422 -1.354519 0
M  V30 74 H 7.342956 -0.597206 -1.813778 0
M  V30 75 H 8.102526 0.577879 0.202121 0
M  V30 76 H 7.929632 -1.167824 0.415591 0
M  V30 77 H 6.289545 1.952540 2.250063 0
M  V30 78 H 4.843687 1.340320 1.286009 0
M  V30 79 H 6.401729 1.897182 0.469180 0
M  V30 80 H 6.569876 -1.083846 3.190478 0
M  V30 81 H 8.156997 -0.405383 2.656082 0
M  V30 82 H 6.846244 0.652529 3.372742 0
M  V30 END ATOM
M  V30 BEGIN BOND
M  V30 1 2 1 2
M  V30 2 1 2 3
M  V30 3 2 3 4
M  V30 4 1 3 5
M  V30 5 1 5 6
M  V30 6 2 6 7
M  V30 7 1 7 8
M  V30 8 1 8 9
M  V30 9 1 9 10
M  V30 10 2 10 11
M  V30 11 1 11 12
M  V30 12 2 12 13
M  V30 13 1 13 14
M  V30 14 2 14 15
M  V30 15 1 14 16
M  V30 16 1 16 17
M  V30 17 1 17 18
M  V30 18 1 17 19
M  V30 19 1 13 20
M  V30 20 1 20 21
M  V30 21 2 21 22
M  V30 22 1 22 23
M  V30 23 1 23 24
M  V30 24 1 23 25
M  V30 25 2 25 26
M  V30 26 1 26 27
M  V30 27 2 27 28
M  V30 28 1 28 29
M  V30 29 2 29 30
M  V30 30 2 20 31
M  V30 31 2 8 32
M  V30 32 1 32 33
M  V30 33 1 33 34
M  V30 34 1 32 35
M  V30 35 2 35 36
M  V30 36 1 36 37
M  V30 37 1 37 38
M  V30 38 1 37 39
M  V30 39 1 39 40
M  V30 40 1 40 41
M  V30 41 1 41 42
M  V30 42 1 41 43
M  V30 43 1 36 6
M  V30 44 1 31 10
M  V30 45 1 30 21
M  V30 46 1 30 25
M  V30 47 1 1 44
M  V30 48 1 1 45
M  V30 49 1 2 46
M  V30 50 1 5 47
M  V30 51 1 7 48
M  V30 52 1 9 49
M  V30 53 1 12 50
M  V30 54 1 17 51
M  V30 55 1 18 52
M  V30 56 1 18 53
M  V30 57 1 18 54
M  V30 58 1 19 55
M  V30 59 1 19 56
M  V30 60 1 19 57
M  V30 61 1 22 58
M  V30 62 1 24 59
M  V30 63 1 24 60
M  V30 64 1 24 61
M  V30 65 1 26 62
M  V30 66 1 27 63
M  V30 67 1 28 64
M  V30 68 1 29 65
M  V30 69 1 34 66
M  V30 70 1 34 67
M  V30 71 1 34 68
M  V30 72 1 35 69
M  V30 73 1 38 70
M  V30 74 1 38 71
M  V30 75 1 38 72
M  V30 76 1 39 73
M  V30 77 1 39 74
M  V30 78 1 40 75
M  V30 79 1 40 76
M  V30 80 1 42 77
M  V30 81 1 42 78
M  V30 82 1 42 79
M  V30 83 1 43 80
M  V30 84 1 43 81
M  V30 85 1 43 82
M  V30 END BOND
M  V30 END CTAB
M  END
>  <Dataset>  (27) 
PKIs

>  <Ligand_Instance>  (27) 
nan

>  <PDB_ID>  (27) 
nan

>  <Standardized_SMILES>  (27) 
C=CC(=O)Nc1cc(Nc2ncc(C(=O)OC(C)C)c(-c3cn(C)c4ccccc34)n2)c(OC)cc1N(C)CCN(C)C

>  <Name>  (27) 
Mobocertinib

>  <Pocket>  (27) 
nan

>  <ATP_Site>  (27) 
nan

>  <Peripheral>  (27) 
nan

>  <Num_H_Atoms_ProtBoundConf>  (27) 
nan

>  <Num_Resolved_Atoms>  (27) 
nan

>  <Num_Not_Resolved_Atoms>  (27) 
nan

$$$$
nan
     RDKit          3D

  0  0  0  0  0  0  0  0  0  0999 V3000
M  V30 BEGIN CTAB
M  V30 COUNTS 66 70 0 0 0
M  V30 BEGIN ATOM
M  V30 1 C 3.991380 -1.310545 5.305486 0
M  V30 2 C 2.944977 -1.784250 4.368374 0
M  V30 3 C 2.588094 -3.134814 4.389535 0
M  V30 4 C 1.613874 -3.577665 3.510852 0
M  V30 5 C 1.011257 -2.679752 2.628792 0
M  V30 6 C -0.038183 -3.043169 1.651583 0
M  V30 7 O -0.488925 -2.189113 0.805797 0
M  V30 8 N -0.686959 -4.294506 1.482434 0
M  V30 9 C -1.592547 -4.027877 0.398166 0
M  V30 10 C -1.237087 -4.230073 -0.937739 0
M  V30 11 C -2.207727 -3.906801 -1.852045 0
M  V30 12 C -3.435218 -3.420668 -1.461679 0
M  V30 13 C -4.252678 -3.032107 -2.634385 0
M  V30 14 N -3.905808 -1.786536 -3.122784 0
M  V30 15 C -3.757938 -0.621790 -2.391788 0
M  V30 16 C -2.810535 0.353483 -3.130074 0
M  V30 17 N -1.848381 -0.451063 -3.807203 0
M  V30 18 C -0.554356 0.091409 -3.982711 0
M  V30 19 C -2.349197 -1.248119 -4.876102 0
M  V30 20 C -3.776651 -1.656460 -4.552002 0
M  V30 21 C -3.803462 -3.219239 -0.154817 0
M  V30 22 C -5.118891 -2.786467 0.290915 0
M  V30 23 F -6.112458 -3.681987 -0.142003 0
M  V30 24 F -5.168963 -2.903570 1.691865 0
M  V30 25 F -5.519707 -1.553243 -0.105453 0
M  V30 26 C -2.823754 -3.542076 0.794044 0
M  V30 27 C 1.387542 -1.353994 2.635573 0
M  V30 28 C 2.338591 -0.894615 3.485748 0
M  V30 29 C 2.716938 0.496429 3.485348 0
M  V30 30 C 3.035204 1.662553 3.463908 0
M  V30 31 C 3.407155 3.069595 3.439067 0
M  V30 32 C 2.523070 4.041067 3.898438 0
M  V30 33 N 2.848883 5.363907 3.890038 0
M  V30 34 C 4.067922 5.713242 3.418343 0
M  V30 35 N 4.645605 6.943378 3.297232 0
M  V30 36 N 5.842394 6.741421 2.781883 0
M  V30 37 C 6.081476 5.445744 2.558298 0
M  V30 38 C 4.961301 4.764375 2.956768 0
M  V30 39 C 4.652157 3.415348 2.955708 0
M  V30 40 H 3.852100 -0.245888 5.582298 0
M  V30 41 H 5.010254 -1.417348 4.849727 0
M  V30 42 H 4.013152 -1.898750 6.245130 0
M  V30 43 H 3.029774 -3.862417 5.056594 0
M  V30 44 H 1.274080 -4.604082 3.457295 0
M  V30 45 H -0.365505 -5.046453 2.145851 0
M  V30 46 H -0.239326 -4.614245 -1.050001 0
M  V30 47 H -1.883456 -4.082381 -2.872161 0
M  V30 48 H -5.351737 -3.050263 -2.376996 0
M  V30 49 H -4.187520 -3.827732 -3.439787 0
M  V30 50 H -3.314244 -0.841505 -1.393264 0
M  V30 51 H -4.736717 -0.121447 -2.226272 0
M  V30 52 H -2.294530 0.931260 -2.342489 0
M  V30 53 H -3.379104 1.055403 -3.748972 0
M  V30 54 H -0.420580 0.723041 -4.882373 0
M  V30 55 H -0.280211 0.673118 -3.077298 0
M  V30 56 H 0.183049 -0.737026 -4.027097 0
M  V30 57 H -2.309835 -0.758010 -5.882058 0
M  V30 58 H -1.703444 -2.156641 -4.961305 0
M  V30 59 H -3.978712 -2.656151 -4.984335 0
M  V30 60 H -4.515070 -0.934601 -4.953942 0
M  V30 61 H -3.069537 -3.394357 1.835502 0
M  V30 62 H 0.942147 -0.652904 1.972768 0
M  V30 63 H 1.569785 3.681264 4.260542 0
M  V30 64 H 4.253941 7.893533 3.551566 0
M  V30 65 H 6.969171 4.957357 2.142606 0
M  V30 66 H 5.320464 2.641472 2.602304 0
M  V30 END ATOM
M  V30 BEGIN BOND
M  V30 1 1 1 2
M  V30 2 2 2 3
M  V30 3 1 3 4
M  V30 4 2 4 5
M  V30 5 1 5 6
M  V30 6 2 6 7
M  V30 7 1 6 8
M  V30 8 1 8 9
M  V30 9 2 9 10
M  V30 10 1 10 11
M  V30 11 2 11 12
M  V30 12 1 12 13
M  V30 13 1 13 14
M  V30 14 1 14 15
M  V30 15 1 15 16
M  V30 16 1 16 17
M  V30 17 1 17 18
M  V30 18 1 17 19
M  V30 19 1 19 20
M  V30 20 1 12 21
M  V30 21 1 21 22
M  V30 22 1 22 23
M  V30 23 1 22 24
M  V30 24 1 22 25
M  V30 25 2 21 26
M  V30 26 1 5 27
M  V30 27 2 27 28
M  V30 28 1 28 29
M  V30 29 3 29 30
M  V30 30 1 30 31
M  V30 31 2 31 32
M  V30 32 1 32 33
M  V30 33 2 33 34
M  V30 34 1 34 35
M  V30 35 1 35 36
M  V30 36 2 36 37
M  V30 37 1 37 38
M  V30 38 2 38 39
M  V30 39 1 28 2
M  V30 40 1 39 31
M  V30 41 1 26 9
M  V30 42 1 38 34
M  V30 43 1 20 14
M  V30 44 1 1 40
M  V30 45 1 1 41
M  V30 46 1 1 42
M  V30 47 1 3 43
M  V30 48 1 4 44
M  V30 49 1 8 45
M  V30 50 1 10 46
M  V30 51 1 11 47
M  V30 52 1 13 48
M  V30 53 1 13 49
M  V30 54 1 15 50
M  V30 55 1 15 51
M  V30 56 1 16 52
M  V30 57 1 16 53
M  V30 58 1 18 54
M  V30 59 1 18 55
M  V30 60 1 18 56
M  V30 61 1 19 57
M  V30 62 1 19 58
M  V30 63 1 20 59
M  V30 64 1 20 60
M  V30 65 1 26 61
M  V30 66 1 27 62
M  V30 67 1 32 63
M  V30 68 1 35 64
M  V30 69 1 37 65
M  V30 70 1 39 66
M  V30 END BOND
M  V30 END CTAB
M  END
>  <Dataset>  (28) 
PKIs

>  <Ligand_Instance>  (28) 
nan

>  <PDB_ID>  (28) 
nan

>  <Standardized_SMILES>  (28) 
Cc1ccc(C(=O)Nc2ccc(CN3CCN(C)CC3)c(C(F)(F)F)c2)cc1C#Cc1cnc2[nH]ncc2c1

>  <Name>  (28) 
Olverembatinib

>  <Pocket>  (28) 
nan

>  <ATP_Site>  (28) 
nan

>  <Peripheral>  (28) 
nan

>  <Num_H_Atoms_ProtBoundConf>  (28) 
nan

>  <Num_Resolved_Atoms>  (28) 
nan

>  <Num_Not_Resolved_Atoms>  (28) 
nan

$$$$
nan
     RDKit          3D

  0  0  0  0  0  0  0  0  0  0999 V3000
M  V30 BEGIN CTAB
M  V30 COUNTS 74 78 0 0 0
M  V30 BEGIN ATOM
M  V30 1 C 6.471588 -2.015045 2.011464 0
M  V30 2 C 6.112345 -0.970713 1.309069 0
M  V30 3 C 4.703203 -0.652774 1.523337 0
M  V30 4 O 4.588699 -1.633728 2.334555 0
M  V30 5 N 3.963619 0.409321 0.929745 0
M  V30 6 C 2.583890 0.456084 1.345973 0
M  V30 7 C 1.620293 -0.239971 0.677516 0
M  V30 8 C 0.274155 -0.281899 0.965332 0
M  V30 9 N -0.719895 -1.008656 0.275255 0
M  V30 10 C -0.539237 -1.834900 -0.864834 0
M  V30 11 N 0.612080 -2.050900 -1.520454 0
M  V30 12 C 0.673278 -2.861064 -2.588689 0
M  V30 13 C -0.508332 -3.446479 -2.961147 0
M  V30 14 C -1.722959 -3.289051 -2.362271 0
M  V30 15 C -2.997956 -3.886109 -2.692415 0
M  V30 16 C -4.080500 -3.665005 -1.843796 0
M  V30 17 N -5.175445 -4.297711 -2.322429 0
M  V30 18 C -6.486838 -4.310827 -1.737010 0
M  V30 19 C -7.395404 -5.457606 -1.705055 0
M  V30 20 C -7.743127 -4.269023 -2.477561 0
M  V30 21 C -4.871395 -4.938602 -3.464182 0
M  V30 22 C -5.489778 -5.725659 -4.411048 0
M  V30 23 C -4.868793 -6.247135 -5.522245 0
M  V30 24 C -3.515503 -5.939248 -5.673595 0
M  V30 25 C -2.883753 -5.157254 -4.740858 0
M  V30 26 C -3.539041 -4.664089 -3.656678 0
M  V30 27 N -1.610425 -2.463463 -1.329850 0
M  V30 28 C -0.071855 0.499215 2.078810 0
M  V30 29 O -1.405204 0.554556 2.489357 0
M  V30 30 C -1.779860 1.345519 3.627702 0
M  V30 31 C 0.866669 1.217396 2.783451 0
M  V30 32 C 2.202103 1.214433 2.439132 0
M  V30 33 N 3.137031 1.970098 3.196858 0
M  V30 34 C 4.192826 1.340648 3.973437 0
M  V30 35 C 3.222752 3.405847 3.328596 0
M  V30 36 C 2.188589 4.164821 2.552241 0
M  V30 37 N 2.417762 5.583174 2.785498 0
M  V30 38 C 1.461469 6.401625 2.072725 0
M  V30 39 C 3.746769 5.967318 2.320285 0
M  V30 40 H 7.438231 -2.493685 2.069272 0
M  V30 41 H 6.110947 -2.751288 2.708836 0
M  V30 42 H 6.928912 -0.572766 0.725486 0
M  V30 43 H 4.563241 0.974930 0.288771 0
M  V30 44 H 1.980970 -0.804487 -0.155775 0
M  V30 45 H -1.697312 -0.905212 0.674089 0
M  V30 46 H 1.595918 -3.034820 -3.118418 0
M  V30 47 H -0.408079 -4.087501 -3.805271 0
M  V30 48 H -4.134146 -3.089547 -0.918240 0
M  V30 49 H -6.534077 -3.713983 -0.772865 0
M  V30 50 H -6.999471 -6.406933 -2.059875 0
M  V30 51 H -8.006370 -5.673048 -0.766059 0
M  V30 52 H -7.813713 -4.175186 -3.568714 0
M  V30 53 H -8.615019 -3.667090 -2.052036 0
M  V30 54 H -6.515960 -5.954642 -4.289782 0
M  V30 55 H -5.441706 -6.872318 -6.230204 0
M  V30 56 H -3.052318 -6.371762 -6.570808 0
M  V30 57 H -1.876955 -5.010806 -4.996346 0
M  V30 58 H -1.208671 0.972613 4.528001 0
M  V30 59 H -2.858185 1.272564 3.816095 0
M  V30 60 H -1.519269 2.395625 3.506215 0
M  V30 61 H 0.511962 1.798953 3.645572 0
M  V30 62 H 3.975771 0.277828 4.210820 0
M  V30 63 H 4.351644 1.855516 4.968388 0
M  V30 64 H 5.163297 1.451803 3.450028 0
M  V30 65 H 4.219094 3.718957 2.932429 0
M  V30 66 H 3.086903 3.704128 4.404611 0
M  V30 67 H 1.153571 3.923732 2.796545 0
M  V30 68 H 2.308758 4.035754 1.447916 0
M  V30 69 H 1.120167 7.194405 2.773543 0
M  V30 70 H 0.611465 5.855329 1.651096 0
M  V30 71 H 1.934177 6.970003 1.222375 0
M  V30 72 H 4.000181 5.347755 1.411463 0
M  V30 73 H 4.537773 5.759271 3.074273 0
M  V30 74 H 3.690659 7.037559 2.043818 0
M  V30 END ATOM
M  V30 BEGIN BOND
M  V30 1 2 1 2
M  V30 2 1 2 3
M  V30 3 2 3 4
M  V30 4 1 3 5
M  V30 5 1 5 6
M  V30 6 2 6 7
M  V30 7 1 7 8
M  V30 8 1 8 9
M  V30 9 1 9 10
M  V30 10 2 10 11
M  V30 11 1 11 12
M  V30 12 2 12 13
M  V30 13 1 13 14
M  V30 14 1 14 15
M  V30 15 2 15 16
M  V30 16 1 16 17
M  V30 17 1 17 18
M  V30 18 1 18 19
M  V30 19 1 19 20
M  V30 20 1 17 21
M  V30 21 2 21 22
M  V30 22 1 22 23
M  V30 23 2 23 24
M  V30 24 1 24 25
M  V30 25 2 25 26
M  V30 26 2 14 27
M  V30 27 2 8 28
M  V30 28 1 28 29
M  V30 29 1 29 30
M  V30 30 1 28 31
M  V30 31 2 31 32
M  V30 32 1 32 33
M  V30 33 1 33 34
M  V30 34 1 33 35
M  V30 35 1 35 36
M  V30 36 1 36 37
M  V30 37 1 37 38
M  V30 38 1 37 39
M  V30 39 1 32 6
M  V30 40 1 27 10
M  V30 41 1 26 15
M  V30 42 1 20 18
M  V30 43 1 26 21
M  V30 44 1 1 40
M  V30 45 1 1 41
M  V30 46 1 2 42
M  V30 47 1 5 43
M  V30 48 1 7 44
M  V30 49 1 9 45
M  V30 50 1 12 46
M  V30 51 1 13 47
M  V30 52 1 16 48
M  V30 53 1 18 49
M  V30 54 1 19 50
M  V30 55 1 19 51
M  V30 56 1 20 52
M  V30 57 1 20 53
M  V30 58 1 22 54
M  V30 59 1 23 55
M  V30 60 1 24 56
M  V30 61 1 25 57
M  V30 62 1 30 58
M  V30 63 1 30 59
M  V30 64 1 30 60
M  V30 65 1 31 61
M  V30 66 1 34 62
M  V30 67 1 34 63
M  V30 68 1 34 64
M  V30 69 1 35 65
M  V30 70 1 35 66
M  V30 71 1 36 67
M  V30 72 1 36 68
M  V30 73 1 38 69
M  V30 74 1 38 70
M  V30 75 1 38 71
M  V30 76 1 39 72
M  V30 77 1 39 73
M  V30 78 1 39 74
M  V30 END BOND
M  V30 END CTAB
M  END
>  <Dataset>  (29) 
PKIs

>  <Ligand_Instance>  (29) 
nan

>  <PDB_ID>  (29) 
nan

>  <Standardized_SMILES>  (29) 
C=CC(=O)Nc1cc(Nc2nccc(-c3cn(C4CC4)c4ccccc34)n2)c(OC)cc1N(C)CCN(C)C

>  <Name>  (29) 
Aumolertinib

>  <Pocket>  (29) 
nan

>  <ATP_Site>  (29) 
nan

>  <Peripheral>  (29) 
nan

>  <Num_H_Atoms_ProtBoundConf>  (29) 
nan

>  <Num_Resolved_Atoms>  (29) 
nan

>  <Num_Not_Resolved_Atoms>  (29) 
nan

$$$$
nan
     RDKit          3D

  0  0  0  0  0  0  0  0  0  0999 V3000
M  V30 BEGIN CTAB
M  V30 COUNTS 57 60 0 0 0
M  V30 BEGIN ATOM
M  V30 1 C 2.450574 -4.295142 2.963575 0
M  V30 2 C 3.016050 -3.270803 2.355420 0
M  V30 3 C 2.469736 -3.015762 1.027587 0
M  V30 4 O 1.564054 -3.846203 0.755221 0
M  V30 5 N 3.153144 -1.890726 0.466279 0
M  V30 6 C 4.229079 -1.002889 0.940636 0
M  V30 7 C 3.594294 0.374638 0.892949 0
M  V30 8 C 3.458541 0.758015 -0.562611 0
M  V30 9 C 2.201881 1.542665 -0.691632 0
M  V30 10 C 2.188050 2.843864 -1.147419 0
M  V30 11 C 1.022971 3.565376 -1.263985 0
M  V30 12 C -0.110219 2.881656 -0.890383 0
M  V30 13 C -1.380270 3.573662 -0.956328 0
M  V30 14 N -1.449243 4.924720 -1.427688 0
M  V30 15 O -2.617961 3.598435 -0.789230 0
M  V30 16 C -0.146905 1.586134 -0.431718 0
M  V30 17 C -1.303424 0.805854 -0.015435 0
M  V30 18 C -1.124611 0.191772 1.230450 0
M  V30 19 C -2.074146 -0.609981 1.827714 0
M  V30 20 C -3.267953 -0.827417 1.175062 0
M  V30 21 O -4.281864 -1.618352 1.697495 0
M  V30 22 C -4.382250 -2.976258 1.462970 0
M  V30 23 C -5.129586 -3.322169 0.343079 0
M  V30 24 C -5.340896 -4.622111 -0.050614 0
M  V30 25 C -4.764346 -5.621032 0.732234 0
M  V30 26 C -4.013153 -5.311808 1.855502 0
M  V30 27 C -3.821222 -3.987478 2.222221 0
M  V30 28 C -3.454561 -0.229346 -0.049891 0
M  V30 29 C -2.507549 0.565774 -0.638353 0
M  V30 30 N 1.053206 0.953482 -0.349965 0
M  V30 31 C 3.316749 -0.434589 -1.480266 0
M  V30 32 C 2.628450 -1.611127 -0.858382 0
M  V30 33 H 1.781443 -5.145705 3.126803 0
M  V30 34 H 2.370793 -4.944930 3.826128 0
M  V30 35 H 3.752074 -2.914396 3.067012 0
M  V30 36 H 5.015766 -1.015919 0.158491 0
M  V30 37 H 4.601235 -1.290377 1.926359 0
M  V30 38 H 2.576610 0.362552 1.330446 0
M  V30 39 H 4.222826 1.138825 1.392863 0
M  V30 40 H 4.348254 1.354384 -0.853881 0
M  V30 41 H 3.117257 3.341601 -1.431721 0
M  V30 42 H 0.938170 4.583709 -1.611837 0
M  V30 43 H -1.374571 5.827972 -0.890994 0
M  V30 44 H -1.588255 5.283511 -2.420085 0
M  V30 45 H -0.209299 0.300863 1.833166 0
M  V30 46 H -1.921353 -1.077411 2.790597 0
M  V30 47 H -5.601611 -2.581970 -0.302447 0
M  V30 48 H -5.915203 -4.909811 -0.912618 0
M  V30 49 H -4.921788 -6.655180 0.434998 0
M  V30 50 H -3.567794 -6.090047 2.459583 0
M  V30 51 H -3.251078 -3.667379 3.080144 0
M  V30 52 H -4.381213 -0.378879 -0.591380 0
M  V30 53 H -2.599766 1.040350 -1.588890 0
M  V30 54 H 4.335498 -0.728935 -1.786601 0
M  V30 55 H 2.767681 -0.117637 -2.392826 0
M  V30 56 H 1.541817 -1.401097 -0.815072 0
M  V30 57 H 2.847902 -2.500705 -1.481643 0
M  V30 END ATOM
M  V30 BEGIN BOND
M  V30 1 2 1 2
M  V30 2 1 2 3
M  V30 3 2 3 4
M  V30 4 1 3 5
M  V30 5 1 5 6
M  V30 6 1 6 7
M  V30 7 1 7 8
M  V30 8 1 8 9
M  V30 9 2 9 10
M  V30 10 1 10 11
M  V30 11 2 11 12
M  V30 12 1 12 13
M  V30 13 1 13 14
M  V30 14 2 13 15
M  V30 15 1 12 16
M  V30 16 1 16 17
M  V30 17 2 17 18
M  V30 18 1 18 19
M  V30 19 2 19 20
M  V30 20 1 20 21
M  V30 21 1 21 22
M  V30 22 2 22 23
M  V30 23 1 23 24
M  V30 24 2 24 25
M  V30 25 1 25 26
M  V30 26 2 26 27
M  V30 27 1 20 28
M  V30 28 2 28 29
M  V30 29 2 16 30
M  V30 30 1 8 31
M  V30 31 1 31 32
M  V30 32 1 32 5
M  V30 33 1 30 9
M  V30 34 1 29 17
M  V30 35 1 27 22
M  V30 36 1 1 33
M  V30 37 1 1 34
M  V30 38 1 2 35
M  V30 39 1 6 36
M  V30 40 1 6 37
M  V30 41 1 7 38
M  V30 42 1 7 39
M  V30 43 1 8 40
M  V30 44 1 10 41
M  V30 45 1 11 42
M  V30 46 1 14 43
M  V30 47 1 14 44
M  V30 48 1 18 45
M  V30 49 1 19 46
M  V30 50 1 23 47
M  V30 51 1 24 48
M  V30 52 1 25 49
M  V30 53 1 26 50
M  V30 54 1 27 51
M  V30 55 1 28 52
M  V30 56 1 29 53
M  V30 57 1 31 54
M  V30 58 1 31 55
M  V30 59 1 32 56
M  V30 60 1 32 57
M  V30 END BOND
M  V30 END CTAB
M  END
>  <Dataset>  (30) 
PKIs

>  <Ligand_Instance>  (30) 
nan

>  <PDB_ID>  (30) 
nan

>  <Standardized_SMILES>  (30) 
C=CC(=O)N1CCC(c2ccc(C(N)=O)c(-c3ccc(Oc4ccccc4)cc3)n2)CC1

>  <Name>  (30) 
Orelabrutinib

>  <Pocket>  (30) 
nan

>  <ATP_Site>  (30) 
nan

>  <Peripheral>  (30) 
nan

>  <Num_H_Atoms_ProtBoundConf>  (30) 
nan

>  <Num_Resolved_Atoms>  (30) 
nan

>  <Num_Not_Resolved_Atoms>  (30) 
nan

$$$$
nan
     RDKit          3D

  0  0  0  0  0  0  0  0  0  0999 V3000
M  V30 BEGIN CTAB
M  V30 COUNTS 53 57 0 0 0
M  V30 BEGIN ATOM
M  V30 1 O 1.319444 -4.640261 -0.749856 0
M  V30 2 C 0.105135 -4.600857 -1.122718 0
M  V30 3 N -0.567636 -3.722529 -2.004794 0
M  V30 4 C 0.291479 -2.730310 -2.545369 0
M  V30 5 N 1.090222 -2.556812 -3.600839 0
M  V30 6 C 1.660724 -1.325264 -3.537281 0
M  V30 7 C 2.557031 -0.738873 -4.432601 0
M  V30 8 C 2.948038 0.539379 -4.068630 0
M  V30 9 C 2.494347 1.162605 -2.936468 0
M  V30 10 C 1.607254 0.509639 -2.103939 0
M  V30 11 C 1.085809 1.112435 -0.886876 0
M  V30 12 C 1.848023 1.794198 0.038381 0
M  V30 13 C 1.284126 2.340290 1.171484 0
M  V30 14 C -0.057563 2.241210 1.448292 0
M  V30 15 C -0.770604 2.780225 2.629750 0
M  V30 16 N -0.834340 1.823951 3.650713 0
M  V30 17 C 0.347936 1.310842 4.219818 0
M  V30 18 C 0.310906 -0.206834 3.979190 0
M  V30 19 S -1.374252 -0.764245 3.880197 0
M  V30 20 O -1.521507 -2.104815 4.542569 0
M  V30 21 O -1.727429 -0.895333 2.405370 0
M  V30 22 C -2.477519 0.408923 4.628170 0
M  V30 23 C -1.970767 1.827213 4.493435 0
M  V30 24 C -0.783668 1.539907 0.476961 0
M  V30 25 C -0.269964 0.975167 -0.671884 0
M  V30 26 N 1.191959 -0.734005 -2.406373 0
M  V30 27 N 0.363926 -1.596914 -1.816276 0
M  V30 28 C -0.572723 -5.729916 -0.423038 0
M  V30 29 C -1.963111 -5.352423 0.164609 0
M  V30 30 C -1.788079 -6.352688 -0.960549 0
M  V30 31 H -1.603046 -3.860716 -2.187270 0
M  V30 32 H 2.870589 -1.289715 -5.303712 0
M  V30 33 H 3.653238 1.029228 -4.751974 0
M  V30 34 H 2.832125 2.152421 -2.706448 0
M  V30 35 H 2.906722 1.891809 -0.146015 0
M  V30 36 H 1.891243 2.871822 1.879456 0
M  V30 37 H -0.396588 3.780457 2.926272 0
M  V30 38 H -1.831617 2.974695 2.295323 0
M  V30 39 H 1.282767 1.733695 3.870152 0
M  V30 40 H 0.379761 1.410850 5.347511 0
M  V30 41 H 0.783436 -0.755293 4.838218 0
M  V30 42 H 0.886252 -0.478120 3.067866 0
M  V30 43 H -3.453920 0.399291 4.062513 0
M  V30 44 H -2.682623 0.122429 5.681015 0
M  V30 45 H -2.752969 2.556131 4.220296 0
M  V30 46 H -1.633901 2.116820 5.530644 0
M  V30 47 H -1.849388 1.430771 0.643806 0
M  V30 48 H -0.930166 0.456979 -1.348261 0
M  V30 49 H 0.082141 -6.322193 0.228192 0
M  V30 50 H -2.363409 -4.361040 -0.108465 0
M  V30 51 H -2.145296 -5.715494 1.181571 0
M  V30 52 H -2.168875 -6.072323 -1.954650 0
M  V30 53 H -1.997604 -7.400390 -0.659885 0
M  V30 END ATOM
M  V30 BEGIN BOND
M  V30 1 2 1 2
M  V30 2 1 2 3
M  V30 3 1 3 4
M  V30 4 1 4 5
M  V30 5 2 5 6
M  V30 6 1 6 7
M  V30 7 2 7 8
M  V30 8 1 8 9
M  V30 9 2 9 10
M  V30 10 1 10 11
M  V30 11 2 11 12
M  V30 12 1 12 13
M  V30 13 2 13 14
M  V30 14 1 14 15
M  V30 15 1 15 16
M  V30 16 1 16 17
M  V30 17 1 17 18
M  V30 18 1 18 19
M  V30 19 2 19 20
M  V30 20 2 19 21
M  V30 21 1 19 22
M  V30 22 1 22 23
M  V30 23 1 14 24
M  V30 24 2 24 25
M  V30 25 1 10 26
M  V30 26 1 26 27
M  V30 27 1 2 28
M  V30 28 1 28 29
M  V30 29 1 29 30
M  V30 30 2 27 4
M  V30 31 1 30 28
M  V30 32 1 26 6
M  V30 33 1 25 11
M  V30 34 1 23 16
M  V30 35 1 3 31
M  V30 36 1 7 32
M  V30 37 1 8 33
M  V30 38 1 9 34
M  V30 39 1 12 35
M  V30 40 1 13 36
M  V30 41 1 15 37
M  V30 42 1 15 38
M  V30 43 1 17 39
M  V30 44 1 17 40
M  V30 45 1 18 41
M  V30 46 1 18 42
M  V30 47 1 22 43
M  V30 48 1 22 44
M  V30 49 1 23 45
M  V30 50 1 23 46
M  V30 51 1 24 47
M  V30 52 1 25 48
M  V30 53 1 28 49
M  V30 54 1 29 50
M  V30 55 1 29 51
M  V30 56 1 30 52
M  V30 57 1 30 53
M  V30 END BOND
M  V30 END CTAB
M  END
>  <Dataset>  (31) 
PKIs

>  <Ligand_Instance>  (31) 
nan

>  <PDB_ID>  (31) 
nan

>  <Standardized_SMILES>  (31) 
O=C(Nc1nc2cccc(-c3ccc(CN4CCS(=O)(=O)CC4)cc3)n2n1)C1CC1

>  <Name>  (31) 
Filgotinib

>  <Pocket>  (31) 
nan

>  <ATP_Site>  (31) 
nan

>  <Peripheral>  (31) 
nan

>  <Num_H_Atoms_ProtBoundConf>  (31) 
nan

>  <Num_Resolved_Atoms>  (31) 
nan

>  <Num_Not_Resolved_Atoms>  (31) 
nan

$$$$
nan
     RDKit          3D

  0  0  0  0  0  0  0  0  0  0999 V3000
M  V30 BEGIN CTAB
M  V30 COUNTS 60 65 0 0 0
M  V30 BEGIN ATOM
M  V30 1 C -0.540968 -3.879287 2.064906 0
M  V30 2 C 0.713470 -3.237801 1.663893 0
M  V30 3 C 1.058149 -2.139953 2.422532 0
M  V30 4 C 2.213481 -1.412226 2.188071 0
M  V30 5 N 2.672735 -0.282227 2.929061 0
M  V30 6 C 3.528729 0.637769 2.257648 0
M  V30 7 N 4.834232 0.530387 1.970477 0
M  V30 8 C 5.494149 1.524662 1.326178 0
M  V30 9 N 4.776797 2.605491 0.998237 0
M  V30 10 C 3.485335 2.798090 1.242092 0
M  V30 11 C 2.830019 3.973966 0.862826 0
M  V30 12 C 1.487713 4.133104 1.146149 0
M  V30 13 C 0.789782 3.151523 1.795310 0
M  V30 14 N -0.608468 3.196809 2.153511 0
M  V30 15 C -1.698265 2.683506 1.409346 0
M  V30 16 N -1.490115 1.706313 0.580284 0
M  V30 17 C -2.723614 1.333103 -0.073611 0
M  V30 18 C -3.239874 -0.001818 0.454773 0
M  V30 19 C -2.606680 1.230180 -1.569743 0
M  V30 20 C -3.707388 2.388582 0.355971 0
M  V30 21 O -3.029411 3.055001 1.401604 0
M  V30 22 C 1.465695 2.008981 2.152749 0
M  V30 23 C 2.794186 1.773959 1.908074 0
M  V30 24 C 2.987895 -1.890946 1.122862 0
M  V30 25 C 2.704667 -2.980545 0.324623 0
M  V30 26 C 1.538555 -3.652663 0.618223 0
M  V30 27 O 1.190511 -4.759424 -0.140439 0
M  V30 28 C 0.047405 -4.782943 -0.921194 0
M  V30 29 C -0.739172 -3.631816 -1.063413 0
M  V30 30 C -1.912285 -3.543436 -1.826611 0
M  V30 31 N -2.290350 -4.670049 -2.463104 0
M  V30 32 N -3.356334 -4.833319 -3.240631 0
M  V30 33 C -3.366581 -6.102500 -3.679239 0
M  V30 34 N -2.266180 -6.706234 -3.137739 0
M  V30 35 C -1.586439 -5.828568 -2.378901 0
M  V30 36 C -0.443457 -5.860411 -1.616990 0
M  V30 37 H -0.662142 -3.906504 3.186324 0
M  V30 38 H -0.670862 -4.902095 1.728751 0
M  V30 39 H -1.461240 -3.311886 1.723138 0
M  V30 40 H 0.470632 -1.741885 3.263035 0
M  V30 41 H 2.320640 -0.257979 3.906438 0
M  V30 42 H 6.547003 1.371724 1.127592 0
M  V30 43 H 3.355481 4.760463 0.351906 0
M  V30 44 H 0.936121 5.016110 0.878073 0
M  V30 45 H -0.830008 3.670604 3.082287 0
M  V30 46 H -2.799474 -0.203200 1.457849 0
M  V30 47 H -3.010477 -0.850089 -0.206846 0
M  V30 48 H -4.336620 0.063935 0.523760 0
M  V30 49 H -3.038341 0.256388 -1.937124 0
M  V30 50 H -3.148270 2.041260 -2.094781 0
M  V30 51 H -1.555127 1.247527 -1.941889 0
M  V30 52 H -3.902405 3.028026 -0.523486 0
M  V30 53 H -4.666213 1.931085 0.730554 0
M  V30 54 H 0.950741 1.221279 2.662917 0
M  V30 55 H 3.926167 -1.370960 0.866500 0
M  V30 56 H 3.354949 -3.275155 -0.470819 0
M  V30 57 H -0.440916 -2.703155 -0.553548 0
M  V30 58 H -2.434598 -2.594004 -1.860495 0
M  V30 59 H -4.085551 -6.582755 -4.329143 0
M  V30 60 H 0.129261 -6.788958 -1.543905 0
M  V30 END ATOM
M  V30 BEGIN BOND
M  V30 1 1 1 2
M  V30 2 2 2 3
M  V30 3 1 3 4
M  V30 4 1 4 5
M  V30 5 1 5 6
M  V30 6 2 6 7
M  V30 7 1 7 8
M  V30 8 2 8 9
M  V30 9 1 9 10
M  V30 10 2 10 11
M  V30 11 1 11 12
M  V30 12 2 12 13
M  V30 13 1 13 14
M  V30 14 1 14 15
M  V30 15 2 15 16
M  V30 16 1 16 17
M  V30 17 1 17 18
M  V30 18 1 17 19
M  V30 19 1 17 20
M  V30 20 1 20 21
M  V30 21 1 13 22
M  V30 22 2 22 23
M  V30 23 2 4 24
M  V30 24 1 24 25
M  V30 25 2 25 26
M  V30 26 1 26 27
M  V30 27 1 27 28
M  V30 28 1 28 29
M  V30 29 2 29 30
M  V30 30 1 30 31
M  V30 31 1 31 32
M  V30 32 2 32 33
M  V30 33 1 33 34
M  V30 34 2 34 35
M  V30 35 1 35 36
M  V30 36 1 26 2
M  V30 37 2 36 28
M  V30 38 1 23 6
M  V30 39 1 35 31
M  V30 40 1 23 10
M  V30 41 1 21 15
M  V30 42 1 1 37
M  V30 43 1 1 38
M  V30 44 1 1 39
M  V30 45 1 3 40
M  V30 46 1 5 41
M  V30 47 1 8 42
M  V30 48 1 11 43
M  V30 49 1 12 44
M  V30 50 1 14 45
M  V30 51 1 18 46
M  V30 52 1 18 47
M  V30 53 1 18 48
M  V30 54 1 19 49
M  V30 55 1 19 50
M  V30 56 1 19 51
M  V30 57 1 20 52
M  V30 58 1 20 53
M  V30 59 1 22 54
M  V30 60 1 24 55
M  V30 61 1 25 56
M  V30 62 1 29 57
M  V30 63 1 30 58
M  V30 64 1 33 59
M  V30 65 1 36 60
M  V30 END BOND
M  V30 END CTAB
M  END
>  <Dataset>  (32) 
PKIs

>  <Ligand_Instance>  (32) 
nan

>  <PDB_ID>  (32) 
nan

>  <Standardized_SMILES>  (32) 
Cc1cc(Nc2ncnc3ccc(NC4=NC(C)(C)CO4)cc23)ccc1Oc1ccn2ncnc2c1

>  <Name>  (32) 
Tucatinib

>  <Pocket>  (32) 
nan

>  <ATP_Site>  (32) 
nan

>  <Peripheral>  (32) 
nan

>  <Num_H_Atoms_ProtBoundConf>  (32) 
nan

>  <Num_Resolved_Atoms>  (32) 
nan

>  <Num_Not_Resolved_Atoms>  (32) 
nan

$$$$
nan
     RDKit          3D

  0  0  0  0  0  0  0  0  0  0999 V3000
M  V30 BEGIN CTAB
M  V30 COUNTS 73 77 0 0 0
M  V30 BEGIN ATOM
M  V30 1 C 1.380015 0.580674 6.613181 0
M  V30 2 C 1.778133 -0.499467 5.619146 0
M  V30 3 O 1.273364 -0.242658 4.339288 0
M  V30 4 C 1.511711 -1.089648 3.266399 0
M  V30 5 C 2.222934 -2.264259 3.204786 0
M  V30 6 C 2.314959 -2.932186 1.997228 0
M  V30 7 N 3.032780 -4.089695 1.988476 0
M  V30 8 C 3.150449 -4.782868 0.819209 0
M  V30 9 C 2.557252 -4.335591 -0.351540 0
M  V30 10 C 2.667037 -5.059326 -1.580593 0
M  V30 11 N 2.739276 -5.663509 -2.588245 0
M  V30 12 C 1.842896 -3.146966 -0.259504 0
M  V30 13 N 1.234455 -2.717693 -1.497134 0
M  V30 14 C -0.028211 -3.274871 -1.760193 0
M  V30 15 C -0.796349 -2.936653 -2.851644 0
M  V30 16 C -2.026977 -3.437264 -3.183710 0
M  V30 17 C -2.563080 -4.393412 -2.324445 0
M  V30 18 O -3.811330 -5.025245 -2.494285 0
M  V30 19 C -4.514521 -4.589853 -3.663881 0
M  V30 20 C -5.825396 -5.272674 -3.809197 0
M  V30 21 C -6.297524 -6.053528 -2.740476 0
M  V30 22 C -7.513067 -6.667748 -2.891062 0
M  V30 23 C -8.251277 -6.517061 -4.068327 0
M  V30 24 C -7.695401 -5.725258 -5.059474 0
M  V30 25 N -6.487345 -5.077954 -4.992577 0
M  V30 26 C -1.875555 -4.808795 -1.192596 0
M  V30 27 Cl -2.531025 -6.014866 -0.090052 0
M  V30 28 C -0.643026 -4.224210 -0.973813 0
M  V30 29 C 1.690569 -2.404842 0.891132 0
M  V30 30 C 0.966657 -1.233208 0.900755 0
M  V30 31 C 0.899590 -0.586083 2.144160 0
M  V30 32 N 0.137288 0.642918 2.059103 0
M  V30 33 C 1.060429 1.695327 1.845733 0
M  V30 34 O 2.283786 1.447826 1.767650 0
M  V30 35 C 0.527460 3.071908 1.720503 0
M  V30 36 C 1.446200 4.019690 1.539770 0
M  V30 37 C 1.398191 5.472134 1.371567 0 CFG=1
M  V30 38 C 2.489759 6.224709 2.073428 0
M  V30 39 C 3.727348 5.937988 1.247819 0
M  V30 40 C 3.181685 5.556464 -0.106560 0
M  V30 41 N 1.746085 5.722372 -0.040188 0
M  V30 42 C 1.309932 7.003297 -0.499839 0
M  V30 43 H 1.873376 1.532543 6.339603 0
M  V30 44 H 1.720895 0.338802 7.623864 0
M  V30 45 H 0.289809 0.764461 6.613150 0
M  V30 46 H 1.460435 -1.475481 6.043990 0
M  V30 47 H 2.884550 -0.530905 5.602919 0
M  V30 48 H 2.649490 -2.554559 4.133980 0
M  V30 49 H 3.707821 -5.705087 0.750042 0
M  V30 50 H 1.618140 -2.047674 -2.217997 0
M  V30 51 H -0.432655 -2.189864 -3.574305 0
M  V30 52 H -2.613204 -3.166389 -4.042938 0
M  V30 53 H -3.888561 -4.683917 -4.562826 0
M  V30 54 H -4.726712 -3.491327 -3.511908 0
M  V30 55 H -5.659451 -6.112165 -1.860555 0
M  V30 56 H -7.881312 -7.269913 -2.075148 0
M  V30 57 H -9.215880 -6.995517 -4.202542 0
M  V30 58 H -8.266248 -5.615515 -5.960128 0
M  V30 59 H -0.134655 -4.573931 -0.073177 0
M  V30 60 H 0.493111 -0.870599 -0.004424 0
M  V30 61 H -0.892458 0.836365 2.129297 0
M  V30 62 H -0.421369 3.528493 1.695620 0
M  V30 63 H 2.516106 3.745833 1.485911 0
M  V30 64 H 0.389183 5.924977 1.533353 0
M  V30 65 H 2.229094 7.303933 2.040303 0
M  V30 66 H 2.613469 5.958143 3.135823 0
M  V30 67 H 4.378726 6.819069 1.127601 0
M  V30 68 H 4.341798 5.127296 1.685114 0
M  V30 69 H 3.352566 4.461056 -0.252728 0
M  V30 70 H 3.625673 6.104895 -0.947777 0
M  V30 71 H 0.861692 6.852418 -1.524872 0
M  V30 72 H 0.497574 7.462679 0.106553 0
M  V30 73 H 2.159575 7.708336 -0.662675 0
M  V30 END ATOM
M  V30 BEGIN BOND
M  V30 1 1 1 2
M  V30 2 1 2 3
M  V30 3 1 3 4
M  V30 4 2 4 5
M  V30 5 1 5 6
M  V30 6 2 6 7
M  V30 7 1 7 8
M  V30 8 2 8 9
M  V30 9 1 9 10
M  V30 10 3 10 11
M  V30 11 1 9 12
M  V30 12 1 12 13
M  V30 13 1 13 14
M  V30 14 2 14 15
M  V30 15 1 15 16
M  V30 16 2 16 17
M  V30 17 1 17 18
M  V30 18 1 18 19
M  V30 19 1 19 20
M  V30 20 2 20 21
M  V30 21 1 21 22
M  V30 22 2 22 23
M  V30 23 1 23 24
M  V30 24 2 24 25
M  V30 25 1 17 26
M  V30 26 1 26 27
M  V30 27 2 26 28
M  V30 28 2 12 29
M  V30 29 1 29 30
M  V30 30 2 30 31
M  V30 31 1 31 32
M  V30 32 1 32 33
M  V30 33 2 33 34
M  V30 34 1 33 35
M  V30 35 2 35 36
M  V30 36 1 36 37
M  V30 37 1 37 38
M  V30 38 1 38 39
M  V30 39 1 39 40
M  V30 40 1 40 41
M  V30 41 1 41 42
M  V30 42 1 31 4
M  V30 43 1 41 37
M  V30 44 1 29 6
M  V30 45 1 28 14
M  V30 46 1 25 20
M  V30 47 1 1 43
M  V30 48 1 1 44
M  V30 49 1 1 45
M  V30 50 1 2 46
M  V30 51 1 2 47
M  V30 52 1 5 48
M  V30 53 1 8 49
M  V30 54 1 13 50
M  V30 55 1 15 51
M  V30 56 1 16 52
M  V30 57 1 19 53
M  V30 58 1 19 54
M  V30 59 1 21 55
M  V30 60 1 22 56
M  V30 61 1 23 57
M  V30 62 1 24 58
M  V30 63 1 28 59
M  V30 64 1 30 60
M  V30 65 1 32 61
M  V30 66 1 35 62
M  V30 67 1 36 63
M  V30 68 1 37 64 CFG=1
M  V30 69 1 38 65
M  V30 70 1 38 66
M  V30 71 1 39 67
M  V30 72 1 39 68
M  V30 73 1 40 69
M  V30 74 1 40 70
M  V30 75 1 42 71
M  V30 76 1 42 72
M  V30 77 1 42 73
M  V30 END BOND
M  V30 END CTAB
M  END
>  <Dataset>  (33) 
PKIs

>  <Ligand_Instance>  (33) 
nan

>  <PDB_ID>  (33) 
nan

>  <Standardized_SMILES>  (33) 
CCOc1cc2ncc(C#N)c(Nc3ccc(OCc4ccccn4)c(Cl)c3)c2cc1NC(=O)/C=C/[C@H]1CCCN1C

>  <Name>  (33) 
Pyrotinib

>  <Pocket>  (33) 
nan

>  <ATP_Site>  (33) 
nan

>  <Peripheral>  (33) 
nan

>  <Num_H_Atoms_ProtBoundConf>  (33) 
nan

>  <Num_Resolved_Atoms>  (33) 
nan

>  <Num_Not_Resolved_Atoms>  (33) 
nan

$$$$
nan
     RDKit          3D

  0  0  0  0  0  0  0  0  0  0999 V3000
M  V30 BEGIN CTAB
M  V30 COUNTS 71 75 0 0 0
M  V30 BEGIN ATOM
M  V30 1 C -2.909543 -1.653408 0.331013 0
M  V30 2 O -2.038056 -0.641639 0.561963 0
M  V30 3 C -1.260857 -0.174012 -0.452306 0 CFG=2
M  V30 4 C -2.111453 0.373131 -1.532273 0
M  V30 5 O -3.385514 0.481473 -1.556714 0
M  V30 6 N -1.617312 0.891621 -2.785180 0
M  V30 7 C -2.398072 1.429354 -3.862985 0 CFG=1
M  V30 8 C -2.025453 2.807636 -4.298506 0
M  V30 9 C -2.389509 0.489174 -5.049476 0
M  V30 10 C -1.239296 -0.145815 -5.517186 0
M  V30 11 C -1.453200 -0.959753 -6.630715 0
M  V30 12 C -2.643912 -1.181448 -7.280054 0
M  V30 13 N -2.718216 -2.037218 -8.404631 0
M  V30 14 C -2.535777 -1.822108 -9.742969 0
M  V30 15 C -2.753273 -3.065388 -10.358522 0
M  V30 16 F -2.627853 -3.108154 -11.710114 0
M  V30 17 C -3.051918 -3.946765 -9.364763 0
M  V30 18 N -3.026412 -3.309512 -8.185119 0
M  V30 19 N -3.710870 -0.542589 -6.782374 0
M  V30 20 C -3.616199 0.278925 -5.694390 0
M  V30 21 C -0.242193 -1.139126 -0.984840 0
M  V30 22 C 0.983704 -1.209304 -0.089311 0
M  V30 23 C 0.565401 -0.948634 1.347352 0 CFG=1
M  V30 24 C 1.639161 -1.212408 2.334105 0
M  V30 25 N 1.718958 -2.438259 2.878027 0
M  V30 26 C 2.637938 -2.785541 3.788144 0
M  V30 27 C 2.590305 -4.167457 4.281760 0
M  V30 28 C 3.571437 -1.873643 4.223112 0
M  V30 29 C 3.510687 -0.592881 3.673198 0
M  V30 30 N 4.449485 0.428420 4.077103 0
M  V30 31 C 3.767527 0.993228 5.215264 0
M  V30 32 C 3.879676 0.633836 6.558071 0
M  V30 33 C 3.059644 1.411661 7.346347 0
M  V30 34 C 2.884327 1.354135 8.812389 0
M  V30 35 N 2.449514 2.245826 6.473880 0
M  V30 36 N 2.856256 2.005768 5.242069 0
M  V30 37 N 2.552467 -0.312661 2.755864 0
M  V30 38 C 0.176963 0.499903 1.449740 0
M  V30 39 C -0.450198 0.991246 0.148637 0
M  V30 40 H -3.691810 -1.480129 -0.430760 0
M  V30 41 H -2.443907 -2.648137 0.193072 0
M  V30 42 H -3.504330 -1.778134 1.291462 0
M  V30 43 H -0.564243 0.882913 -2.942152 0
M  V30 44 H -3.452905 1.450237 -3.504005 0
M  V30 45 H -2.926574 3.454773 -4.254898 0
M  V30 46 H -1.725655 2.850454 -5.377992 0
M  V30 47 H -1.181879 3.195084 -3.711892 0
M  V30 48 H -0.312422 0.030468 -5.015093 0
M  V30 49 H -0.523042 -1.443863 -6.973245 0
M  V30 50 H -2.274405 -0.816959 -10.106305 0
M  V30 51 H -3.263023 -4.980079 -9.627331 0
M  V30 52 H -4.550102 0.736531 -5.383296 0
M  V30 53 H 0.096121 -0.768198 -1.972798 0
M  V30 54 H -0.651833 -2.157629 -1.179545 0
M  V30 55 H 1.705153 -0.430646 -0.376775 0
M  V30 56 H 1.451667 -2.193680 -0.235951 0
M  V30 57 H -0.246172 -1.668307 1.600714 0
M  V30 58 H 2.274834 -4.897259 3.505667 0
M  V30 59 H 1.891023 -4.287206 5.143704 0
M  V30 60 H 3.592943 -4.511426 4.656575 0
M  V30 61 H 4.304136 -2.133153 4.946735 0
M  V30 62 H 5.390387 0.755105 3.722547 0
M  V30 63 H 4.532681 -0.154210 6.893363 0
M  V30 64 H 2.235243 0.473042 9.054601 0
M  V30 65 H 3.863181 1.196085 9.342581 0
M  V30 66 H 2.423393 2.245276 9.235176 0
M  V30 67 H 1.738957 2.989383 6.757258 0
M  V30 68 H -0.498233 0.665839 2.308820 0
M  V30 69 H 1.120651 1.053124 1.659993 0
M  V30 70 H -1.092989 1.845215 0.382029 0
M  V30 71 H 0.379361 1.188325 -0.551818 0
M  V30 END ATOM
M  V30 BEGIN BOND
M  V30 1 1 1 2
M  V30 2 1 3 2 CFG=1
M  V30 3 1 3 4
M  V30 4 2 4 5
M  V30 5 1 4 6
M  V30 6 1 6 7
M  V30 7 1 7 8
M  V30 8 1 7 9
M  V30 9 2 9 10
M  V30 10 1 10 11
M  V30 11 2 11 12
M  V30 12 1 12 13
M  V30 13 1 13 14
M  V30 14 2 14 15
M  V30 15 1 15 16
M  V30 16 1 15 17
M  V30 17 2 17 18
M  V30 18 1 12 19
M  V30 19 2 19 20
M  V30 20 1 3 21
M  V30 21 1 21 22
M  V30 22 1 22 23
M  V30 23 1 23 24
M  V30 24 2 24 25
M  V30 25 1 25 26
M  V30 26 1 26 27
M  V30 27 2 26 28
M  V30 28 1 28 29
M  V30 29 1 29 30
M  V30 30 1 30 31
M  V30 31 1 31 32
M  V30 32 2 32 33
M  V30 33 1 33 34
M  V30 34 1 33 35
M  V30 35 1 35 36
M  V30 36 2 29 37
M  V30 37 1 23 38
M  V30 38 1 38 39
M  V30 39 1 39 3
M  V30 40 1 20 9
M  V30 41 1 37 24
M  V30 42 1 18 13
M  V30 43 2 36 31
M  V30 44 1 1 40
M  V30 45 1 1 41
M  V30 46 1 1 42
M  V30 47 1 6 43
M  V30 48 1 7 44 CFG=1
M  V30 49 1 8 45
M  V30 50 1 8 46
M  V30 51 1 8 47
M  V30 52 1 10 48
M  V30 53 1 11 49
M  V30 54 1 14 50
M  V30 55 1 17 51
M  V30 56 1 20 52
M  V30 57 1 21 53
M  V30 58 1 21 54
M  V30 59 1 22 55
M  V30 60 1 22 56
M  V30 61 1 23 57 CFG=1
M  V30 62 1 27 58
M  V30 63 1 27 59
M  V30 64 1 27 60
M  V30 65 1 28 61
M  V30 66 1 30 62
M  V30 67 1 32 63
M  V30 68 1 34 64
M  V30 69 1 34 65
M  V30 70 1 34 66
M  V30 71 1 35 67
M  V30 72 1 38 68
M  V30 73 1 38 69
M  V30 74 1 39 70
M  V30 75 1 39 71
M  V30 END BOND
M  V30 END CTAB
M  END
>  <Dataset>  (34) 
PKIs

>  <Ligand_Instance>  (34) 
nan

>  <PDB_ID>  (34) 
nan

>  <Standardized_SMILES>  (34) 
CO[C@]1(C(=O)N[C@@H](C)c2ccc(-n3cc(F)cn3)nc2)CC[C@@H](c2nc(C)cc(Nc3cc(C)[nH]n3)n2)CC1

>  <Name>  (34) 
Pralsetinib

>  <Pocket>  (34) 
nan

>  <ATP_Site>  (34) 
nan

>  <Peripheral>  (34) 
nan

>  <Num_H_Atoms_ProtBoundConf>  (34) 
nan

>  <Num_Resolved_Atoms>  (34) 
nan

>  <Num_Not_Resolved_Atoms>  (34) 
nan

$$$$
nan
     RDKit          3D

  0  0  0  0  0  0  0  0  0  0999 V3000
M  V30 BEGIN CTAB
M  V30 COUNTS 56 60 0 0 0
M  V30 BEGIN ATOM
M  V30 1 C 6.761762 -4.224372 0.973617 0
M  V30 2 C 6.268958 -2.883542 1.341057 0
M  V30 3 C 5.852596 -1.797199 1.629535 0
M  V30 4 C 5.341882 -0.509815 1.990161 0
M  V30 5 O 5.504350 0.020122 3.125312 0
M  V30 6 N 4.597067 0.287138 1.078498 0
M  V30 7 C 4.052738 1.596960 1.379466 0
M  V30 8 C 3.647109 2.112736 0.043085 0
M  V30 9 C 3.340311 0.949687 -0.813750 0
M  V30 10 N 1.968003 0.545259 -0.848597 0
M  V30 11 C 0.864556 0.898501 -0.171892 0
M  V30 12 O 0.889222 1.761034 0.717328 0
M  V30 13 N -0.221977 0.221870 -0.569921 0
M  V30 14 C -1.547307 0.362755 -0.051542 0
M  V30 15 C -1.573889 -0.001767 1.297772 0
M  V30 16 C -2.777559 0.061365 2.004836 0
M  V30 17 C -3.928773 0.484612 1.358457 0
M  V30 18 O -5.102378 0.536406 2.083405 0
M  V30 19 C -5.925250 -0.573483 2.129718 0
M  V30 20 C -7.114593 -0.550926 2.852389 0
M  V30 21 C -7.931687 -1.682698 2.886375 0
M  V30 22 C -7.605618 -2.837249 2.225342 0
M  V30 23 C -6.426817 -2.875448 1.502699 0
M  V30 24 C -5.633663 -1.748276 1.481200 0
M  V30 25 C -3.857286 0.834335 0.028083 0
M  V30 26 C -2.675495 0.778035 -0.686776 0
M  V30 27 C 0.226505 -0.596746 -1.546267 0
M  V30 28 C -0.509773 -1.503595 -2.281799 0
M  V30 29 N -1.905401 -1.736763 -2.132335 0
M  V30 30 N 0.161873 -2.229017 -3.224037 0
M  V30 31 C 1.491887 -2.047571 -3.408846 0
M  V30 32 N 2.175746 -1.157072 -2.675582 0
M  V30 33 C 1.581045 -0.412548 -1.735077 0
M  V30 34 C 4.283127 -0.106398 -0.274847 0
M  V30 35 H 7.881658 -4.197678 1.067845 0
M  V30 36 H 6.466474 -4.483853 -0.063249 0
M  V30 37 H 6.341292 -4.995825 1.667205 0
M  V30 38 H 3.240838 1.429970 2.102719 0
M  V30 39 H 4.805556 2.234201 1.887439 0
M  V30 40 H 4.561779 2.610454 -0.389089 0
M  V30 41 H 2.887170 2.915149 0.063858 0
M  V30 42 H 3.686613 1.146431 -1.868652 0
M  V30 43 H -0.739403 -0.345762 1.901982 0
M  V30 44 H -2.844572 -0.210953 3.049654 0
M  V30 45 H -7.390171 0.351858 3.381649 0
M  V30 46 H -8.843493 -1.609765 3.462885 0
M  V30 47 H -8.245778 -3.717646 2.254478 0
M  V30 48 H -6.169442 -3.787670 0.980650 0
M  V30 49 H -4.715158 -1.825995 0.898817 0
M  V30 50 H -4.732664 1.166270 -0.500530 0
M  V30 51 H -2.536574 1.030198 -1.713975 0
M  V30 52 H -1.868882 -2.252023 -1.223105 0
M  V30 53 H -2.237706 -2.263958 -1.270955 0
M  V30 54 H 1.967880 -2.652236 -4.170618 0
M  V30 55 H 3.665774 -1.049683 -0.205272 0
M  V30 56 H 5.171045 -0.273678 -0.897957 0
M  V30 END ATOM
M  V30 BEGIN BOND
M  V30 1 1 1 2
M  V30 2 3 2 3
M  V30 3 1 3 4
M  V30 4 2 4 5
M  V30 5 1 4 6
M  V30 6 1 6 7
M  V30 7 1 7 8
M  V30 8 1 8 9
M  V30 9 1 9 10
M  V30 10 1 10 11
M  V30 11 2 11 12
M  V30 12 1 11 13
M  V30 13 1 13 14
M  V30 14 2 14 15
M  V30 15 1 15 16
M  V30 16 2 16 17
M  V30 17 1 17 18
M  V30 18 1 18 19
M  V30 19 2 19 20
M  V30 20 1 20 21
M  V30 21 2 21 22
M  V30 22 1 22 23
M  V30 23 2 23 24
M  V30 24 1 17 25
M  V30 25 2 25 26
M  V30 26 1 13 27
M  V30 27 2 27 28
M  V30 28 1 28 29
M  V30 29 1 28 30
M  V30 30 2 30 31
M  V30 31 1 31 32
M  V30 32 2 32 33
M  V30 33 1 9 34
M  V30 34 1 34 6
M  V30 35 1 33 10
M  V30 36 1 26 14
M  V30 37 1 33 27
M  V30 38 1 24 19
M  V30 39 1 1 35
M  V30 40 1 1 36
M  V30 41 1 1 37
M  V30 42 1 7 38
M  V30 43 1 7 39
M  V30 44 1 8 40
M  V30 45 1 8 41
M  V30 46 1 9 42
M  V30 47 1 15 43
M  V30 48 1 16 44
M  V30 49 1 20 45
M  V30 50 1 21 46
M  V30 51 1 22 47
M  V30 52 1 23 48
M  V30 53 1 24 49
M  V30 54 1 25 50
M  V30 55 1 26 51
M  V30 56 1 29 52
M  V30 57 1 29 53
M  V30 58 1 31 54
M  V30 59 1 34 55
M  V30 60 1 34 56
M  V30 END BOND
M  V30 END CTAB
M  END
>  <Dataset>  (35) 
PKIs

>  <Ligand_Instance>  (35) 
nan

>  <PDB_ID>  (35) 
nan

>  <Standardized_SMILES>  (35) 
CC#CC(=O)N1CCC(n2c(=O)n(-c3ccc(Oc4ccccc4)cc3)c3c(N)ncnc32)C1

>  <Name>  (35) 
Tirabrutinib

>  <Pocket>  (35) 
nan

>  <ATP_Site>  (35) 
nan

>  <Peripheral>  (35) 
nan

>  <Num_H_Atoms_ProtBoundConf>  (35) 
nan

>  <Num_Resolved_Atoms>  (35) 
nan

>  <Num_Not_Resolved_Atoms>  (35) 
nan

$$$$
nan
     RDKit          3D

  0  0  0  0  0  0  0  0  0  0999 V3000
M  V30 BEGIN CTAB
M  V30 COUNTS 42 44 0 0 0
M  V30 BEGIN ATOM
M  V30 1 C 3.023546 -5.148626 -0.299439 0
M  V30 2 N 2.715538 -4.030013 -1.198998 0
M  V30 3 C 3.223327 -3.907943 -2.435912 0
M  V30 4 N 2.731861 -2.779840 -2.962485 0
M  V30 5 C 1.915760 -2.161172 -2.101616 0
M  V30 6 C 1.132066 -1.002213 -2.054719 0
M  V30 7 F 1.233650 -0.337445 -3.242472 0
M  V30 8 C 0.379410 -0.678168 -0.916639 0
M  V30 9 N -0.307279 0.532715 -1.087158 0
M  V30 10 C -0.328255 1.904409 -0.752690 0
M  V30 11 C -1.483743 2.376898 -0.133618 0
M  V30 12 C -1.682244 3.674052 0.276914 0
M  V30 13 C -0.618662 4.511586 0.025279 0
M  V30 14 Br -0.812291 6.333840 0.567113 0
M  V30 15 C 0.569374 4.161476 -0.577348 0
M  V30 16 C 0.663207 2.839078 -0.948549 0
M  V30 17 Cl 2.153041 2.339380 -1.701753 0
M  V30 18 C 0.435070 -1.538792 0.154240 0
M  V30 19 C -0.367560 -1.161917 1.301049 0
M  V30 20 O -1.145499 -0.239542 1.626839 0
M  V30 21 N -0.367531 -1.983626 2.460495 0
M  V30 22 O -1.097624 -1.683474 3.564109 0
M  V30 23 C -0.279178 -0.902426 4.378598 0
M  V30 24 C -0.988350 -0.492070 5.653800 0
M  V30 25 O -2.131679 0.249383 5.392771 0
M  V30 26 C 1.172846 -2.678415 0.176668 0
M  V30 27 C 1.898314 -2.960141 -0.959928 0
M  V30 28 H 3.984311 -4.977223 0.236844 0
M  V30 29 H 2.247582 -5.223823 0.503557 0
M  V30 30 H 3.055913 -6.100888 -0.843311 0
M  V30 31 H 3.904731 -4.584043 -2.933990 0
M  V30 32 H -1.132781 0.304494 -1.719986 0
M  V30 33 H -2.317830 1.685668 0.054621 0
M  V30 34 H -2.593745 4.002267 0.754168 0
M  V30 35 H 1.373390 4.849154 -0.754148 0
M  V30 36 H 0.177285 -2.889056 2.598814 0
M  V30 37 H 0.033076 0.045126 3.895941 0
M  V30 38 H 0.653465 -1.441119 4.642023 0
M  V30 39 H -0.290598 0.138210 6.236812 0
M  V30 40 H -1.194958 -1.393409 6.258269 0
M  V30 41 H -2.905185 -0.086509 5.908748 0
M  V30 42 H 1.233121 -3.358388 0.988798 0
M  V30 END ATOM
M  V30 BEGIN BOND
M  V30 1 1 1 2
M  V30 2 1 2 3
M  V30 3 2 3 4
M  V30 4 1 4 5
M  V30 5 2 5 6
M  V30 6 1 6 7
M  V30 7 1 6 8
M  V30 8 1 8 9
M  V30 9 1 9 10
M  V30 10 2 10 11
M  V30 11 1 11 12
M  V30 12 2 12 13
M  V30 13 1 13 14
M  V30 14 1 13 15
M  V30 15 2 15 16
M  V30 16 1 16 17
M  V30 17 2 8 18
M  V30 18 1 18 19
M  V30 19 2 19 20
M  V30 20 1 19 21
M  V30 21 1 21 22
M  V30 22 1 22 23
M  V30 23 1 23 24
M  V30 24 1 24 25
M  V30 25 1 18 26
M  V30 26 2 26 27
M  V30 27 1 27 2
M  V30 28 1 27 5
M  V30 29 1 16 10
M  V30 30 1 1 28
M  V30 31 1 1 29
M  V30 32 1 1 30
M  V30 33 1 3 31
M  V30 34 1 9 32
M  V30 35 1 11 33
M  V30 36 1 12 34
M  V30 37 1 15 35
M  V30 38 1 21 36
M  V30 39 1 23 37
M  V30 40 1 23 38
M  V30 41 1 24 39
M  V30 42 1 24 40
M  V30 43 1 25 41
M  V30 44 1 26 42
M  V30 END BOND
M  V30 END CTAB
M  END
>  <Dataset>  (36) 
PKIs

>  <Ligand_Instance>  (36) 
nan

>  <PDB_ID>  (36) 
nan

>  <Standardized_SMILES>  (36) 
Cn1cnc2c(F)c(Nc3ccc(Br)cc3Cl)c(C(=O)NOCCO)cc21

>  <Name>  (36) 
Selumetinib

>  <Pocket>  (36) 
nan

>  <ATP_Site>  (36) 
nan

>  <Peripheral>  (36) 
nan

>  <Num_H_Atoms_ProtBoundConf>  (36) 
nan

>  <Num_Resolved_Atoms>  (36) 
nan

>  <Num_Not_Resolved_Atoms>  (36) 
nan

$$$$
nan
     RDKit          3D

  0  0  0  0  0  0  0  0  0  0999 V3000
M  V30 BEGIN CTAB
M  V30 COUNTS 70 75 0 0 0
M  V30 BEGIN ATOM
M  V30 1 C 3.589960 9.443802 1.992641 0
M  V30 2 O 2.274847 9.437386 1.552883 0
M  V30 3 C 1.539338 8.253268 1.269933 0
M  V30 4 C 0.256207 8.094075 0.779273 0
M  V30 5 C -0.188038 6.804368 0.632407 0
M  V30 6 C 0.523848 5.633204 0.929310 0
M  V30 7 C -0.133878 4.376164 0.728786 0
M  V30 8 N 0.238353 3.456536 -0.271743 0
M  V30 9 C 1.300852 2.535870 0.026954 0
M  V30 10 C 0.256424 1.706913 0.745885 0
M  V30 11 C -0.657453 2.290983 -0.315999 0
M  V30 12 C -0.425435 1.509840 -1.629484 0
M  V30 13 N 0.790685 0.708208 -1.401069 0
M  V30 14 C 0.732357 -0.719284 -1.328087 0
M  V30 15 C -0.323259 -1.349035 -1.934430 0
M  V30 16 C -0.422900 -2.685376 -1.638923 0
M  V30 17 C 0.455240 -3.341867 -0.810911 0
M  V30 18 C 0.459257 -4.651777 -0.205255 0
M  V30 19 C -0.760737 -4.795974 0.469096 0
M  V30 20 C -1.132320 -5.852970 1.260114 0
M  V30 21 O -2.140755 -6.351993 2.013977 0
M  V30 22 C -3.422710 -5.896876 2.255345 0
M  V30 23 C -4.400420 -5.910566 1.135003 0
M  V30 24 C -4.766321 -7.370909 0.823102 0
M  V30 25 C -4.049784 -5.204601 -0.119367 0
M  V30 26 O -5.615684 -5.338500 1.617964 0
M  V30 27 C -0.130050 -6.860844 1.362579 0
M  V30 28 N 1.078593 -6.732618 0.698824 0
M  V30 29 N 2.170786 -7.507914 0.609016 0
M  V30 30 C 3.083587 -6.916068 -0.191637 0
M  V30 31 C 2.584746 -5.706222 -0.655773 0
M  V30 32 C 3.200586 -4.796095 -1.563975 0
M  V30 33 N 3.694857 -4.043813 -2.324669 0
M  V30 34 C 1.353095 -5.662131 -0.062666 0
M  V30 35 C 1.525497 -2.649847 -0.226384 0
M  V30 36 N 1.653123 -1.312332 -0.500477 0
M  V30 37 C 1.732209 1.804700 -1.253914 0
M  V30 38 C 1.800834 5.875159 1.413089 0
M  V30 39 N 2.230820 7.134347 1.553434 0
M  V30 40 H 3.648128 9.565386 3.114673 0
M  V30 41 H 4.174731 10.309905 1.614852 0
M  V30 42 H 4.146181 8.517113 1.687945 0
M  V30 43 H -0.253726 9.021179 0.569761 0
M  V30 44 H -1.215170 6.766320 0.239070 0
M  V30 45 H -1.267473 4.547249 0.654791 0
M  V30 46 H -0.087498 3.828678 1.736352 0
M  V30 47 H 2.154295 2.842079 0.589306 0
M  V30 48 H 0.267143 0.628592 0.633147 0
M  V30 49 H 0.084759 1.948301 1.783444 0
M  V30 50 H -1.690847 2.446017 -0.037190 0
M  V30 51 H -0.368550 2.222547 -2.431151 0
M  V30 52 H -1.297357 0.836198 -1.705447 0
M  V30 53 H -1.052038 -0.922024 -2.598136 0
M  V30 54 H -1.172686 -3.377210 -2.002724 0
M  V30 55 H -1.592371 -4.115552 0.515079 0
M  V30 56 H -3.893748 -6.529945 3.073504 0
M  V30 57 H -3.421045 -4.829863 2.674054 0
M  V30 58 H -4.409769 -7.582892 -0.209793 0
M  V30 59 H -4.331207 -7.997563 1.586966 0
M  V30 60 H -5.875629 -7.476196 0.780324 0
M  V30 61 H -3.206311 -5.659939 -0.674117 0
M  V30 62 H -3.948806 -4.128615 0.070361 0
M  V30 63 H -4.911003 -5.264907 -0.865717 0
M  V30 64 H -5.380541 -4.405624 1.944674 0
M  V30 65 H -0.121791 -7.799994 1.920075 0
M  V30 66 H 4.045569 -7.341759 -0.412152 0
M  V30 67 H 2.319571 -2.962778 0.443455 0
M  V30 68 H 1.805500 2.454707 -2.124856 0
M  V30 69 H 2.764094 1.398075 -1.063660 0
M  V30 70 H 2.413008 5.020978 1.676765 0
M  V30 END ATOM
M  V30 BEGIN BOND
M  V30 1 1 1 2
M  V30 2 1 2 3
M  V30 3 2 3 4
M  V30 4 1 4 5
M  V30 5 2 5 6
M  V30 6 1 6 7
M  V30 7 1 7 8
M  V30 8 1 8 9
M  V30 9 1 9 10
M  V30 10 1 10 11
M  V30 11 1 11 12
M  V30 12 1 12 13
M  V30 13 1 13 14
M  V30 14 2 14 15
M  V30 15 1 15 16
M  V30 16 2 16 17
M  V30 17 1 17 18
M  V30 18 2 18 19
M  V30 19 1 19 20
M  V30 20 1 20 21
M  V30 21 1 21 22
M  V30 22 1 22 23
M  V30 23 1 23 24
M  V30 24 1 23 25
M  V30 25 1 23 26
M  V30 26 2 20 27
M  V30 27 1 27 28
M  V30 28 1 28 29
M  V30 29 2 29 30
M  V30 30 1 30 31
M  V30 31 1 31 32
M  V30 32 3 32 33
M  V30 33 2 31 34
M  V30 34 1 17 35
M  V30 35 2 35 36
M  V30 36 1 13 37
M  V30 37 1 6 38
M  V30 38 2 38 39
M  V30 39 1 39 3
M  V30 40 1 11 8
M  V30 41 1 36 14
M  V30 42 1 37 9
M  V30 43 1 34 18
M  V30 44 1 34 28
M  V30 45 1 1 40
M  V30 46 1 1 41
M  V30 47 1 1 42
M  V30 48 1 4 43
M  V30 49 1 5 44
M  V30 50 1 7 45
M  V30 51 1 7 46
M  V30 52 1 9 47
M  V30 53 1 10 48
M  V30 54 1 10 49
M  V30 55 1 11 50
M  V30 56 1 12 51
M  V30 57 1 12 52
M  V30 58 1 15 53
M  V30 59 1 16 54
M  V30 60 1 19 55
M  V30 61 1 22 56
M  V30 62 1 22 57
M  V30 63 1 24 58
M  V30 64 1 24 59
M  V30 65 1 24 60
M  V30 66 1 25 61
M  V30 67 1 25 62
M  V30 68 1 25 63
M  V30 69 1 26 64
M  V30 70 1 27 65
M  V30 71 1 30 66
M  V30 72 1 35 67
M  V30 73 1 37 68
M  V30 74 1 37 69
M  V30 75 1 38 70
M  V30 END BOND
M  V30 END CTAB
M  END
>  <Dataset>  (37) 
PKIs

>  <Ligand_Instance>  (37) 
nan

>  <PDB_ID>  (37) 
nan

>  <Standardized_SMILES>  (37) 
COc1ccc(CN2C3CC2CN(c2ccc(-c4cc(OCC(C)(C)O)cn5ncc(C#N)c45)cn2)C3)cn1

>  <Name>  (37) 
Selpercatinib

>  <Pocket>  (37) 
nan

>  <ATP_Site>  (37) 
nan

>  <Peripheral>  (37) 
nan

>  <Num_H_Atoms_ProtBoundConf>  (37) 
nan

>  <Num_Resolved_Atoms>  (37) 
nan

>  <Num_Not_Resolved_Atoms>  (37) 
nan

$$$$
nan
     RDKit          3D

  0  0  0  0  0  0  0  0  0  0999 V3000
M  V30 BEGIN CTAB
M  V30 COUNTS 54 57 0 0 0
M  V30 BEGIN ATOM
M  V30 1 C -2.188472 -3.530419 3.416148 0
M  V30 2 C -2.314128 -2.859298 2.073018 0
M  V30 3 N -1.186924 -3.088688 1.194236 0
M  V30 4 C -0.146711 -2.202184 1.217811 0
M  V30 5 O -0.238696 -1.229055 2.012804 0
M  V30 6 C 1.002060 -2.264095 0.454797 0
M  V30 7 C 2.031401 -1.237203 0.591475 0
M  V30 8 C 1.896258 -0.145452 -0.241766 0
M  V30 9 C 2.855883 0.853070 -0.141711 0
M  V30 10 N 2.694817 1.986667 -1.023416 0
M  V30 11 C 1.896878 3.014327 -0.412983 0
M  V30 12 O 1.529242 2.666595 0.759298 0
M  V30 13 N 1.565145 4.248017 -1.034231 0
M  V30 14 C 0.767441 5.221176 -0.365201 0
M  V30 15 C 1.201571 6.250825 0.449109 0
M  V30 16 C 0.286251 7.106903 1.019845 0
M  V30 17 C -1.076541 6.958788 0.794399 0
M  V30 18 C -1.516238 5.936235 -0.015011 0
M  V30 19 C -0.598999 5.071546 -0.592095 0
M  V30 20 C 3.919352 0.805546 0.736298 0
M  V30 21 F 4.835850 1.816585 0.793704 0
M  V30 22 C 4.015500 -0.314623 1.557393 0
M  V30 23 C 3.078423 -1.322179 1.481285 0
M  V30 24 Br 3.188644 -2.863804 2.593713 0
M  V30 25 C 1.112932 -3.326796 -0.419786 0
M  V30 26 C 0.087582 -4.247650 -0.478274 0
M  V30 27 C 0.175707 -5.320421 -1.341524 0
M  V30 28 N -0.829928 -6.222971 -1.393459 0
M  V30 29 C -1.937131 -6.092627 -0.603673 0
M  V30 30 N -2.998593 -7.068084 -0.675434 0
M  V30 31 C -4.174156 -6.916246 0.173268 0
M  V30 32 C -2.043621 -5.026306 0.266060 0
M  V30 33 C -1.022852 -4.102191 0.324291 0
M  V30 34 H -3.203019 -3.528646 3.870713 0
M  V30 35 H -1.556353 -2.913522 4.104978 0
M  V30 36 H -1.866586 -4.582078 3.359214 0
M  V30 37 H -3.242960 -3.184327 1.598793 0
M  V30 38 H -2.349571 -1.750738 2.276445 0
M  V30 39 H 1.075558 -0.042021 -0.963716 0
M  V30 40 H 3.054800 2.173565 -2.004641 0
M  V30 41 H 1.937867 4.404272 -2.009728 0
M  V30 42 H 2.279943 6.299421 0.575655 0
M  V30 43 H 0.685919 7.901362 1.653538 0
M  V30 44 H -1.772037 7.652940 1.261066 0
M  V30 45 H -2.587150 5.848145 -0.170786 0
M  V30 46 H -1.029145 4.283501 -1.223478 0
M  V30 47 H 4.836942 -0.395669 2.265047 0
M  V30 48 H 2.006432 -3.386030 -1.021892 0
M  V30 49 H 1.041832 -5.447719 -1.978331 0
M  V30 50 H -2.885496 -7.861706 -1.343912 0
M  V30 51 H -3.938050 -7.033487 1.253324 0
M  V30 52 H -4.923016 -7.647444 -0.187643 0
M  V30 53 H -4.611850 -5.884566 0.066543 0
M  V30 54 H -2.931048 -4.984691 0.857122 0
M  V30 END ATOM
M  V30 BEGIN BOND
M  V30 1 1 1 2
M  V30 2 1 2 3
M  V30 3 1 3 4
M  V30 4 2 4 5
M  V30 5 1 4 6
M  V30 6 1 6 7
M  V30 7 2 7 8
M  V30 8 1 8 9
M  V30 9 1 9 10
M  V30 10 1 10 11
M  V30 11 2 11 12
M  V30 12 1 11 13
M  V30 13 1 13 14
M  V30 14 2 14 15
M  V30 15 1 15 16
M  V30 16 2 16 17
M  V30 17 1 17 18
M  V30 18 2 18 19
M  V30 19 2 9 20
M  V30 20 1 20 21
M  V30 21 1 20 22
M  V30 22 2 22 23
M  V30 23 1 23 24
M  V30 24 2 6 25
M  V30 25 1 25 26
M  V30 26 2 26 27
M  V30 27 1 27 28
M  V30 28 2 28 29
M  V30 29 1 29 30
M  V30 30 1 30 31
M  V30 31 1 29 32
M  V30 32 2 32 33
M  V30 33 1 33 3
M  V30 34 1 23 7
M  V30 35 1 33 26
M  V30 36 1 19 14
M  V30 37 1 1 34
M  V30 38 1 1 35
M  V30 39 1 1 36
M  V30 40 1 2 37
M  V30 41 1 2 38
M  V30 42 1 8 39
M  V30 43 1 10 40
M  V30 44 1 13 41
M  V30 45 1 15 42
M  V30 46 1 16 43
M  V30 47 1 17 44
M  V30 48 1 18 45
M  V30 49 1 19 46
M  V30 50 1 22 47
M  V30 51 1 25 48
M  V30 52 1 27 49
M  V30 53 1 30 50
M  V30 54 1 31 51
M  V30 55 1 31 52
M  V30 56 1 31 53
M  V30 57 1 32 54
M  V30 END BOND
M  V30 END CTAB
M  END
>  <Dataset>  (38) 
PKIs

>  <Ligand_Instance>  (38) 
nan

>  <PDB_ID>  (38) 
nan

>  <Standardized_SMILES>  (38) 
CCn1c(=O)c(-c2cc(NC(=O)Nc3ccccc3)c(F)cc2Br)cc2cnc(NC)cc21

>  <Name>  (38) 
Ripretinib

>  <Pocket>  (38) 
nan

>  <ATP_Site>  (38) 
nan

>  <Peripheral>  (38) 
nan

>  <Num_H_Atoms_ProtBoundConf>  (38) 
nan

>  <Num_Resolved_Atoms>  (38) 
nan

>  <Num_Not_Resolved_Atoms>  (38) 
nan

$$$$
nan
     RDKit          3D

  0  0  0  0  0  0  0  0  0  0999 V3000
M  V30 BEGIN CTAB
M  V30 COUNTS 62 66 0 0 0
M  V30 BEGIN ATOM
M  V30 1 C 0.941437 -2.878030 2.109697 0
M  V30 2 C -0.306876 -2.037990 2.411517 0
M  V30 3 N -0.476348 -0.926504 1.551414 0
M  V30 4 C 0.093727 0.355442 1.896190 0
M  V30 5 O 0.763167 0.495562 2.978613 0
M  V30 6 N -0.008210 1.543359 1.131139 0
M  V30 7 C 0.601784 2.755182 1.541696 0
M  V30 8 C 1.906940 3.064833 1.153513 0
M  V30 9 F 2.615330 2.196403 0.369503 0
M  V30 10 C 2.516212 4.241893 1.543344 0
M  V30 11 O 3.804057 4.494525 1.131110 0
M  V30 12 C 4.485312 5.683882 1.496824 0
M  V30 13 C 1.763786 5.085728 2.332502 0
M  V30 14 C 0.468904 4.798278 2.728531 0
M  V30 15 O -0.280688 5.654623 3.522996 0
M  V30 16 C 0.282566 6.877788 3.958447 0
M  V30 17 C -0.133145 3.620947 2.335544 0
M  V30 18 F -1.381635 3.306258 2.696756 0
M  V30 19 C -0.735560 1.558448 -0.089453 0
M  V30 20 C -1.314459 0.255618 -0.469689 0
M  V30 21 C -1.991826 0.270792 -1.661274 0
M  V30 22 N -2.565188 -0.887049 -2.101757 0
M  V30 23 C -2.449415 -2.021928 -1.349631 0
M  V30 24 N -2.933680 -3.246188 -1.622291 0
M  V30 25 C -2.539692 -4.031131 -0.569125 0
M  V30 26 C -2.939679 -5.486924 -0.587460 0
M  V30 27 N -1.971253 -6.306913 -1.246605 0
M  V30 28 C -1.787789 -5.893273 -2.644338 0
M  V30 29 C -0.785469 -6.829691 -3.281587 0
M  V30 30 O 0.439515 -6.647288 -2.634370 0
M  V30 31 C 0.340669 -7.057201 -1.301346 0
M  V30 32 C -0.651794 -6.127872 -0.635998 0
M  V30 33 C -1.824645 -3.237624 0.307365 0
M  V30 34 C -1.763988 -1.964559 -0.179332 0
M  V30 35 C -1.159496 -0.846950 0.336744 0
M  V30 36 H 1.874108 -2.400176 2.397893 0
M  V30 37 H 0.806623 -3.909680 2.466759 0
M  V30 38 H 0.976248 -2.926180 0.981171 0
M  V30 39 H -1.154390 -2.563387 2.816726 0
M  V30 40 H 0.056992 -1.538426 3.395872 0
M  V30 41 H 4.135708 6.555224 0.919438 0
M  V30 42 H 4.273540 5.923859 2.575479 0
M  V30 43 H 5.578388 5.569289 1.377134 0
M  V30 44 H 2.233537 6.006102 2.640136 0
M  V30 45 H 1.036730 6.625665 4.736030 0
M  V30 46 H 0.760123 7.352321 3.062971 0
M  V30 47 H -0.470158 7.593024 4.308068 0
M  V30 48 H -1.555336 2.308251 -0.111912 0
M  V30 49 H -0.010905 1.812801 -0.918365 0
M  V30 50 H -2.104566 1.146642 -2.283598 0
M  V30 51 H -3.494407 -3.500538 -2.481044 0
M  V30 52 H -3.925273 -5.593171 -1.030655 0
M  V30 53 H -3.007135 -5.844209 0.461539 0
M  V30 54 H -1.284393 -4.904315 -2.592829 0
M  V30 55 H -2.750902 -5.886470 -3.174852 0
M  V30 56 H -1.071842 -7.880295 -3.273085 0
M  V30 57 H -0.609452 -6.464370 -4.328996 0
M  V30 58 H 1.335791 -6.860607 -0.851608 0
M  V30 59 H 0.072732 -8.120637 -1.206364 0
M  V30 60 H -0.339756 -5.098147 -0.944121 0
M  V30 61 H -0.692793 -6.269405 0.455858 0
M  V30 62 H -1.492966 -3.787853 1.126872 0
M  V30 END ATOM
M  V30 BEGIN BOND
M  V30 1 1 1 2
M  V30 2 1 2 3
M  V30 3 1 3 4
M  V30 4 2 4 5
M  V30 5 1 4 6
M  V30 6 1 6 7
M  V30 7 2 7 8
M  V30 8 1 8 9
M  V30 9 1 8 10
M  V30 10 1 10 11
M  V30 11 1 11 12
M  V30 12 2 10 13
M  V30 13 1 13 14
M  V30 14 1 14 15
M  V30 15 1 15 16
M  V30 16 2 14 17
M  V30 17 1 17 18
M  V30 18 1 6 19
M  V30 19 1 19 20
M  V30 20 2 20 21
M  V30 21 1 21 22
M  V30 22 2 22 23
M  V30 23 1 23 24
M  V30 24 1 24 25
M  V30 25 1 25 26
M  V30 26 1 26 27
M  V30 27 1 27 28
M  V30 28 1 28 29
M  V30 29 1 29 30
M  V30 30 1 30 31
M  V30 31 1 31 32
M  V30 32 2 25 33
M  V30 33 1 33 34
M  V30 34 2 34 35
M  V30 35 1 35 3
M  V30 36 1 17 7
M  V30 37 1 35 20
M  V30 38 1 34 23
M  V30 39 1 32 27
M  V30 40 1 1 36
M  V30 41 1 1 37
M  V30 42 1 1 38
M  V30 43 1 2 39
M  V30 44 1 2 40
M  V30 45 1 12 41
M  V30 46 1 12 42
M  V30 47 1 12 43
M  V30 48 1 13 44
M  V30 49 1 16 45
M  V30 50 1 16 46
M  V30 51 1 16 47
M  V30 52 1 19 48
M  V30 53 1 19 49
M  V30 54 1 21 50
M  V30 55 1 24 51
M  V30 56 1 26 52
M  V30 57 1 26 53
M  V30 58 1 28 54
M  V30 59 1 28 55
M  V30 60 1 29 56
M  V30 61 1 29 57
M  V30 62 1 31 58
M  V30 63 1 31 59
M  V30 64 1 32 60
M  V30 65 1 32 61
M  V30 66 1 33 62
M  V30 END BOND
M  V30 END CTAB
M  END
>  <Dataset>  (39) 
PKIs

>  <Ligand_Instance>  (39) 
nan

>  <PDB_ID>  (39) 
nan

>  <Standardized_SMILES>  (39) 
CCN1C(=O)N(c2c(F)c(OC)cc(OC)c2F)Cc2cnc3[nH]c(CN4CCOCC4)cc3c21

>  <Name>  (39) 
Pemigatinib

>  <Pocket>  (39) 
nan

>  <ATP_Site>  (39) 
nan

>  <Peripheral>  (39) 
nan

>  <Num_H_Atoms_ProtBoundConf>  (39) 
nan

>  <Num_Resolved_Atoms>  (39) 
nan

>  <Num_Not_Resolved_Atoms>  (39) 
nan

$$$$
nan
     RDKit          3D

  0  0  0  0  0  0  0  0  0  0999 V3000
M  V30 BEGIN CTAB
M  V30 COUNTS 64 69 0 0 0
M  V30 BEGIN ATOM
M  V30 1 C 5.277216 -1.664832 5.184365 0
M  V30 2 N 5.087560 -1.261915 3.788635 0
M  V30 3 C 4.307517 -0.235722 3.396475 0
M  V30 4 C 4.365667 -0.147198 2.019216 0
M  V30 5 C 3.710334 0.783267 1.101735 0
M  V30 6 C 2.480042 1.398175 1.225229 0
M  V30 7 C 2.216806 2.208158 0.143162 0
M  V30 8 C 1.114434 2.985400 -0.135161 0
M  V30 9 N -0.019905 3.157675 0.707173 0
M  V30 10 C -1.219495 3.699702 0.083509 0
M  V30 11 C -2.377020 2.751496 0.292670 0
M  V30 12 N -1.867841 1.574028 0.965518 0
M  V30 13 C -1.902816 0.259731 0.425223 0
M  V30 14 N -2.428867 0.034670 -0.792003 0
M  V30 15 C -2.455875 -1.231427 -1.304418 0
M  V30 16 C -1.937342 -2.261802 -0.553887 0
M  V30 17 C -1.946029 -3.648446 -1.073127 0 CFG=1
M  V30 18 C -1.175833 -3.740014 -2.377190 0
M  V30 19 N -1.315521 -4.573441 -0.161881 0
M  V30 20 C -3.352634 -4.098724 -1.226782 0
M  V30 21 C -4.095380 -4.189889 -0.072748 0
M  V30 22 C -5.405531 -4.601875 -0.147661 0
M  V30 23 C -5.903780 -4.905006 -1.408361 0
M  V30 24 F -7.200583 -5.312012 -1.484028 0
M  V30 25 C -5.130192 -4.802443 -2.547169 0
M  V30 26 C -3.817476 -4.391757 -2.488399 0
M  V30 27 C -1.402686 -2.031568 0.684029 0
M  V30 28 N -1.409986 -0.763345 1.123387 0
M  V30 29 C -1.275154 1.783961 2.298210 0
M  V30 30 C -0.336971 2.949769 2.103807 0
M  V30 31 N 1.160452 3.649124 -1.286874 0
M  V30 32 C 2.213663 3.549850 -2.093353 0
M  V30 33 N 3.266705 2.777716 -1.776059 0
M  V30 34 N 3.294532 2.086607 -0.648677 0
M  V30 35 C 4.199818 1.248296 -0.108309 0
M  V30 36 C 5.223674 -1.178478 1.619838 0
M  V30 37 N 5.644857 -1.836315 2.715084 0
M  V30 38 H 4.519575 -2.454161 5.465049 0
M  V30 39 H 6.260873 -2.139672 5.305064 0
M  V30 40 H 5.083054 -0.807282 5.842844 0
M  V30 41 H 3.704844 0.451137 3.994283 0
M  V30 42 H 1.879585 1.195249 2.090945 0
M  V30 43 H -1.106078 3.831104 -1.009327 0
M  V30 44 H -1.472804 4.696807 0.492612 0
M  V30 45 H -3.097853 3.226177 1.011474 0
M  V30 46 H -2.882744 2.466262 -0.650382 0
M  V30 47 H -2.876587 -1.438203 -2.287353 0
M  V30 48 H -1.379252 -2.911854 -3.059990 0
M  V30 49 H -0.085571 -3.713821 -2.092139 0
M  V30 50 H -1.324365 -4.736620 -2.814681 0
M  V30 51 H -1.685739 -5.532072 -0.181637 0
M  V30 52 H -0.293363 -4.491427 -0.085622 0
M  V30 53 H -3.682148 -3.948497 0.891177 0
M  V30 54 H -5.981076 -4.672462 0.749018 0
M  V30 55 H -5.538660 -5.043951 -3.522540 0
M  V30 56 H -3.244745 -4.323097 -3.390830 0
M  V30 57 H -0.976420 -2.779291 1.336015 0
M  V30 58 H -0.650201 0.915616 2.589901 0
M  V30 59 H -2.008365 2.048289 3.059684 0
M  V30 60 H -0.900467 3.865502 2.470510 0
M  V30 61 H 0.547260 2.936889 2.774451 0
M  V30 62 H 2.188906 4.118916 -3.020887 0
M  V30 63 H 5.153566 1.001636 -0.580709 0
M  V30 64 H 5.472881 -1.367974 0.565604 0
M  V30 END ATOM
M  V30 BEGIN BOND
M  V30 1 1 1 2
M  V30 2 1 2 3
M  V30 3 2 3 4
M  V30 4 1 4 5
M  V30 5 1 5 6
M  V30 6 2 6 7
M  V30 7 1 7 8
M  V30 8 1 8 9
M  V30 9 1 9 10
M  V30 10 1 10 11
M  V30 11 1 11 12
M  V30 12 1 12 13
M  V30 13 2 13 14
M  V30 14 1 14 15
M  V30 15 2 15 16
M  V30 16 1 16 17
M  V30 17 1 17 18
M  V30 18 1 17 19 CFG=1
M  V30 19 1 17 20
M  V30 20 2 20 21
M  V30 21 1 21 22
M  V30 22 2 22 23
M  V30 23 1 23 24
M  V30 24 1 23 25
M  V30 25 2 25 26
M  V30 26 1 16 27
M  V30 27 2 27 28
M  V30 28 1 12 29
M  V30 29 1 29 30
M  V30 30 2 8 31
M  V30 31 1 31 32
M  V30 32 2 32 33
M  V30 33 1 33 34
M  V30 34 1 34 35
M  V30 35 1 4 36
M  V30 36 2 36 37
M  V30 37 1 37 2
M  V30 38 2 35 5
M  V30 39 1 34 7
M  V30 40 1 30 9
M  V30 41 1 28 13
M  V30 42 1 26 20
M  V30 43 1 1 38
M  V30 44 1 1 39
M  V30 45 1 1 40
M  V30 46 1 3 41
M  V30 47 1 6 42
M  V30 48 1 10 43
M  V30 49 1 10 44
M  V30 50 1 11 45
M  V30 51 1 11 46
M  V30 52 1 15 47
M  V30 53 1 18 48
M  V30 54 1 18 49
M  V30 55 1 18 50
M  V30 56 1 19 51
M  V30 57 1 19 52
M  V30 58 1 21 53
M  V30 59 1 22 54
M  V30 60 1 25 55
M  V30 61 1 26 56
M  V30 62 1 27 57
M  V30 63 1 29 58
M  V30 64 1 29 59
M  V30 65 1 30 60
M  V30 66 1 30 61
M  V30 67 1 32 62
M  V30 68 1 35 63
M  V30 69 1 36 64
M  V30 END BOND
M  V30 END CTAB
M  END
>  <Dataset>  (40) 
PKIs

>  <Ligand_Instance>  (40) 
nan

>  <PDB_ID>  (40) 
nan

>  <Standardized_SMILES>  (40) 
Cn1cc(-c2cc3c(N4CCN(c5ncc([C@@](C)(N)c6ccc(F)cc6)cn5)CC4)ncnn3c2)cn1

>  <Name>  (40) 
Avapritinib

>  <Pocket>  (40) 
nan

>  <ATP_Site>  (40) 
nan

>  <Peripheral>  (40) 
nan

>  <Num_H_Atoms_ProtBoundConf>  (40) 
nan

>  <Num_Resolved_Atoms>  (40) 
nan

>  <Num_Not_Resolved_Atoms>  (40) 
nan

$$$$
nan
     RDKit          3D

  0  0  0  0  0  0  0  0  0  0999 V3000
M  V30 BEGIN CTAB
M  V30 COUNTS 48 52 0 0 0
M  V30 BEGIN ATOM
M  V30 1 C -1.698876 -3.921158 -5.849706 0
M  V30 2 N -0.955617 -2.770754 -5.391768 0
M  V30 3 C -0.726580 -2.797625 -3.992656 0
M  V30 4 O -1.255525 -3.856554 -3.526092 0
M  V30 5 C -0.020290 -1.817341 -3.185096 0
M  V30 6 C 0.033248 -2.137603 -1.822886 0
M  V30 7 C 0.670805 -1.303257 -0.927293 0
M  V30 8 C 1.281653 -0.128616 -1.306495 0
M  V30 9 C 1.936181 0.702056 -0.301730 0
M  V30 10 C 2.567043 1.887965 -0.603716 0
M  V30 11 N 3.155735 2.615717 0.363775 0
M  V30 12 C 3.111026 2.153182 1.633169 0
M  V30 13 N 3.601480 2.651811 2.794268 0
M  V30 14 C 3.291361 1.805422 3.811296 0
M  V30 15 C 2.594301 0.756377 3.283366 0
M  V30 16 C 2.018617 -0.444032 3.948802 0
M  V30 17 C 0.620427 -0.227617 4.410576 0
M  V30 18 C 0.247892 0.254087 5.649732 0
M  V30 19 C -1.083286 0.419733 5.983050 0
M  V30 20 C -2.082260 0.113606 5.100243 0
M  V30 21 N -3.388185 0.262229 5.390709 0
M  V30 22 C -4.367706 -0.043925 4.509333 0
M  V30 23 C -4.040667 -0.529320 3.256953 0
M  V30 24 C -2.707820 -0.706540 2.893292 0
M  V30 25 C -1.766828 -0.371112 3.848751 0
M  V30 26 C -0.418080 -0.529954 3.534693 0
M  V30 27 N 2.494396 0.985035 1.957993 0
M  V30 28 N 1.914630 0.277730 0.974130 0
M  V30 29 C 1.227698 0.184370 -2.647102 0
M  V30 30 C 0.594285 -0.641044 -3.548451 0
M  V30 31 F 0.532607 -0.352437 -4.852831 0
M  V30 32 H -2.715306 -3.888188 -5.417428 0
M  V30 33 H -1.819861 -3.949102 -6.935651 0
M  V30 34 H -1.240353 -4.874955 -5.487788 0
M  V30 35 H -0.581871 -1.958869 -5.931427 0
M  V30 36 H -0.424316 -3.053967 -1.418539 0
M  V30 37 H 0.688927 -1.588002 0.115211 0
M  V30 38 H 2.599611 2.249756 -1.610365 0
M  V30 39 H 3.514711 1.872520 4.867528 0
M  V30 40 H 1.999496 -1.295136 3.223271 0
M  V30 41 H 2.678241 -0.799599 4.775338 0
M  V30 42 H 1.084441 0.481090 6.311746 0
M  V30 43 H -1.308934 0.796145 6.956400 0
M  V30 44 H -5.426706 0.065895 4.716713 0
M  V30 45 H -4.766183 -0.803054 2.480484 0
M  V30 46 H -2.443589 -1.082776 1.923392 0
M  V30 47 H -0.160911 -0.915044 2.540937 0
M  V30 48 H 1.684963 1.085643 -3.003404 0
M  V30 END ATOM
M  V30 BEGIN BOND
M  V30 1 1 1 2
M  V30 2 1 2 3
M  V30 3 2 3 4
M  V30 4 1 3 5
M  V30 5 2 5 6
M  V30 6 1 6 7
M  V30 7 2 7 8
M  V30 8 1 8 9
M  V30 9 1 9 10
M  V30 10 2 10 11
M  V30 11 1 11 12
M  V30 12 2 12 13
M  V30 13 1 13 14
M  V30 14 2 14 15
M  V30 15 1 15 16
M  V30 16 1 16 17
M  V30 17 2 17 18
M  V30 18 1 18 19
M  V30 19 2 19 20
M  V30 20 1 20 21
M  V30 21 2 21 22
M  V30 22 1 22 23
M  V30 23 2 23 24
M  V30 24 1 24 25
M  V30 25 2 25 26
M  V30 26 1 15 27
M  V30 27 1 27 28
M  V30 28 1 8 29
M  V30 29 2 29 30
M  V30 30 1 30 31
M  V30 31 1 30 5
M  V30 32 2 28 9
M  V30 33 1 27 12
M  V30 34 1 26 17
M  V30 35 1 25 20
M  V30 36 1 1 32
M  V30 37 1 1 33
M  V30 38 1 1 34
M  V30 39 1 2 35
M  V30 40 1 6 36
M  V30 41 1 7 37
M  V30 42 1 10 38
M  V30 43 1 14 39
M  V30 44 1 16 40
M  V30 45 1 16 41
M  V30 46 1 18 42
M  V30 47 1 19 43
M  V30 48 1 22 44
M  V30 49 1 23 45
M  V30 50 1 24 46
M  V30 51 1 26 47
M  V30 52 1 29 48
M  V30 END BOND
M  V30 END CTAB
M  END
>  <Dataset>  (41) 
PKIs

>  <Ligand_Instance>  (41) 
nan

>  <PDB_ID>  (41) 
nan

>  <Standardized_SMILES>  (41) 
CNC(=O)c1ccc(-c2cnc3ncc(Cc4ccc5ncccc5c4)n3n2)cc1F

>  <Name>  (41) 
Capmatinib

>  <Pocket>  (41) 
nan

>  <ATP_Site>  (41) 
nan

>  <Peripheral>  (41) 
nan

>  <Num_H_Atoms_ProtBoundConf>  (41) 
nan

>  <Num_Resolved_Atoms>  (41) 
nan

>  <Num_Not_Resolved_Atoms>  (41) 
nan

$$$$
nan
     RDKit          3D

  0  0  0  0  0  0  0  0  0  0999 V3000
M  V30 BEGIN CTAB
M  V30 COUNTS 41 44 0 0 0
M  V30 BEGIN ATOM
M  V30 1 C 1.047548 -0.255370 -2.887087 0
M  V30 2 C 0.865968 -1.522671 -2.087002 0 CFG=1
M  V30 3 C 2.234021 -2.148390 -1.774927 0
M  V30 4 N 2.293883 -1.202598 -0.672325 0
M  V30 5 C 3.411335 -0.560808 -0.131408 0
M  V30 6 O 4.547706 -0.811639 -0.666355 0
M  V30 7 C 3.516941 0.389922 0.986476 0
M  V30 8 C 4.180264 1.637874 0.551087 0
M  V30 9 N 4.704551 2.616814 0.225510 0
M  V30 10 C 0.869211 -1.331007 -0.573677 0 CFG=2
M  V30 11 C 0.320638 -2.534066 0.123909 0
M  V30 12 C -0.985975 -1.958696 0.688640 0
M  V30 13 N -0.475888 -0.658504 1.154347 0
M  V30 14 C -0.613645 -0.174741 2.494893 0
M  V30 15 N 0.434633 0.100538 3.288630 0
M  V30 16 C 0.320914 0.549341 4.537555 0
M  V30 17 N -0.915899 0.747590 5.062180 0
M  V30 18 C -2.027206 0.488194 4.312244 0
M  V30 19 N -3.325119 0.626012 4.660175 0
M  V30 20 C -4.049668 0.246260 3.579479 0
M  V30 21 C -3.172146 -0.124262 2.569606 0
M  V30 22 C -1.882095 0.023583 3.018898 0
M  V30 23 C 0.124193 -0.134317 -0.074180 0
M  V30 24 H 2.124878 -0.027662 -3.066182 0
M  V30 25 H 0.467729 0.597675 -2.492335 0
M  V30 26 H 0.626576 -0.494869 -3.907873 0
M  V30 27 H 0.118844 -2.222941 -2.472844 0
M  V30 28 H 2.989490 -2.033936 -2.561647 0
M  V30 29 H 2.053979 -3.171679 -1.395728 0
M  V30 30 H 2.602606 0.582777 1.547959 0
M  V30 31 H 4.248372 -0.051507 1.732764 0
M  V30 32 H 0.937203 -2.890487 0.971464 0
M  V30 33 H 0.058737 -3.351057 -0.579912 0
M  V30 34 H -1.383336 -2.571480 1.497217 0
M  V30 35 H -1.656281 -1.735147 -0.142046 0
M  V30 36 H 1.195952 0.768868 5.171250 0
M  V30 37 H -3.736061 0.953988 5.567793 0
M  V30 38 H -5.130459 0.201786 3.432607 0
M  V30 39 H -3.418163 -0.482234 1.564489 0
M  V30 40 H -0.717729 0.072494 -0.786600 0
M  V30 41 H 0.746336 0.750303 0.088037 0
M  V30 END ATOM
M  V30 BEGIN BOND
M  V30 1 1 1 2
M  V30 2 1 2 3
M  V30 3 1 3 4
M  V30 4 1 4 5
M  V30 5 2 5 6
M  V30 6 1 5 7
M  V30 7 1 7 8
M  V30 8 3 8 9
M  V30 9 1 10 4 CFG=1
M  V30 10 1 10 11
M  V30 11 1 11 12
M  V30 12 1 12 13
M  V30 13 1 13 14
M  V30 14 2 14 15
M  V30 15 1 15 16
M  V30 16 2 16 17
M  V30 17 1 17 18
M  V30 18 1 18 19
M  V30 19 1 19 20
M  V30 20 2 20 21
M  V30 21 1 21 22
M  V30 22 1 13 23
M  V30 23 1 10 2
M  V30 24 1 22 14
M  V30 25 1 23 10
M  V30 26 2 22 18
M  V30 27 1 1 24
M  V30 28 1 1 25
M  V30 29 1 1 26
M  V30 30 1 2 27 CFG=3
M  V30 31 1 3 28
M  V30 32 1 3 29
M  V30 33 1 7 30
M  V30 34 1 7 31
M  V30 35 1 11 32
M  V30 36 1 11 33
M  V30 37 1 12 34
M  V30 38 1 12 35
M  V30 39 1 16 36
M  V30 40 1 19 37
M  V30 41 1 20 38
M  V30 42 1 21 39
M  V30 43 1 23 40
M  V30 44 1 23 41
M  V30 END BOND
M  V30 END CTAB
M  END
>  <Dataset>  (42) 
PKIs

>  <Ligand_Instance>  (42) 
nan

>  <PDB_ID>  (42) 
nan

>  <Standardized_SMILES>  (42) 
C[C@H]1CN(C(=O)CC#N)[C@]12CCN(c1ncnc3[nH]ccc13)C2

>  <Name>  (42) 
Delgocitinib

>  <Pocket>  (42) 
nan

>  <ATP_Site>  (42) 
nan

>  <Peripheral>  (42) 
nan

>  <Num_H_Atoms_ProtBoundConf>  (42) 
nan

>  <Num_Resolved_Atoms>  (42) 
nan

>  <Num_Not_Resolved_Atoms>  (42) 
nan

$$$$
nan
     RDKit          3D

  0  0  0  0  0  0  0  0  0  0999 V3000
M  V30 BEGIN CTAB
M  V30 COUNTS 63 66 0 0 0
M  V30 BEGIN ATOM
M  V30 1 C 3.397342 -2.589395 2.713666 0
M  V30 2 O 3.908276 -1.266524 2.718938 0
M  V30 3 C 3.335958 -0.256872 1.971122 0
M  V30 4 C 3.905508 0.988783 2.044824 0
M  V30 5 C 3.358434 2.016407 1.310848 0
M  V30 6 O 3.976063 3.244652 1.426766 0
M  V30 7 C 5.092829 3.411529 2.249342 0
M  V30 8 C 2.242274 1.772288 0.512181 0
M  V30 9 C 1.625818 0.549182 0.396542 0
M  V30 10 N 0.541663 0.401612 -0.491069 0
M  V30 11 C 0.324642 1.556552 -1.358959 0
M  V30 12 C -0.621395 2.535570 -0.698241 0
M  V30 13 N -0.849204 3.714403 -1.500751 0
M  V30 14 C -1.581387 3.491448 -2.706674 0
M  V30 15 C -1.777640 4.815970 -3.446517 0
M  V30 16 C -2.960398 2.926847 -2.447391 0
M  V30 17 C -0.371715 -0.643871 -0.656319 0
M  V30 18 C -1.250679 -0.648820 -1.698522 0
M  V30 19 C -2.231236 -1.581460 -1.921624 0
M  V30 20 C -2.385171 -2.644629 -1.027337 0
M  V30 21 N -3.329961 -3.593762 -1.188212 0
M  V30 22 C -3.481423 -4.616339 -0.327353 0
M  V30 23 C -2.627329 -4.676766 0.753513 0
M  V30 24 C -2.727794 -5.752338 1.736622 0
M  V30 25 C -3.640416 -6.785916 1.700559 0
M  V30 26 N -3.383666 -7.537309 2.785858 0
M  V30 27 N -2.362816 -7.022221 3.487529 0
M  V30 28 C -1.757701 -7.502779 4.716633 0
M  V30 29 C -1.937350 -5.912602 2.856569 0
M  V30 30 N -1.684917 -3.728272 0.911760 0
M  V30 31 C -1.532135 -2.705455 0.052228 0
M  V30 32 C -0.589093 -1.713398 0.171519 0
M  V30 33 C 2.247929 -0.403010 1.164548 0
M  V30 34 H 2.420515 -2.631002 3.234967 0
M  V30 35 H 3.228090 -2.913190 1.666591 0
M  V30 36 H 4.089042 -3.274597 3.245826 0
M  V30 37 H 4.776820 1.142050 2.679221 0
M  V30 38 H 5.475958 4.451474 2.235556 0
M  V30 39 H 5.940016 2.728447 1.974083 0
M  V30 40 H 4.793433 3.105699 3.291457 0
M  V30 41 H 1.997603 2.693955 0.041256 0
M  V30 42 H -0.106075 1.286933 -2.319378 0
M  V30 43 H 1.324084 2.017340 -1.563413 0
M  V30 44 H -0.221534 2.834190 0.273072 0
M  V30 45 H -1.595961 2.024507 -0.456650 0
M  V30 46 H -1.222264 4.505565 -0.941445 0
M  V30 47 H -1.022668 2.834815 -3.390618 0
M  V30 48 H -2.616227 4.650902 -4.144442 0
M  V30 49 H -0.856614 5.074411 -3.967734 0
M  V30 50 H -2.084628 5.616615 -2.714257 0
M  V30 51 H -3.449393 3.404738 -1.580550 0
M  V30 52 H -2.892446 1.840942 -2.237095 0
M  V30 53 H -3.632650 3.046793 -3.313570 0
M  V30 54 H -1.328217 0.051164 -2.502572 0
M  V30 55 H -2.939290 -1.617501 -2.729806 0
M  V30 56 H -4.244922 -5.375337 -0.465495 0
M  V30 57 H -4.406776 -6.967406 0.961722 0
M  V30 58 H -0.728767 -7.864482 4.513903 0
M  V30 59 H -1.635852 -6.632243 5.425060 0
M  V30 60 H -2.363413 -8.285900 5.213371 0
M  V30 61 H -1.128410 -5.245170 3.145717 0
M  V30 62 H -0.030552 -1.861371 1.073945 0
M  V30 63 H 1.932324 -1.418413 1.158976 0
M  V30 END ATOM
M  V30 BEGIN BOND
M  V30 1 1 1 2
M  V30 2 1 2 3
M  V30 3 2 3 4
M  V30 4 1 4 5
M  V30 5 1 5 6
M  V30 6 1 6 7
M  V30 7 2 5 8
M  V30 8 1 8 9
M  V30 9 1 9 10
M  V30 10 1 10 11
M  V30 11 1 11 12
M  V30 12 1 12 13
M  V30 13 1 13 14
M  V30 14 1 14 15
M  V30 15 1 14 16
M  V30 16 1 10 17
M  V30 17 2 17 18
M  V30 18 1 18 19
M  V30 19 2 19 20
M  V30 20 1 20 21
M  V30 21 2 21 22
M  V30 22 1 22 23
M  V30 23 1 23 24
M  V30 24 1 24 25
M  V30 25 2 25 26
M  V30 26 1 26 27
M  V30 27 1 27 28
M  V30 28 1 27 29
M  V30 29 2 23 30
M  V30 30 1 30 31
M  V30 31 2 31 32
M  V30 32 2 9 33
M  V30 33 1 33 3
M  V30 34 1 32 17
M  V30 35 1 31 20
M  V30 36 2 29 24
M  V30 37 1 1 34
M  V30 38 1 1 35
M  V30 39 1 1 36
M  V30 40 1 4 37
M  V30 41 1 7 38
M  V30 42 1 7 39
M  V30 43 1 7 40
M  V30 44 1 8 41
M  V30 45 1 11 42
M  V30 46 1 11 43
M  V30 47 1 12 44
M  V30 48 1 12 45
M  V30 49 1 13 46
M  V30 50 1 14 47
M  V30 51 1 15 48
M  V30 52 1 15 49
M  V30 53 1 15 50
M  V30 54 1 16 51
M  V30 55 1 16 52
M  V30 56 1 16 53
M  V30 57 1 18 54
M  V30 58 1 19 55
M  V30 59 1 22 56
M  V30 60 1 25 57
M  V30 61 1 28 58
M  V30 62 1 28 59
M  V30 63 1 28 60
M  V30 64 1 29 61
M  V30 65 1 32 62
M  V30 66 1 33 63
M  V30 END BOND
M  V30 END CTAB
M  END
>  <Dataset>  (43) 
PKIs

>  <Ligand_Instance>  (43) 
nan

>  <PDB_ID>  (43) 
nan

>  <Standardized_SMILES>  (43) 
COc1cc(OC)cc(N(CCNC(C)C)c2ccc3ncc(-c4cnn(C)c4)nc3c2)c1

>  <Name>  (43) 
Erdafitinib

>  <Pocket>  (43) 
nan

>  <ATP_Site>  (43) 
nan

>  <Peripheral>  (43) 
nan

>  <Num_H_Atoms_ProtBoundConf>  (43) 
nan

>  <Num_Resolved_Atoms>  (43) 
nan

>  <Num_Not_Resolved_Atoms>  (43) 
nan

$$$$
nan
     RDKit          3D

  0  0  0  0  0  0  0  0  0  0999 V3000
M  V30 BEGIN CTAB
M  V30 COUNTS 64 68 0 0 0
M  V30 BEGIN ATOM
M  V30 1 C -2.618483 -5.139076 1.834622 0
M  V30 2 C -1.979609 -3.980921 1.836492 0
M  V30 3 C -0.592357 -4.005493 2.273827 0
M  V30 4 O -0.276721 -5.197640 2.575859 0
M  V30 5 N 0.248909 -2.860716 2.341121 0
M  V30 6 C -0.359309 -1.607070 1.936866 0
M  V30 7 C 0.708621 -0.539573 1.926624 0
M  V30 8 C 1.971595 -1.162355 1.365302 0
M  V30 9 C 2.923642 -0.117514 0.867249 0 CFG=2
M  V30 10 C 3.335688 0.817866 1.953872 0
M  V30 11 C 4.257299 1.888870 1.447628 0
M  V30 12 N 3.728401 2.563448 0.277374 0
M  V30 13 C 2.683421 1.922138 -0.436944 0
M  V30 14 C 1.847669 2.282653 -1.464907 0
M  V30 15 C 1.932885 3.605610 -2.057117 0
M  V30 16 N 1.311340 4.368352 -3.058625 0
M  V30 17 O 2.769170 4.457727 -1.668488 0
M  V30 18 C 0.972797 1.286277 -1.825753 0
M  V30 19 C -0.063698 1.249137 -2.843729 0
M  V30 20 C -0.016636 1.638913 -4.163989 0
M  V30 21 C -1.144438 1.515610 -4.949410 0
M  V30 22 C -2.342456 1.012124 -4.474308 0
M  V30 23 O -3.384093 0.954258 -5.396909 0
M  V30 24 C -4.593964 0.438720 -4.895609 0
M  V30 25 C -5.457177 1.368163 -4.356234 0
M  V30 26 C -6.680270 0.964162 -3.833113 0
M  V30 27 C -6.994002 -0.398057 -3.875239 0
M  V30 28 C -6.124110 -1.321563 -4.416908 0
M  V30 29 C -4.918979 -0.901490 -4.929290 0
M  V30 30 C -2.400856 0.618113 -3.152347 0
M  V30 31 C -1.273707 0.740820 -2.364990 0
M  V30 32 N 1.286168 0.283811 -0.987773 0
M  V30 33 N 2.271089 0.644159 -0.185246 0
M  V30 34 C 2.557934 -2.027156 2.430941 0
M  V30 35 C 1.596756 -3.118600 2.806417 0
M  V30 36 H -3.653989 -5.273114 1.534166 0
M  V30 37 H -2.175271 -6.079969 2.133595 0
M  V30 38 H -2.569986 -3.125360 1.506228 0
M  V30 39 H -0.783954 -1.702092 0.905075 0
M  V30 40 H -1.211206 -1.339897 2.588659 0
M  V30 41 H 0.924760 -0.318709 3.003957 0
M  V30 42 H 0.413861 0.371345 1.395429 0
M  V30 43 H 1.670275 -1.797062 0.493030 0
M  V30 44 H 3.787457 -0.637094 0.411213 0
M  V30 45 H 2.456038 1.228911 2.456809 0
M  V30 46 H 3.937254 0.237844 2.709691 0
M  V30 47 H 4.319897 2.674463 2.242539 0
M  V30 48 H 5.275472 1.529588 1.244715 0
M  V30 49 H 4.098327 3.469733 -0.019670 0
M  V30 50 H 1.666012 4.361592 -4.020305 0
M  V30 51 H 0.482789 4.994696 -2.996853 0
M  V30 52 H 0.938032 2.013966 -4.469236 0
M  V30 53 H -0.969257 1.859929 -5.970833 0
M  V30 54 H -5.255204 2.414480 -4.305368 0
M  V30 55 H -7.380697 1.666489 -3.402799 0
M  V30 56 H -7.934054 -0.791798 -3.484922 0
M  V30 57 H -6.331037 -2.385362 -4.467738 0
M  V30 58 H -4.195488 -1.567066 -5.365321 0
M  V30 59 H -3.338020 0.231843 -2.807672 0
M  V30 60 H -1.437335 0.399109 -1.340407 0
M  V30 61 H 3.583129 -2.401570 2.215178 0
M  V30 62 H 2.675340 -1.395747 3.349774 0
M  V30 63 H 1.958895 -4.044987 2.307400 0
M  V30 64 H 1.560399 -3.330751 3.881711 0
M  V30 END ATOM
M  V30 BEGIN BOND
M  V30 1 2 1 2
M  V30 2 1 2 3
M  V30 3 2 3 4
M  V30 4 1 3 5
M  V30 5 1 5 6
M  V30 6 1 6 7
M  V30 7 1 7 8
M  V30 8 1 8 9
M  V30 9 1 9 10
M  V30 10 1 10 11
M  V30 11 1 11 12
M  V30 12 1 12 13
M  V30 13 2 13 14
M  V30 14 1 14 15
M  V30 15 1 15 16
M  V30 16 2 15 17
M  V30 17 1 14 18
M  V30 18 1 18 19
M  V30 19 2 19 20
M  V30 20 1 20 21
M  V30 21 2 21 22
M  V30 22 1 22 23
M  V30 23 1 23 24
M  V30 24 2 24 25
M  V30 25 1 25 26
M  V30 26 2 26 27
M  V30 27 1 27 28
M  V30 28 2 28 29
M  V30 29 1 22 30
M  V30 30 2 30 31
M  V30 31 2 18 32
M  V30 32 1 32 33
M  V30 33 1 8 34
M  V30 34 1 34 35
M  V30 35 1 35 5
M  V30 36 1 33 9
M  V30 37 1 33 13
M  V30 38 1 31 19
M  V30 39 1 29 24
M  V30 40 1 1 36
M  V30 41 1 1 37
M  V30 42 1 2 38
M  V30 43 1 6 39
M  V30 44 1 6 40
M  V30 45 1 7 41
M  V30 46 1 7 42
M  V30 47 1 8 43
M  V30 48 1 9 44 CFG=3
M  V30 49 1 10 45
M  V30 50 1 10 46
M  V30 51 1 11 47
M  V30 52 1 11 48
M  V30 53 1 12 49
M  V30 54 1 16 50
M  V30 55 1 16 51
M  V30 56 1 20 52
M  V30 57 1 21 53
M  V30 58 1 25 54
M  V30 59 1 26 55
M  V30 60 1 27 56
M  V30 61 1 28 57
M  V30 62 1 29 58
M  V30 63 1 30 59
M  V30 64 1 31 60
M  V30 65 1 34 61
M  V30 66 1 34 62
M  V30 67 1 35 63
M  V30 68 1 35 64
M  V30 END BOND
M  V30 END CTAB
M  END
>  <Dataset>  (44) 
PKIs

>  <Ligand_Instance>  (44) 
nan

>  <PDB_ID>  (44) 
nan

>  <Standardized_SMILES>  (44) 
C=CC(=O)N1CCC([C@@H]2CCNc3c(C(N)=O)c(-c4ccc(Oc5ccccc5)cc4)nn32)CC1

>  <Name>  (44) 
Zanubrutinib

>  <Pocket>  (44) 
nan

>  <ATP_Site>  (44) 
nan

>  <Peripheral>  (44) 
nan

>  <Num_H_Atoms_ProtBoundConf>  (44) 
nan

>  <Num_Resolved_Atoms>  (44) 
nan

>  <Num_Not_Resolved_Atoms>  (44) 
nan

$$$$
nan
     RDKit          3D

  0  0  0  0  0  0  0  0  0  0999 V3000
M  V30 BEGIN CTAB
M  V30 COUNTS 46 49 0 0 0
M  V30 BEGIN ATOM
M  V30 1 C -3.741771 0.339360 -0.594639 0
M  V30 2 C -2.269753 0.031063 -0.754925 0
M  V30 3 C -1.843796 -1.102375 0.130784 0 CFG=2
M  V30 4 C -2.032560 -0.895875 1.569076 0
M  V30 5 N -0.791871 -1.251989 2.189512 0
M  V30 6 C -0.162178 -0.777605 3.386621 0
M  V30 7 O 0.946638 -1.246705 3.738862 0
M  V30 8 N -0.761105 0.215562 4.192189 0
M  V30 9 C -0.295440 0.815573 5.407983 0
M  V30 10 C 1.015476 1.546645 5.277456 0
M  V30 11 F 2.047000 0.758314 4.873989 0
M  V30 12 F 1.285407 2.062643 6.551262 0
M  V30 13 F 0.860058 2.656313 4.451585 0
M  V30 14 C -0.263965 -2.266441 1.303732 0
M  V30 15 C -0.472416 -1.598826 -0.078347 0 CFG=2
M  V30 16 C 0.587858 -0.624824 -0.192710 0
M  V30 17 C 0.534579 0.571363 0.491798 0
M  V30 18 N 1.627546 1.308691 0.229296 0
M  V30 19 C 2.414214 0.619563 -0.624250 0
M  V30 20 C 3.632720 0.897556 -1.210549 0
M  V30 21 N 4.192440 -0.002937 -2.037320 0
M  V30 22 C 3.557304 -1.164403 -2.282532 0
M  V30 23 N 3.946746 -2.190003 -3.066723 0
M  V30 24 C 2.943966 -3.110409 -2.953901 0
M  V30 25 C 1.970119 -2.631208 -2.109446 0
M  V30 26 C 2.354608 -1.389827 -1.677642 0
M  V30 27 N 1.752844 -0.530937 -0.848884 0
M  V30 28 H -3.950633 1.401193 -0.867456 0
M  V30 29 H -4.092366 0.183217 0.451155 0
M  V30 30 H -4.387266 -0.300242 -1.224537 0
M  V30 31 H -2.160087 -0.333237 -1.814804 0
M  V30 32 H -1.614392 0.920228 -0.709834 0
M  V30 33 H -2.536444 -1.977040 -0.132372 0
M  V30 34 H -2.834118 -1.546542 2.014159 0
M  V30 35 H -2.230075 0.167880 1.864812 0
M  V30 36 H -1.692359 0.559791 3.833463 0
M  V30 37 H -0.108296 -0.017591 6.154794 0
M  V30 38 H -1.027612 1.474940 5.879116 0
M  V30 39 H -0.862796 -3.187137 1.376626 0
M  V30 40 H 0.793985 -2.388162 1.520681 0
M  V30 41 H -0.521616 -2.384320 -0.854427 0
M  V30 42 H -0.139794 1.043191 1.158374 0
M  V30 43 H 4.119292 1.837192 -0.995448 0
M  V30 44 H 4.846286 -2.216754 -3.624348 0
M  V30 45 H 3.083640 -4.031934 -3.531452 0
M  V30 46 H 1.168282 -3.289425 -1.972877 0
M  V30 END ATOM
M  V30 BEGIN BOND
M  V30 1 1 1 2
M  V30 2 1 2 3
M  V30 3 1 3 4
M  V30 4 1 4 5
M  V30 5 1 5 6
M  V30 6 2 6 7
M  V30 7 1 6 8
M  V30 8 1 8 9
M  V30 9 1 9 10
M  V30 10 1 10 11
M  V30 11 1 10 12
M  V30 12 1 10 13
M  V30 13 1 5 14
M  V30 14 1 14 15
M  V30 15 1 15 16
M  V30 16 2 16 17
M  V30 17 1 17 18
M  V30 18 2 18 19
M  V30 19 1 19 20
M  V30 20 2 20 21
M  V30 21 1 21 22
M  V30 22 1 22 23
M  V30 23 1 23 24
M  V30 24 2 24 25
M  V30 25 1 25 26
M  V30 26 1 26 27
M  V30 27 1 15 3
M  V30 28 1 27 16
M  V30 29 1 27 19
M  V30 30 2 26 22
M  V30 31 1 1 28
M  V30 32 1 1 29
M  V30 33 1 1 30
M  V30 34 1 2 31
M  V30 35 1 2 32
M  V30 36 1 3 33 CFG=3
M  V30 37 1 4 34
M  V30 38 1 4 35
M  V30 39 1 8 36
M  V30 40 1 9 37
M  V30 41 1 9 38
M  V30 42 1 14 39
M  V30 43 1 14 40
M  V30 44 1 15 41 CFG=3
M  V30 45 1 17 42
M  V30 46 1 20 43
M  V30 47 1 23 44
M  V30 48 1 24 45
M  V30 49 1 25 46
M  V30 END BOND
M  V30 END CTAB
M  END
>  <Dataset>  (45) 
PKIs

>  <Ligand_Instance>  (45) 
nan

>  <PDB_ID>  (45) 
nan

>  <Standardized_SMILES>  (45) 
CC[C@@H]1CN(C(=O)NCC(F)(F)F)C[C@@H]1c1cnc2cnc3[nH]ccc3n12

>  <Name>  (45) 
Upadacitinib

>  <Pocket>  (45) 
nan

>  <ATP_Site>  (45) 
nan

>  <Peripheral>  (45) 
nan

>  <Num_H_Atoms_ProtBoundConf>  (45) 
nan

>  <Num_Resolved_Atoms>  (45) 
nan

>  <Num_Not_Resolved_Atoms>  (45) 
nan

$$$$
nan
     RDKit          3D

  0  0  0  0  0  0  0  0  0  0999 V3000
M  V30 BEGIN CTAB
M  V30 COUNTS 73 76 0 0 0
M  V30 BEGIN ATOM
M  V30 1 C 2.670109 -3.800443 4.811923 0
M  V30 2 C 2.795712 -2.393248 4.405098 0
M  V30 3 C 2.925116 -1.290231 5.222581 0
M  V30 4 N 3.030483 -0.068078 4.724819 0
M  V30 5 C 3.017947 0.186967 3.385670 0
M  V30 6 N 3.104794 1.474071 2.761309 0
M  V30 7 C 1.840627 2.026610 2.422226 0
M  V30 8 C 0.681434 1.365630 2.765957 0
M  V30 9 C -0.568230 1.895431 2.416146 0
M  V30 10 C -0.592081 3.088128 1.724155 0
M  V30 11 O -1.701113 3.629370 1.371097 0
M  V30 12 C -2.825370 4.176564 1.014054 0
M  V30 13 C -3.747351 3.367910 0.097786 0
M  V30 14 N -3.113769 3.055631 -1.149322 0
M  V30 15 C -2.056085 2.125800 -1.030343 0
M  V30 16 C -2.155262 1.103798 -2.151980 0
M  V30 17 C -3.412524 1.437595 -2.881705 0
M  V30 18 C -4.070705 2.518790 -2.079282 0
M  V30 19 C 0.587608 3.757589 1.377478 0
M  V30 20 C 1.830400 3.218700 1.731976 0
M  V30 21 N 2.891738 -0.877145 2.538904 0
M  V30 22 C 2.783458 -2.134672 3.043126 0
M  V30 23 N 2.646225 -3.088168 1.975143 0
M  V30 24 C 1.304667 -3.223678 1.561709 0
M  V30 25 C 0.224442 -2.637176 2.184630 0
M  V30 26 C -1.102094 -2.716661 1.830874 0
M  V30 27 C -1.367058 -3.486866 0.704975 0
M  V30 28 C -0.351922 -4.116937 0.008708 0
M  V30 29 S -0.830440 -5.051685 -1.388924 0
M  V30 30 O 0.102360 -6.221547 -1.496318 0
M  V30 31 O -2.194820 -5.651240 -1.094229 0
M  V30 32 N -0.971269 -4.142898 -2.793553 0
M  V30 33 C 0.163573 -3.477711 -3.306624 0
M  V30 34 C 0.812009 -2.467583 -2.419335 0
M  V30 35 C -0.331470 -2.730383 -4.560608 0
M  V30 36 C 1.238522 -4.404776 -3.837479 0
M  V30 37 C 0.946331 -3.969807 0.452346 0
M  V30 38 H 3.026113 -4.468617 4.026933 0
M  V30 39 H 3.355480 -3.977560 5.690901 0
M  V30 40 H 1.622977 -3.999315 5.140763 0
M  V30 41 H 2.936594 -1.485183 6.284041 0
M  V30 42 H 4.000057 1.964759 2.572329 0
M  V30 43 H 0.667698 0.415244 3.316375 0
M  V30 44 H -1.486051 1.374818 2.685837 0
M  V30 45 H -2.644935 5.140783 0.441077 0
M  V30 46 H -3.459688 4.431491 1.920411 0
M  V30 47 H -4.014305 2.459837 0.686711 0
M  V30 48 H -4.679676 3.964967 -0.037928 0
M  V30 49 H -2.213176 1.559579 -0.076029 0
M  V30 50 H -1.065981 2.627364 -1.067661 0
M  V30 51 H -2.240190 0.054601 -1.752494 0
M  V30 52 H -1.250579 1.123115 -2.814763 0
M  V30 53 H -4.116862 0.562804 -2.913516 0
M  V30 54 H -3.247791 1.702185 -3.948217 0
M  V30 55 H -4.904472 2.092986 -1.448897 0
M  V30 56 H -4.516687 3.314468 -2.725279 0
M  V30 57 H 0.574692 4.690873 0.837551 0
M  V30 58 H 2.747576 3.732383 1.464811 0
M  V30 59 H 3.358702 -3.657070 1.494936 0
M  V30 60 H 0.416722 -2.026551 3.074329 0
M  V30 61 H -1.874703 -2.214362 2.391792 0
M  V30 62 H -2.407376 -3.565425 0.404029 0
M  V30 63 H -1.543521 -4.533230 -3.543326 0
M  V30 64 H 1.049198 -1.560008 -3.011489 0
M  V30 65 H 0.148286 -2.104268 -1.607223 0
M  V30 66 H 1.786463 -2.859683 -2.075299 0
M  V30 67 H -1.377272 -2.387282 -4.440541 0
M  V30 68 H -0.268058 -3.335917 -5.463510 0
M  V30 69 H 0.281589 -1.821622 -4.734037 0
M  V30 70 H 0.976628 -4.783776 -4.857586 0
M  V30 71 H 1.560549 -5.173173 -3.134946 0
M  V30 72 H 2.137511 -3.750569 -4.020958 0
M  V30 73 H 1.699233 -4.491920 -0.138987 0
M  V30 END ATOM
M  V30 BEGIN BOND
M  V30 1 1 1 2
M  V30 2 2 2 3
M  V30 3 1 3 4
M  V30 4 2 4 5
M  V30 5 1 5 6
M  V30 6 1 6 7
M  V30 7 2 7 8
M  V30 8 1 8 9
M  V30 9 2 9 10
M  V30 10 1 10 11
M  V30 11 1 11 12
M  V30 12 1 12 13
M  V30 13 1 13 14
M  V30 14 1 14 15
M  V30 15 1 15 16
M  V30 16 1 16 17
M  V30 17 1 17 18
M  V30 18 1 10 19
M  V30 19 2 19 20
M  V30 20 1 5 21
M  V30 21 2 21 22
M  V30 22 1 22 23
M  V30 23 1 23 24
M  V30 24 2 24 25
M  V30 25 1 25 26
M  V30 26 2 26 27
M  V30 27 1 27 28
M  V30 28 1 28 29
M  V30 29 2 29 30
M  V30 30 2 29 31
M  V30 31 1 29 32
M  V30 32 1 32 33
M  V30 33 1 33 34
M  V30 34 1 33 35
M  V30 35 1 33 36
M  V30 36 2 28 37
M  V30 37 1 22 2
M  V30 38 1 37 24
M  V30 39 1 20 7
M  V30 40 1 18 14
M  V30 41 1 1 38
M  V30 42 1 1 39
M  V30 43 1 1 40
M  V30 44 1 3 41
M  V30 45 1 6 42
M  V30 46 1 8 43
M  V30 47 1 9 44
M  V30 48 1 12 45
M  V30 49 1 12 46
M  V30 50 1 13 47
M  V30 51 1 13 48
M  V30 52 1 15 49
M  V30 53 1 15 50
M  V30 54 1 16 51
M  V30 55 1 16 52
M  V30 56 1 17 53
M  V30 57 1 17 54
M  V30 58 1 18 55
M  V30 59 1 18 56
M  V30 60 1 19 57
M  V30 61 1 20 58
M  V30 62 1 23 59
M  V30 63 1 25 60
M  V30 64 1 26 61
M  V30 65 1 27 62
M  V30 66 1 32 63
M  V30 67 1 34 64
M  V30 68 1 34 65
M  V30 69 1 34 66
M  V30 70 1 35 67
M  V30 71 1 35 68
M  V30 72 1 35 69
M  V30 73 1 36 70
M  V30 74 1 36 71
M  V30 75 1 36 72
M  V30 76 1 37 73
M  V30 END BOND
M  V30 END CTAB
M  END
>  <Dataset>  (46) 
PKIs

>  <Ligand_Instance>  (46) 
nan

>  <PDB_ID>  (46) 
nan

>  <Standardized_SMILES>  (46) 
Cc1cnc(Nc2ccc(OCCN3CCCC3)cc2)nc1Nc1cccc(S(=O)(=O)NC(C)(C)C)c1

>  <Name>  (46) 
Fedratinib

>  <Pocket>  (46) 
nan

>  <ATP_Site>  (46) 
nan

>  <Peripheral>  (46) 
nan

>  <Num_H_Atoms_ProtBoundConf>  (46) 
nan

>  <Num_Resolved_Atoms>  (46) 
nan

>  <Num_Not_Resolved_Atoms>  (46) 
nan

$$$$
nan
     RDKit          3D

  0  0  0  0  0  0  0  0  0  0999 V3000
M  V30 BEGIN CTAB
M  V30 COUNTS 52 54 0 0 0
M  V30 BEGIN ATOM
M  V30 1 C -3.664624 1.007821 0.826288 0
M  V30 2 C -2.307606 0.413061 0.960874 0
M  V30 3 N -1.343422 1.170766 1.423008 0
M  V30 4 C -0.160309 0.695614 1.555119 0
M  V30 5 N 1.038099 1.283549 2.019538 0
M  V30 6 C 1.821600 1.899555 1.008662 0
M  V30 7 O 1.598511 1.994188 -0.236725 0
M  V30 8 N 3.067901 2.584533 1.075101 0
M  V30 9 C 3.651165 3.123818 -0.138735 0
M  V30 10 C 3.912005 4.562759 0.290842 0
M  V30 11 C 4.113438 4.488661 1.804244 0
M  V30 12 C 4.119941 3.007919 2.013399 0 CFG=1
M  V30 13 C 3.880846 2.595467 3.389391 0
M  V30 14 N 5.012079 3.122983 4.115593 0
M  V30 15 O 3.578365 2.191039 4.534109 0
M  V30 16 S -0.342665 -1.010880 0.983740 0
M  V30 17 C -2.072319 -0.923281 0.602583 0
M  V30 18 C -2.827434 -1.986475 0.095720 0
M  V30 19 C -4.152119 -2.094219 -0.256737 0
M  V30 20 C -4.847049 -3.171180 -0.751377 0
M  V30 21 N -4.095907 -4.272757 -0.904525 0
M  V30 22 C -2.794278 -4.323257 -0.605790 0
M  V30 23 C -2.105670 -5.615473 -0.827541 0
M  V30 24 C -3.101636 -6.650292 -1.327052 0
M  V30 25 C -1.554544 -6.098198 0.483338 0
M  V30 26 C -0.980979 -5.493828 -1.836654 0
M  V30 27 F -1.501393 -5.065248 -3.028696 0
M  V30 28 F -0.376267 -6.750206 -1.971682 0
M  V30 29 F 0.014472 -4.665317 -1.365798 0
M  V30 30 C -2.172333 -3.208193 -0.117080 0
M  V30 31 H -3.990252 1.011398 -0.235921 0
M  V30 32 H -3.729821 2.059451 1.186143 0
M  V30 33 H -4.422965 0.470532 1.468569 0
M  V30 34 H 1.488619 1.370461 2.955406 0
M  V30 35 H 4.604192 2.582795 -0.325138 0
M  V30 36 H 3.030351 3.057684 -1.026960 0
M  V30 37 H 3.040177 5.148937 -0.004014 0
M  V30 38 H 4.857913 4.927549 -0.121634 0
M  V30 39 H 3.296259 5.002177 2.356624 0
M  V30 40 H 5.055094 4.992334 2.126024 0
M  V30 41 H 5.089459 2.614622 1.602766 0
M  V30 42 H 5.994178 3.086966 4.522806 0
M  V30 43 H 5.523204 3.870900 4.673420 0
M  V30 44 H -4.725596 -1.194181 -0.122918 0
M  V30 45 H -5.898735 -3.092195 -0.981156 0
M  V30 46 H -2.764966 -7.632679 -0.971320 0
M  V30 47 H -4.122218 -6.379117 -1.035824 0
M  V30 48 H -3.026718 -6.642477 -2.439378 0
M  V30 49 H -1.535961 -7.219398 0.544468 0
M  V30 50 H -0.522618 -5.727931 0.611035 0
M  V30 51 H -2.162172 -5.669401 1.290293 0
M  V30 52 H -1.120948 -3.347897 0.097240 0
M  V30 END ATOM
M  V30 BEGIN BOND
M  V30 1 1 1 2
M  V30 2 1 2 3
M  V30 3 2 3 4
M  V30 4 1 4 5
M  V30 5 1 5 6
M  V30 6 2 6 7
M  V30 7 1 6 8
M  V30 8 1 8 9
M  V30 9 1 9 10
M  V30 10 1 10 11
M  V30 11 1 11 12
M  V30 12 1 12 13
M  V30 13 1 13 14
M  V30 14 2 13 15
M  V30 15 1 4 16
M  V30 16 1 16 17
M  V30 17 1 17 18
M  V30 18 2 18 19
M  V30 19 1 19 20
M  V30 20 2 20 21
M  V30 21 1 21 22
M  V30 22 1 22 23
M  V30 23 1 23 24
M  V30 24 1 23 25
M  V30 25 1 23 26
M  V30 26 1 26 27
M  V30 27 1 26 28
M  V30 28 1 26 29
M  V30 29 2 22 30
M  V30 30 2 17 2
M  V30 31 1 30 18
M  V30 32 1 12 8
M  V30 33 1 1 31
M  V30 34 1 1 32
M  V30 35 1 1 33
M  V30 36 1 5 34
M  V30 37 1 9 35
M  V30 38 1 9 36
M  V30 39 1 10 37
M  V30 40 1 10 38
M  V30 41 1 11 39
M  V30 42 1 11 40
M  V30 43 1 12 41 CFG=3
M  V30 44 1 14 42
M  V30 45 1 14 43
M  V30 46 1 19 44
M  V30 47 1 20 45
M  V30 48 1 24 46
M  V30 49 1 24 47
M  V30 50 1 24 48
M  V30 51 1 25 49
M  V30 52 1 25 50
M  V30 53 1 25 51
M  V30 54 1 30 52
M  V30 END BOND
M  V30 END CTAB
M  END
>  <Dataset>  (47) 
PKIs

>  <Ligand_Instance>  (47) 
nan

>  <PDB_ID>  (47) 
nan

>  <Standardized_SMILES>  (47) 
Cc1nc(NC(=O)N2CCC[C@H]2C(N)=O)sc1-c1ccnc(C(C)(C)C(F)(F)F)c1

>  <Name>  (47) 
Alpelisib

>  <Pocket>  (47) 
nan

>  <ATP_Site>  (47) 
nan

>  <Peripheral>  (47) 
nan

>  <Num_H_Atoms_ProtBoundConf>  (47) 
nan

>  <Num_Resolved_Atoms>  (47) 
nan

>  <Num_Not_Resolved_Atoms>  (47) 
nan

$$$$
nan
     RDKit          3D

  0  0  0  0  0  0  0  0  0  0999 V3000
M  V30 BEGIN CTAB
M  V30 COUNTS 75 80 0 0 0
M  V30 BEGIN ATOM
M  V30 1 C 3.284477 -0.848428 6.909951 0
M  V30 2 N 4.259841 -1.417299 6.008601 0
M  V30 3 C 3.719442 -2.485567 5.190807 0
M  V30 4 C 3.861321 -2.179743 3.712021 0
M  V30 5 N 3.363792 -0.880845 3.345273 0
M  V30 6 C 2.417503 -0.564041 2.340657 0
M  V30 7 C 1.853661 -1.461690 1.473613 0
M  V30 8 C 0.932626 -1.162533 0.500260 0
M  V30 9 C 0.555534 0.156138 0.402614 0
M  V30 10 C -0.423064 0.436398 -0.630667 0
M  V30 11 O -1.048696 1.417498 -1.086785 0
M  V30 12 N -0.958783 -0.557957 -1.486625 0
M  V30 13 C -1.930319 -0.286806 -2.513604 0
M  V30 14 N -2.540368 0.823717 -2.927263 0
M  V30 15 N -3.379163 0.620770 -3.917976 0
M  V30 16 C -3.369464 -0.682820 -4.225095 0
M  V30 17 C -4.043630 -1.455863 -5.170383 0
M  V30 18 C -3.807564 -2.823478 -5.238446 0
M  V30 19 C -2.915287 -3.439137 -4.386938 0
M  V30 20 C -2.608432 -4.879415 -4.394119 0
M  V30 21 C -3.504594 -5.659701 -3.502146 0
M  V30 22 C -4.686970 -6.184000 -3.989486 0
M  V30 23 C -5.487799 -6.899139 -3.133593 0
M  V30 24 F -6.668807 -7.448786 -3.537080 0
M  V30 25 C -5.148177 -7.108435 -1.808969 0
M  V30 26 C -3.974127 -6.595013 -1.302274 0
M  V30 27 F -3.620101 -6.789170 -0.003662 0
M  V30 28 C -3.164771 -5.868228 -2.179659 0
M  V30 29 C -2.286693 -2.614559 -3.480825 0
M  V30 30 C -2.473040 -1.235319 -3.353959 0
M  V30 31 C 1.073422 1.119806 1.233635 0
M  V30 32 N 0.729149 2.461831 1.171930 0
M  V30 33 C 0.097074 3.657879 0.737226 0
M  V30 34 C 0.482994 4.117351 -0.650483 0
M  V30 35 C 1.158129 5.461594 -0.678799 0
M  V30 36 O 1.964487 5.609403 0.442346 0
M  V30 37 C 1.213770 5.754039 1.604987 0
M  V30 38 C 0.061113 4.817023 1.707873 0
M  V30 39 C 2.009062 0.734262 2.202217 0
M  V30 40 C 3.965607 0.155924 4.153504 0
M  V30 41 C 4.896663 -0.397957 5.191064 0
M  V30 42 H 3.081183 0.224041 6.715020 0
M  V30 43 H 3.678089 -0.950806 7.937460 0
M  V30 44 H 2.311960 -1.365288 6.840330 0
M  V30 45 H 4.346570 -3.373993 5.404198 0
M  V30 46 H 2.689429 -2.728498 5.493076 0
M  V30 47 H 3.299811 -2.975647 3.190517 0
M  V30 48 H 4.942193 -2.284912 3.471315 0
M  V30 49 H 2.194979 -2.476766 1.605238 0
M  V30 50 H 0.639731 -2.031648 -0.052727 0
M  V30 51 H -0.660761 -1.586357 -1.412256 0
M  V30 52 H -3.950948 1.372289 -4.377065 0
M  V30 53 H -4.737400 -0.968732 -5.830293 0
M  V30 54 H -4.321662 -3.451222 -5.966893 0
M  V30 55 H -1.554003 -5.084022 -4.055581 0
M  V30 56 H -2.632412 -5.272730 -5.431428 0
M  V30 57 H -4.979597 -6.039078 -5.016796 0
M  V30 58 H -5.751036 -7.668477 -1.092164 0
M  V30 59 H -2.249649 -5.463116 -1.798701 0
M  V30 60 H -1.576600 -3.071652 -2.795884 0
M  V30 61 H 1.244412 3.046115 1.857402 0
M  V30 62 H -1.011199 3.386273 0.638185 0
M  V30 63 H 1.176078 3.379434 -1.117763 0
M  V30 64 H -0.378605 4.190846 -1.341599 0
M  V30 65 H 0.461225 6.318641 -0.672129 0
M  V30 66 H 1.835209 5.538736 -1.559725 0
M  V30 67 H 0.835788 6.818254 1.584142 0
M  V30 68 H 1.908265 5.701692 2.467921 0
M  V30 69 H 0.121694 4.342389 2.729084 0
M  V30 70 H -0.904860 5.349027 1.695250 0
M  V30 71 H 2.456228 1.454172 2.893151 0
M  V30 72 H 3.198064 0.776734 4.669309 0
M  V30 73 H 4.582203 0.820983 3.495761 0
M  V30 74 H 5.196481 0.423442 5.865165 0
M  V30 75 H 5.805438 -0.848946 4.739581 0
M  V30 END ATOM
M  V30 BEGIN BOND
M  V30 1 1 1 2
M  V30 2 1 2 3
M  V30 3 1 3 4
M  V30 4 1 4 5
M  V30 5 1 5 6
M  V30 6 2 6 7
M  V30 7 1 7 8
M  V30 8 2 8 9
M  V30 9 1 9 10
M  V30 10 2 10 11
M  V30 11 1 10 12
M  V30 12 1 12 13
M  V30 13 2 13 14
M  V30 14 1 14 15
M  V30 15 1 15 16
M  V30 16 2 16 17
M  V30 17 1 17 18
M  V30 18 2 18 19
M  V30 19 1 19 20
M  V30 20 1 20 21
M  V30 21 2 21 22
M  V30 22 1 22 23
M  V30 23 1 23 24
M  V30 24 2 23 25
M  V30 25 1 25 26
M  V30 26 1 26 27
M  V30 27 2 26 28
M  V30 28 1 19 29
M  V30 29 2 29 30
M  V30 30 1 9 31
M  V30 31 1 31 32
M  V30 32 1 32 33
M  V30 33 1 33 34
M  V30 34 1 34 35
M  V30 35 1 35 36
M  V30 36 1 36 37
M  V30 37 1 37 38
M  V30 38 2 31 39
M  V30 39 1 5 40
M  V30 40 1 40 41
M  V30 41 1 41 2
M  V30 42 1 39 6
M  V30 43 1 30 13
M  V30 44 1 38 33
M  V30 45 1 30 16
M  V30 46 1 28 21
M  V30 47 1 1 42
M  V30 48 1 1 43
M  V30 49 1 1 44
M  V30 50 1 3 45
M  V30 51 1 3 46
M  V30 52 1 4 47
M  V30 53 1 4 48
M  V30 54 1 7 49
M  V30 55 1 8 50
M  V30 56 1 12 51
M  V30 57 1 15 52
M  V30 58 1 17 53
M  V30 59 1 18 54
M  V30 60 1 20 55
M  V30 61 1 20 56
M  V30 62 1 22 57
M  V30 63 1 25 58
M  V30 64 1 28 59
M  V30 65 1 29 60
M  V30 66 1 32 61
M  V30 67 1 33 62
M  V30 68 1 34 63
M  V30 69 1 34 64
M  V30 70 1 35 65
M  V30 71 1 35 66
M  V30 72 1 37 67
M  V30 73 1 37 68
M  V30 74 1 38 69
M  V30 75 1 38 70
M  V30 76 1 39 71
M  V30 77 1 40 72
M  V30 78 1 40 73
M  V30 79 1 41 74
M  V30 80 1 41 75
M  V30 END BOND
M  V30 END CTAB
M  END
>  <Dataset>  (48) 
PKIs

>  <Ligand_Instance>  (48) 
nan

>  <PDB_ID>  (48) 
nan

>  <Standardized_SMILES>  (48) 
CN1CCN(c2ccc(C(=O)Nc3n[nH]c4ccc(Cc5cc(F)cc(F)c5)cc34)c(NC3CCOCC3)c2)CC1

>  <Name>  (48) 
Entrectinib

>  <Pocket>  (48) 
nan

>  <ATP_Site>  (48) 
nan

>  <Peripheral>  (48) 
nan

>  <Num_H_Atoms_ProtBoundConf>  (48) 
nan

>  <Num_Resolved_Atoms>  (48) 
nan

>  <Num_Not_Resolved_Atoms>  (48) 
nan

$$$$
nan
     RDKit          3D

  0  0  0  0  0  0  0  0  0  0999 V3000
M  V30 BEGIN CTAB
M  V30 COUNTS 70 74 0 0 0
M  V30 BEGIN ATOM
M  V30 1 C 4.907599 -1.405347 6.191762 0
M  V30 2 C 3.738676 -1.404913 5.265495 0
M  V30 3 N 2.969343 -2.487720 5.098493 0
M  V30 4 C 1.906998 -2.501349 4.260460 0
M  V30 5 C 1.575842 -1.367109 3.533472 0
M  V30 6 N 0.495442 -1.286413 2.628635 0
M  V30 7 C -0.887336 -0.962511 2.668119 0
M  V30 8 O -1.345115 -0.658065 3.773560 0
M  V30 9 C -1.625693 -1.018309 1.418960 0
M  V30 10 C -1.038800 -1.317432 0.209336 0
M  V30 11 C -1.885457 -1.323798 -0.877192 0
M  V30 12 C -3.254765 -1.064547 -0.890804 0
M  V30 13 C -3.994277 -1.117513 -2.156851 0
M  V30 14 N -4.798013 -2.287949 -2.359706 0
M  V30 15 C -5.497273 -2.294976 -3.619512 0
M  V30 16 C -4.497758 -2.636694 -4.696597 0
M  V30 17 N -4.008804 -3.944622 -4.468240 0
M  V30 18 C -2.862759 -4.154740 -5.367968 0
M  V30 19 C -3.687480 -4.342578 -3.156635 0
M  V30 20 C -4.195162 -3.526595 -2.018994 0
M  V30 21 C -3.776228 -0.772671 0.356173 0
M  V30 22 C -5.218868 -0.487322 0.422663 0
M  V30 23 F -6.030411 -1.474974 0.001389 0
M  V30 24 F -5.545747 -0.171410 1.747168 0
M  V30 25 F -5.460838 0.656967 -0.306519 0
M  V30 26 C -2.980839 -0.746454 1.505826 0
M  V30 27 C 2.398000 -0.248281 3.728288 0
M  V30 28 C 3.495475 -0.235604 4.593456 0
M  V30 29 N 4.264213 0.975321 4.678269 0
M  V30 30 C 3.878324 2.142473 3.930328 0
M  V30 31 N 3.426365 3.296660 4.490733 0
M  V30 32 C 3.073456 4.345494 3.720986 0
M  V30 33 C 3.195351 4.183879 2.348660 0
M  V30 34 C 3.645489 3.038651 1.738775 0
M  V30 35 C 3.756059 2.873878 0.311930 0
M  V30 36 C 4.205025 1.680894 -0.220785 0
M  V30 37 C 4.296152 1.553224 -1.592733 0
M  V30 38 C 3.956889 2.571389 -2.480519 0
M  V30 39 N 3.516399 3.739086 -1.930350 0
M  V30 40 C 3.430523 3.856002 -0.592099 0
M  V30 41 N 3.975793 2.041471 2.583064 0
M  V30 42 H 5.791235 -0.901372 5.798553 0
M  V30 43 H 5.156041 -2.492254 6.369460 0
M  V30 44 H 4.605311 -1.010801 7.206746 0
M  V30 45 H 1.258182 -3.339752 4.085680 0
M  V30 46 H 1.063337 -1.569444 1.809017 0
M  V30 47 H 0.001414 -1.531398 0.111853 0
M  V30 48 H -1.405738 -1.563447 -1.835281 0
M  V30 49 H -3.253189 -1.095044 -2.986654 0
M  V30 50 H -4.583229 -0.171773 -2.341753 0
M  V30 51 H -5.855203 -1.259316 -3.802928 0
M  V30 52 H -6.287179 -3.046929 -3.611483 0
M  V30 53 H -5.074368 -2.662624 -5.658963 0
M  V30 54 H -3.672361 -1.905772 -4.795389 0
M  V30 55 H -2.531777 -3.188402 -5.769446 0
M  V30 56 H -2.008523 -4.538223 -4.745079 0
M  V30 57 H -3.070428 -4.928385 -6.135635 0
M  V30 58 H -2.588735 -4.508839 -3.083386 0
M  V30 59 H -4.105523 -5.388558 -3.030871 0
M  V30 60 H -4.946504 -4.081004 -1.400896 0
M  V30 61 H -3.357335 -3.340397 -1.325138 0
M  V30 62 H -3.470386 -0.508834 2.450031 0
M  V30 63 H 2.141474 0.641234 3.161591 0
M  V30 64 H 5.109386 0.957494 5.310597 0
M  V30 65 H 2.716111 5.261941 4.156190 0
M  V30 66 H 2.907540 5.037289 1.759433 0
M  V30 67 H 4.491813 0.835626 0.386743 0
M  V30 68 H 4.640155 0.649333 -2.118079 0
M  V30 69 H 4.023204 2.482897 -3.558989 0
M  V30 70 H 3.071254 4.816939 -0.257914 0
M  V30 END ATOM
M  V30 BEGIN BOND
M  V30 1 1 1 2
M  V30 2 2 2 3
M  V30 3 1 3 4
M  V30 4 2 4 5
M  V30 5 1 5 6
M  V30 6 1 6 7
M  V30 7 2 7 8
M  V30 8 1 7 9
M  V30 9 2 9 10
M  V30 10 1 10 11
M  V30 11 2 11 12
M  V30 12 1 12 13
M  V30 13 1 13 14
M  V30 14 1 14 15
M  V30 15 1 15 16
M  V30 16 1 16 17
M  V30 17 1 17 18
M  V30 18 1 17 19
M  V30 19 1 19 20
M  V30 20 1 12 21
M  V30 21 1 21 22
M  V30 22 1 22 23
M  V30 23 1 22 24
M  V30 24 1 22 25
M  V30 25 2 21 26
M  V30 26 1 5 27
M  V30 27 2 27 28
M  V30 28 1 28 29
M  V30 29 1 29 30
M  V30 30 2 30 31
M  V30 31 1 31 32
M  V30 32 2 32 33
M  V30 33 1 33 34
M  V30 34 1 34 35
M  V30 35 2 35 36
M  V30 36 1 36 37
M  V30 37 2 37 38
M  V30 38 1 38 39
M  V30 39 2 39 40
M  V30 40 2 34 41
M  V30 41 1 28 2
M  V30 42 1 41 30
M  V30 43 1 26 9
M  V30 44 1 40 35
M  V30 45 1 20 14
M  V30 46 1 1 42
M  V30 47 1 1 43
M  V30 48 1 1 44
M  V30 49 1 4 45
M  V30 50 1 6 46
M  V30 51 1 10 47
M  V30 52 1 11 48
M  V30 53 1 13 49
M  V30 54 1 13 50
M  V30 55 1 15 51
M  V30 56 1 15 52
M  V30 57 1 16 53
M  V30 58 1 16 54
M  V30 59 1 18 55
M  V30 60 1 18 56
M  V30 61 1 18 57
M  V30 62 1 19 58
M  V30 63 1 19 59
M  V30 64 1 20 60
M  V30 65 1 20 61
M  V30 66 1 26 62
M  V30 67 1 27 63
M  V30 68 1 29 64
M  V30 69 1 32 65
M  V30 70 1 33 66
M  V30 71 1 36 67
M  V30 72 1 37 68
M  V30 73 1 38 69
M  V30 74 1 40 70
M  V30 END BOND
M  V30 END CTAB
M  END
>  <Dataset>  (49) 
PKIs

>  <Ligand_Instance>  (49) 
nan

>  <PDB_ID>  (49) 
nan

>  <Standardized_SMILES>  (49) 
Cc1ncc(NC(=O)c2ccc(CN3CCN(C)CC3)c(C(F)(F)F)c2)cc1Nc1nccc(-c2cccnc2)n1

>  <Name>  (49) 
Flumbatinib

>  <Pocket>  (49) 
nan

>  <ATP_Site>  (49) 
nan

>  <Peripheral>  (49) 
nan

>  <Num_H_Atoms_ProtBoundConf>  (49) 
nan

>  <Num_Resolved_Atoms>  (49) 
nan

>  <Num_Not_Resolved_Atoms>  (49) 
nan

$$$$
nan
     RDKit          3D

  0  0  0  0  0  0  0  0  0  0999 V3000
M  V30 BEGIN CTAB
M  V30 COUNTS 44 47 0 0 0
M  V30 BEGIN ATOM
M  V30 1 F -6.205936 0.964142 5.071242 0
M  V30 2 C -4.997192 0.318067 4.938791 0
M  V30 3 F -5.172345 -1.055653 4.873058 0
M  V30 4 F -4.208785 0.585818 6.035101 0
M  V30 5 C -4.256203 0.743402 3.722245 0
M  V30 6 C -3.840524 -0.118011 2.729049 0
M  V30 7 C -3.155863 0.328655 1.620937 0
M  V30 8 C -2.853964 1.664247 1.455033 0
M  V30 9 C -2.136154 2.335096 0.365045 0
M  V30 10 N -0.727586 2.482579 0.547859 0
M  V30 11 C 0.208669 1.448535 0.706715 0
M  V30 12 C 1.566443 1.704927 0.885315 0
M  V30 13 C 2.524587 0.730318 1.044331 0
M  V30 14 C 2.133772 -0.608243 1.028873 0
M  V30 15 C 3.256992 -1.559387 1.213335 0
M  V30 16 C 3.883998 -1.889910 -0.101012 0
M  V30 17 C 5.097575 -1.338385 -0.520674 0
M  V30 18 N 5.436173 -1.788007 -1.724764 0
M  V30 19 C 4.475795 -2.637996 -2.137612 0
M  V30 20 N 4.276208 -3.385437 -3.249476 0
M  V30 21 C 3.204522 -4.175592 -3.422639 0
M  V30 22 C 2.248182 -4.234983 -2.415653 0
M  V30 23 Cl 0.869825 -5.266335 -2.666008 0
M  V30 24 C 2.408755 -3.489390 -1.261769 0
M  V30 25 C 3.528544 -2.698805 -1.144050 0
M  V30 26 C 0.792823 -0.850983 0.852222 0
M  V30 27 N -0.080492 0.157086 0.703955 0
M  V30 28 C -3.298268 2.496666 2.491423 0
M  V30 29 N -3.970824 2.070957 3.583423 0
M  V30 30 H -4.061975 -1.171016 2.829804 0
M  V30 31 H -2.816574 -0.306202 0.822341 0
M  V30 32 H -2.274387 1.778768 -0.608182 0
M  V30 33 H -2.625220 3.317530 0.181500 0
M  V30 34 H -0.342146 3.475753 0.566223 0
M  V30 35 H 1.892734 2.749998 0.900591 0
M  V30 36 H 3.560496 1.047156 1.176931 0
M  V30 37 H 2.880362 -2.552096 1.596695 0
M  V30 38 H 4.007856 -1.157391 1.899574 0
M  V30 39 H 5.689500 -0.635368 0.055942 0
M  V30 40 H 6.294311 -1.543037 -2.283351 0
M  V30 41 H 3.095758 -4.752226 -4.333894 0
M  V30 42 H 1.665787 -3.537634 -0.481458 0
M  V30 43 H 0.544674 -1.901025 0.849977 0
M  V30 44 H -3.122017 3.582592 2.480596 0
M  V30 END ATOM
M  V30 BEGIN BOND
M  V30 1 1 1 2
M  V30 2 1 2 3
M  V30 3 1 2 4
M  V30 4 1 2 5
M  V30 5 2 5 6
M  V30 6 1 6 7
M  V30 7 2 7 8
M  V30 8 1 8 9
M  V30 9 1 9 10
M  V30 10 1 10 11
M  V30 11 2 11 12
M  V30 12 1 12 13
M  V30 13 2 13 14
M  V30 14 1 14 15
M  V30 15 1 15 16
M  V30 16 2 16 17
M  V30 17 1 17 18
M  V30 18 1 18 19
M  V30 19 2 19 20
M  V30 20 1 20 21
M  V30 21 2 21 22
M  V30 22 1 22 23
M  V30 23 1 22 24
M  V30 24 2 24 25
M  V30 25 1 14 26
M  V30 26 2 26 27
M  V30 27 1 8 28
M  V30 28 2 28 29
M  V30 29 1 29 5
M  V30 30 1 27 11
M  V30 31 1 25 16
M  V30 32 1 25 19
M  V30 33 1 6 30
M  V30 34 1 7 31
M  V30 35 1 9 32
M  V30 36 1 9 33
M  V30 37 1 10 34
M  V30 38 1 12 35
M  V30 39 1 13 36
M  V30 40 1 15 37
M  V30 41 1 15 38
M  V30 42 1 17 39
M  V30 43 1 18 40
M  V30 44 1 21 41
M  V30 45 1 24 42
M  V30 46 1 26 43
M  V30 47 1 28 44
M  V30 END BOND
M  V30 END CTAB
M  END
>  <Dataset>  (50) 
PKIs

>  <Ligand_Instance>  (50) 
nan

>  <PDB_ID>  (50) 
nan

>  <Standardized_SMILES>  (50) 
FC(F)(F)c1ccc(CNc2ccc(Cc3c[nH]c4ncc(Cl)cc34)cn2)cn1

>  <Name>  (50) 
Pexidartinib

>  <Pocket>  (50) 
nan

>  <ATP_Site>  (50) 
nan

>  <Peripheral>  (50) 
nan

>  <Num_H_Atoms_ProtBoundConf>  (50) 
nan

>  <Num_Resolved_Atoms>  (50) 
nan

>  <Num_Not_Resolved_Atoms>  (50) 
nan

$$$$
nan
     RDKit          3D

  0  0  0  0  0  0  0  0  0  0999 V3000
M  V30 BEGIN CTAB
M  V30 COUNTS 52 56 0 0 0
M  V30 BEGIN ATOM
M  V30 1 C -2.196969 0.086787 2.269632 0
M  V30 2 O -2.403887 -1.135679 1.637236 0
M  V30 3 C -1.337091 -1.955918 1.211081 0
M  V30 4 C -0.089813 -1.425509 1.483713 0
M  V30 5 C 0.993657 -2.172692 1.094874 0
M  V30 6 C 2.246284 -1.672923 1.360997 0
M  V30 7 O 2.558525 -0.479919 1.978258 0
M  V30 8 C 2.235193 0.761764 1.463542 0
M  V30 9 C 1.602010 1.199872 0.301814 0
M  V30 10 C 1.427934 2.547341 0.078606 0
M  V30 11 C 1.858061 3.506680 0.966040 0
M  V30 12 N 1.761474 4.845977 0.888471 0
M  V30 13 C 2.328185 5.351631 1.998261 0
M  V30 14 C 2.431252 6.804491 2.306626 0
M  V30 15 C 2.775599 4.292277 2.760265 0
M  V30 16 C 2.489544 3.100742 2.126800 0
M  V30 17 C 2.677090 1.734261 2.374088 0
M  V30 18 F 3.312409 1.541089 3.558725 0
M  V30 19 C 3.338913 -2.453158 0.967230 0
M  V30 20 C 3.151658 -3.684818 0.330678 0
M  V30 21 N 1.908041 -4.168804 0.071369 0
M  V30 22 C 0.892617 -3.387897 0.466756 0
M  V30 23 C -0.380657 -3.848682 0.230308 0
M  V30 24 C -1.541271 -3.187999 0.573694 0
M  V30 25 O -2.868161 -3.463211 0.432504 0
M  V30 26 C -3.524176 -4.527631 -0.140615 0
M  V30 27 C -3.372383 -4.756539 -1.608138 0
M  V30 28 N -4.095279 -5.969831 -2.041727 0
M  V30 29 C -2.358516 -4.197886 -2.483616 0
M  V30 30 C -3.773220 -3.588423 -2.508406 0
M  V30 31 H -3.191918 0.506869 2.515108 0
M  V30 32 H -1.714464 0.841341 1.611883 0
M  V30 33 H -1.638033 0.005460 3.227203 0
M  V30 34 H 0.050171 -0.489223 1.977883 0
M  V30 35 H 1.327553 0.353024 -0.287945 0
M  V30 36 H 0.920232 2.737058 -0.865325 0
M  V30 37 H 1.325346 5.387286 0.107237 0
M  V30 38 H 2.719706 7.345555 1.385563 0
M  V30 39 H 1.433504 7.216949 2.591273 0
M  V30 40 H 3.096348 6.963436 3.157607 0
M  V30 41 H 3.281473 4.353668 3.720383 0
M  V30 42 H 4.389043 -2.175559 1.118586 0
M  V30 43 H 3.999041 -4.285023 0.027838 0
M  V30 44 H -0.622266 -4.805496 -0.261255 0
M  V30 45 H -3.240576 -5.460578 0.415175 0
M  V30 46 H -4.644062 -4.458395 0.043395 0
M  V30 47 H -3.363426 -6.700581 -2.174794 0
M  V30 48 H -4.807402 -6.273415 -1.371021 0
M  V30 49 H -1.615030 -3.446454 -2.233740 0
M  V30 50 H -2.092336 -4.812568 -3.397362 0
M  V30 51 H -3.948879 -2.615666 -2.045870 0
M  V30 52 H -4.346709 -3.779624 -3.427200 0
M  V30 END ATOM
M  V30 BEGIN BOND
M  V30 1 1 1 2
M  V30 2 1 2 3
M  V30 3 2 3 4
M  V30 4 1 4 5
M  V30 5 2 5 6
M  V30 6 1 6 7
M  V30 7 1 7 8
M  V30 8 2 8 9
M  V30 9 1 9 10
M  V30 10 2 10 11
M  V30 11 1 11 12
M  V30 12 1 12 13
M  V30 13 1 13 14
M  V30 14 2 13 15
M  V30 15 1 15 16
M  V30 16 2 16 17
M  V30 17 1 17 18
M  V30 18 1 6 19
M  V30 19 2 19 20
M  V30 20 1 20 21
M  V30 21 2 21 22
M  V30 22 1 22 23
M  V30 23 2 23 24
M  V30 24 1 24 25
M  V30 25 1 25 26
M  V30 26 1 26 27
M  V30 27 1 27 28
M  V30 28 1 27 29
M  V30 29 1 29 30
M  V30 30 1 24 3
M  V30 31 1 30 27
M  V30 32 1 22 5
M  V30 33 1 17 8
M  V30 34 1 16 11
M  V30 35 1 1 31
M  V30 36 1 1 32
M  V30 37 1 1 33
M  V30 38 1 4 34
M  V30 39 1 9 35
M  V30 40 1 10 36
M  V30 41 1 12 37
M  V30 42 1 14 38
M  V30 43 1 14 39
M  V30 44 1 14 40
M  V30 45 1 15 41
M  V30 46 1 19 42
M  V30 47 1 20 43
M  V30 48 1 23 44
M  V30 49 1 26 45
M  V30 50 1 26 46
M  V30 51 1 28 47
M  V30 52 1 28 48
M  V30 53 1 29 49
M  V30 54 1 29 50
M  V30 55 1 30 51
M  V30 56 1 30 52
M  V30 END BOND
M  V30 END CTAB
M  END
>  <Dataset>  (51) 
PKIs

>  <Ligand_Instance>  (51) 
nan

>  <PDB_ID>  (51) 
nan

>  <Standardized_SMILES>  (51) 
COc1cc2c(Oc3ccc4[nH]c(C)cc4c3F)ccnc2cc1OCC1(N)CC1

>  <Name>  (51) 
Catequentinib

>  <Pocket>  (51) 
nan

>  <ATP_Site>  (51) 
nan

>  <Peripheral>  (51) 
nan

>  <Num_H_Atoms_ProtBoundConf>  (51) 
nan

>  <Num_Resolved_Atoms>  (51) 
nan

>  <Num_Not_Resolved_Atoms>  (51) 
nan

$$$$
nan
     RDKit          3D

  0  0  0  0  0  0  0  0  0  0999 V3000
M  V30 BEGIN CTAB
M  V30 COUNTS 63 65 0 0 0
M  V30 BEGIN ATOM
M  V30 1 C 5.784614 -1.715903 6.817108 0
M  V30 2 O 4.607671 -2.004149 6.056007 0
M  V30 3 C 4.196213 -1.066988 5.114026 0
M  V30 4 O 4.951450 -0.074785 5.077403 0
M  V30 5 N 3.029974 -1.251385 4.293252 0
M  V30 6 C 2.764286 -0.136229 3.354754 0 CFG=1
M  V30 7 C 2.805946 -0.706766 1.949009 0
M  V30 8 C 1.365039 0.360514 3.621508 0
M  V30 9 N 0.936763 1.450680 2.825913 0
M  V30 10 C 0.593109 1.886670 1.551993 0
M  V30 11 N 0.262712 3.139657 1.114251 0
M  V30 12 C -0.056009 3.387945 -0.141684 0
M  V30 13 C -0.065454 2.381731 -1.058585 0
M  V30 14 C 0.258420 1.102353 -0.673045 0
M  V30 15 C 0.221181 0.100738 -1.728170 0
M  V30 16 C 0.934345 -0.125233 -2.891249 0
M  V30 17 N 0.446653 -1.230999 -3.480378 0
M  V30 18 C 0.960228 -1.781175 -4.742571 0
M  V30 19 C 0.391452 -3.174216 -4.909339 0
M  V30 20 C 0.575702 -0.959464 -5.933759 0
M  V30 21 N -0.554518 -1.728404 -2.742445 0
M  V30 22 C -0.699661 -0.924288 -1.673012 0
M  V30 23 C -1.763214 -1.331724 -0.759977 0
M  V30 24 C -1.754623 -2.577388 -0.124087 0
M  V30 25 C -2.804040 -2.900640 0.730693 0
M  V30 26 Cl -2.779039 -4.465073 1.520296 0
M  V30 27 C -3.820460 -1.994860 0.931095 0
M  V30 28 C -3.873133 -0.752784 0.326127 0
M  V30 29 N -4.921430 0.182379 0.539050 0
M  V30 30 S -6.370955 -0.257145 1.397195 0
M  V30 31 C -7.218565 -1.567617 0.514716 0
M  V30 32 O -7.241420 0.929632 1.623269 0
M  V30 33 O -6.035263 -0.833411 2.748416 0
M  V30 34 C -2.816069 -0.480242 -0.507640 0
M  V30 35 F -2.802270 0.720693 -1.133570 0
M  V30 36 N 0.561770 0.953381 0.598321 0
M  V30 37 H 5.858717 -2.317657 7.722727 0
M  V30 38 H 5.733518 -0.628863 7.054165 0
M  V30 39 H 6.663292 -1.817906 6.126769 0
M  V30 40 H 2.457324 -2.109396 4.388574 0
M  V30 41 H 3.527491 0.624917 3.490547 0
M  V30 42 H 3.573064 -1.541827 1.900078 0
M  V30 43 H 1.859798 -1.210851 1.680713 0
M  V30 44 H 3.082896 0.081835 1.248720 0
M  V30 45 H 1.332958 0.578284 4.715767 0
M  V30 46 H 0.646115 -0.495309 3.504507 0
M  V30 47 H 0.827117 2.308693 3.443853 0
M  V30 48 H -0.280065 4.435410 -0.268342 0
M  V30 49 H -0.334389 2.657538 -2.059523 0
M  V30 50 H 1.729845 0.547890 -3.172142 0
M  V30 51 H 2.068212 -1.841448 -4.592784 0
M  V30 52 H -0.637661 -3.055835 -5.320860 0
M  V30 53 H 0.312895 -3.730871 -3.954128 0
M  V30 54 H 0.969999 -3.759707 -5.661749 0
M  V30 55 H -0.346568 -0.370000 -5.802934 0
M  V30 56 H 0.421497 -1.629143 -6.804084 0
M  V30 57 H 1.450655 -0.313124 -6.220213 0
M  V30 58 H -0.924608 -3.217521 -0.338471 0
M  V30 59 H -4.613438 -2.290321 1.603532 0
M  V30 60 H -4.793748 1.141673 0.163318 0
M  V30 61 H -7.148700 -1.401031 -0.586729 0
M  V30 62 H -8.309358 -1.560005 0.752237 0
M  V30 63 H -6.853731 -2.573499 0.801859 0
M  V30 END ATOM
M  V30 BEGIN BOND
M  V30 1 1 1 2
M  V30 2 1 2 3
M  V30 3 2 3 4
M  V30 4 1 3 5
M  V30 5 1 5 6
M  V30 6 1 6 7
M  V30 7 1 6 8
M  V30 8 1 8 9
M  V30 9 1 9 10
M  V30 10 2 10 11
M  V30 11 1 11 12
M  V30 12 2 12 13
M  V30 13 1 13 14
M  V30 14 1 14 15
M  V30 15 2 15 16
M  V30 16 1 16 17
M  V30 17 1 17 18
M  V30 18 1 18 19
M  V30 19 1 18 20
M  V30 20 1 17 21
M  V30 21 2 21 22
M  V30 22 1 22 23
M  V30 23 2 23 24
M  V30 24 1 24 25
M  V30 25 1 25 26
M  V30 26 2 25 27
M  V30 27 1 27 28
M  V30 28 1 28 29
M  V30 29 1 29 30
M  V30 30 1 30 31
M  V30 31 2 30 32
M  V30 32 2 30 33
M  V30 33 2 28 34
M  V30 34 1 34 35
M  V30 35 2 14 36
M  V30 36 1 36 10
M  V30 37 1 22 15
M  V30 38 1 34 23
M  V30 39 1 1 37
M  V30 40 1 1 38
M  V30 41 1 1 39
M  V30 42 1 5 40
M  V30 43 1 6 41 CFG=3
M  V30 44 1 7 42
M  V30 45 1 7 43
M  V30 46 1 7 44
M  V30 47 1 8 45
M  V30 48 1 8 46
M  V30 49 1 9 47
M  V30 50 1 12 48
M  V30 51 1 13 49
M  V30 52 1 16 50
M  V30 53 1 18 51
M  V30 54 1 19 52
M  V30 55 1 19 53
M  V30 56 1 19 54
M  V30 57 1 20 55
M  V30 58 1 20 56
M  V30 59 1 20 57
M  V30 60 1 24 58
M  V30 61 1 27 59
M  V30 62 1 29 60
M  V30 63 1 31 61
M  V30 64 1 31 62
M  V30 65 1 31 63
M  V30 END BOND
M  V30 END CTAB
M  END
>  <Dataset>  (52) 
PKIs

>  <Ligand_Instance>  (52) 
nan

>  <PDB_ID>  (52) 
nan

>  <Standardized_SMILES>  (52) 
COC(=O)N[C@@H](C)CNc1nccc(-c2cn(C(C)C)nc2-c2cc(Cl)cc(NS(C)(=O)=O)c2F)n1

>  <Name>  (52) 
Encorafenib

>  <Pocket>  (52) 
nan

>  <ATP_Site>  (52) 
nan

>  <Peripheral>  (52) 
nan

>  <Num_H_Atoms_ProtBoundConf>  (52) 
nan

>  <Num_Resolved_Atoms>  (52) 
nan

>  <Num_Not_Resolved_Atoms>  (52) 
nan

$$$$
nan
     RDKit          3D

  0  0  0  0  0  0  0  0  0  0999 V3000
M  V30 BEGIN CTAB
M  V30 COUNTS 53 57 0 0 0
M  V30 BEGIN ATOM
M  V30 1 O 0.011021 0.213885 -2.094052 0
M  V30 2 C 0.255712 -0.052213 -3.294762 0
M  V30 3 N -0.442897 -1.153003 -3.845608 0
M  V30 4 C -1.389178 -2.030786 -3.266022 0
M  V30 5 C -2.026956 -3.017631 -3.986880 0
M  V30 6 N -2.852781 -3.666608 -3.154904 0
M  V30 7 N -2.782078 -3.153696 -1.940624 0
M  V30 8 C -3.457728 -3.538713 -0.848122 0
M  V30 9 C -3.149168 -2.782551 0.292258 0
M  V30 10 C -2.223691 -1.729449 0.283607 0
M  V30 11 N -2.055538 -1.062923 1.559142 0
M  V30 12 C -3.289931 -0.910512 2.374553 0
M  V30 13 C -3.246360 0.560869 2.819814 0
M  V30 14 C -1.809544 0.972930 2.462757 0
M  V30 15 C -1.210289 -0.444514 2.489235 0 CFG=2
M  V30 16 C 0.211534 -0.470552 2.433585 0
M  V30 17 C 1.085372 -0.543095 1.371538 0
M  V30 18 C 2.461832 -0.565569 1.392712 0
M  V30 19 F 3.175147 -0.639829 0.248393 0
M  V30 20 C 3.064784 -0.508865 2.630137 0
M  V30 21 C 2.298807 -0.434460 3.759972 0
M  V30 22 C 0.927693 -0.417040 3.646707 0
M  V30 23 F 0.227095 -0.341342 4.819882 0
M  V30 24 N -1.626698 -1.458675 -0.880225 0
M  V30 25 C -1.891028 -2.152452 -1.990934 0
M  V30 26 N 1.186117 0.731844 -4.019622 0
M  V30 27 C 1.715217 0.728641 -5.392247 0
M  V30 28 C 1.385946 2.172364 -5.792646 0
M  V30 29 C 1.472460 2.950472 -4.472959 0 CFG=2
M  V30 30 O 2.399802 3.951994 -4.635222 0
M  V30 31 C 1.922587 1.865161 -3.496935 0
M  V30 32 H -0.169430 -1.294123 -4.862739 0
M  V30 33 H -1.951615 -3.306789 -5.040772 0
M  V30 34 H -4.175955 -4.342960 -0.802469 0
M  V30 35 H -3.702834 -3.095799 1.194005 0
M  V30 36 H -3.288025 -1.580368 3.236908 0
M  V30 37 H -4.207017 -1.011196 1.811423 0
M  V30 38 H -3.964416 1.185818 2.270894 0
M  V30 39 H -3.315768 0.610095 3.909662 0
M  V30 40 H -1.749050 1.305794 1.425818 0
M  V30 41 H -1.357226 1.621969 3.203334 0
M  V30 42 H -1.507817 -0.805767 3.530289 0
M  V30 43 H 0.632836 -0.587380 0.409132 0
M  V30 44 H 4.132548 -0.523580 2.697385 0
M  V30 45 H 2.769052 -0.389894 4.731176 0
M  V30 46 H 1.218194 -0.012576 -6.018694 0
M  V30 47 H 2.810628 0.629612 -5.313481 0
M  V30 48 H 2.160531 2.503042 -6.498003 0
M  V30 49 H 0.367581 2.173188 -6.189535 0
M  V30 50 H 0.454796 3.292696 -4.230851 0
M  V30 51 H 2.115498 4.715121 -4.078655 0
M  V30 52 H 1.697610 2.099240 -2.450947 0
M  V30 53 H 3.025394 1.735634 -3.675999 0
M  V30 END ATOM
M  V30 BEGIN BOND
M  V30 1 2 1 2
M  V30 2 1 2 3
M  V30 3 1 3 4
M  V30 4 1 4 5
M  V30 5 2 5 6
M  V30 6 1 6 7
M  V30 7 1 7 8
M  V30 8 2 8 9
M  V30 9 1 9 10
M  V30 10 1 10 11
M  V30 11 1 11 12
M  V30 12 1 12 13
M  V30 13 1 13 14
M  V30 14 1 14 15
M  V30 15 1 15 16
M  V30 16 2 16 17
M  V30 17 1 17 18
M  V30 18 1 18 19
M  V30 19 2 18 20
M  V30 20 1 20 21
M  V30 21 2 21 22
M  V30 22 1 22 23
M  V30 23 2 10 24
M  V30 24 1 24 25
M  V30 25 1 2 26
M  V30 26 1 26 27
M  V30 27 1 27 28
M  V30 28 1 28 29
M  V30 29 1 29 30
M  V30 30 1 29 31
M  V30 31 2 25 4
M  V30 32 1 31 26
M  V30 33 1 25 7
M  V30 34 1 15 11
M  V30 35 1 22 16
M  V30 36 1 3 32
M  V30 37 1 5 33
M  V30 38 1 8 34
M  V30 39 1 9 35
M  V30 40 1 12 36
M  V30 41 1 12 37
M  V30 42 1 13 38
M  V30 43 1 13 39
M  V30 44 1 14 40
M  V30 45 1 14 41
M  V30 46 1 15 42 CFG=1
M  V30 47 1 17 43
M  V30 48 1 20 44
M  V30 49 1 21 45
M  V30 50 1 27 46
M  V30 51 1 27 47
M  V30 52 1 28 48
M  V30 53 1 28 49
M  V30 54 1 29 50 CFG=1
M  V30 55 1 30 51
M  V30 56 1 31 52
M  V30 57 1 31 53
M  V30 END BOND
M  V30 END CTAB
M  END
>  <Dataset>  (53) 
PKIs

>  <Ligand_Instance>  (53) 
nan

>  <PDB_ID>  (53) 
nan

>  <Standardized_SMILES>  (53) 
O=C(Nc1cnn2ccc(N3CCC[C@@H]3c3cc(F)ccc3F)nc12)N1CC[C@H](O)C1

>  <Name>  (53) 
Larotrectinib

>  <Pocket>  (53) 
nan

>  <ATP_Site>  (53) 
nan

>  <Peripheral>  (53) 
nan

>  <Num_H_Atoms_ProtBoundConf>  (53) 
nan

>  <Num_Resolved_Atoms>  (53) 
nan

>  <Num_Not_Resolved_Atoms>  (53) 
nan

$$$$
nan
     RDKit          3D

  0  0  0  0  0  0  0  0  0  0999 V3000
M  V30 BEGIN CTAB
M  V30 COUNTS 61 66 0 0 0
M  V30 BEGIN ATOM
M  V30 1 C 1.473083 -3.439751 6.187474 0
M  V30 2 O 0.700390 -3.057149 5.076416 0
M  V30 3 C 1.322011 -2.387314 4.023606 0
M  V30 4 C 2.691935 -2.144146 4.158687 0
M  V30 5 C 3.373123 -1.486089 3.156274 0
M  V30 6 N 4.697749 -1.235477 3.258448 0
M  V30 7 C 5.330302 -0.580312 2.242444 0
M  V30 8 N 4.709052 -0.160265 1.125609 0
M  V30 9 C 3.373706 -0.386962 0.971096 0
M  V30 10 N 2.576319 -0.001324 -0.150377 0
M  V30 11 C 1.978453 1.268022 0.007699 0
M  V30 12 C 2.151005 2.049552 1.129303 0
M  V30 13 C 1.558571 3.300924 1.284160 0
M  V30 14 C 0.767576 3.771795 0.269124 0
M  V30 15 F 0.152066 4.997646 0.354582 0
M  V30 16 C 0.534010 3.052027 -0.905158 0
M  V30 17 Cl -0.469293 3.646224 -2.195646 0
M  V30 18 C 1.159562 1.823706 -0.973922 0
M  V30 19 C 2.751768 -1.050232 2.007655 0
M  V30 20 C 1.407512 -1.317057 1.931748 0
M  V30 21 C 0.645237 -1.964406 2.875464 0
M  V30 22 O -0.674406 -2.280862 2.904999 0
M  V30 23 C -1.676627 -2.063167 1.978113 0
M  V30 24 C -1.517881 -2.710833 0.651224 0
M  V30 25 N -2.608281 -2.433305 -0.276630 0
M  V30 26 C -2.267859 -3.153718 -1.492060 0
M  V30 27 C -2.017006 -2.117296 -2.520692 0
M  V30 28 C -0.527207 -1.748354 -2.668324 0
M  V30 29 C -1.417361 -2.308622 -3.814001 0
M  V30 30 C -2.897976 -0.990885 -2.096126 0
M  V30 31 C -2.683609 -1.030092 -0.597353 0
M  V30 32 O -2.567233 0.218676 -2.673276 0
M  V30 33 C -3.765466 0.955147 -2.758315 0
M  V30 34 C -4.833437 -0.011465 -2.304677 0
M  V30 35 O -4.225108 -1.250996 -2.432744 0
M  V30 36 H 0.896965 -4.106278 6.867192 0
M  V30 37 H 1.815879 -2.568682 6.799800 0
M  V30 38 H 2.330063 -4.048309 5.802039 0
M  V30 39 H 3.293224 -2.434461 5.008804 0
M  V30 40 H 6.394364 -0.379775 2.326397 0
M  V30 41 H 2.393370 -0.522055 -1.028552 0
M  V30 42 H 2.778277 1.690926 1.949936 0
M  V30 43 H 1.726268 3.882452 2.193078 0
M  V30 44 H 0.972391 1.272759 -1.888908 0
M  V30 45 H 0.860193 -0.993372 1.062020 0
M  V30 46 H -1.735910 -0.960603 1.796825 0
M  V30 47 H -2.692119 -2.352107 2.360371 0
M  V30 48 H -1.594106 -3.824722 0.829230 0
M  V30 49 H -0.591820 -2.557398 0.112634 0
M  V30 50 H -1.436400 -3.872998 -1.362039 0
M  V30 51 H -3.193239 -3.736400 -1.762507 0
M  V30 52 H 0.226428 -2.480138 -2.290566 0
M  V30 53 H -0.251074 -0.685515 -2.720438 0
M  V30 54 H -1.211688 -3.336537 -4.151842 0
M  V30 55 H -1.613038 -1.575275 -4.614261 0
M  V30 56 H -3.439156 -0.465406 -0.036157 0
M  V30 57 H -1.647068 -0.623434 -0.441451 0
M  V30 58 H -3.697560 1.866060 -2.110156 0
M  V30 59 H -3.955384 1.204665 -3.825395 0
M  V30 60 H -5.743321 0.045357 -2.938025 0
M  V30 61 H -5.118039 0.126989 -1.237421 0
M  V30 END ATOM
M  V30 BEGIN BOND
M  V30 1 1 1 2
M  V30 2 1 2 3
M  V30 3 2 3 4
M  V30 4 1 4 5
M  V30 5 2 5 6
M  V30 6 1 6 7
M  V30 7 2 7 8
M  V30 8 1 8 9
M  V30 9 1 9 10
M  V30 10 1 10 11
M  V30 11 2 11 12
M  V30 12 1 12 13
M  V30 13 2 13 14
M  V30 14 1 14 15
M  V30 15 1 14 16
M  V30 16 1 16 17
M  V30 17 2 16 18
M  V30 18 2 9 19
M  V30 19 1 19 20
M  V30 20 2 20 21
M  V30 21 1 21 22
M  V30 22 1 22 23
M  V30 23 1 23 24
M  V30 24 1 24 25
M  V30 25 1 25 26
M  V30 26 1 26 27
M  V30 27 1 27 28
M  V30 28 1 28 29
M  V30 29 1 27 30
M  V30 30 1 30 31
M  V30 31 1 30 32
M  V30 32 1 32 33
M  V30 33 1 33 34
M  V30 34 1 34 35
M  V30 35 1 21 3
M  V30 36 1 31 25
M  V30 37 1 19 5
M  V30 38 1 29 27
M  V30 39 1 35 30
M  V30 40 1 18 11
M  V30 41 1 1 36
M  V30 42 1 1 37
M  V30 43 1 1 38
M  V30 44 1 4 39
M  V30 45 1 7 40
M  V30 46 1 10 41
M  V30 47 1 12 42
M  V30 48 1 13 43
M  V30 49 1 18 44
M  V30 50 1 20 45
M  V30 51 1 23 46
M  V30 52 1 23 47
M  V30 53 1 24 48
M  V30 54 1 24 49
M  V30 55 1 26 50
M  V30 56 1 26 51
M  V30 57 1 28 52
M  V30 58 1 28 53
M  V30 59 1 29 54
M  V30 60 1 29 55
M  V30 61 1 31 56
M  V30 62 1 31 57
M  V30 63 1 33 58
M  V30 64 1 33 59
M  V30 65 1 34 60
M  V30 66 1 34 61
M  V30 END BOND
M  V30 END CTAB
M  END
>  <Dataset>  (54) 
PKIs

>  <Ligand_Instance>  (54) 
nan

>  <PDB_ID>  (54) 
nan

>  <Standardized_SMILES>  (54) 
COc1cc2ncnc(Nc3ccc(F)c(Cl)c3)c2cc1OCCN1CC2(CC2)C2(C1)OCCO2

>  <Name>  (54) 
Simotinib

>  <Pocket>  (54) 
nan

>  <ATP_Site>  (54) 
nan

>  <Peripheral>  (54) 
nan

>  <Num_H_Atoms_ProtBoundConf>  (54) 
nan

>  <Num_Resolved_Atoms>  (54) 
nan

>  <Num_Not_Resolved_Atoms>  (54) 
nan

$$$$
nan
     RDKit          3D

  0  0  0  0  0  0  0  0  0  0999 V3000
M  V30 BEGIN CTAB
M  V30 COUNTS 58 61 0 0 0
M  V30 BEGIN ATOM
M  V30 1 C 1.099246 -4.673393 4.909477 0
M  V30 2 O 0.792553 -3.851348 3.815074 0
M  V30 3 C 1.548886 -2.810917 3.367338 0
M  V30 4 C 2.707542 -2.570729 4.072809 0
M  V30 5 C 3.501530 -1.528552 3.657439 0
M  V30 6 N 4.640417 -1.239257 4.278617 0
M  V30 7 C 5.454981 -0.222786 3.887628 0
M  V30 8 N 5.057357 0.495872 2.825764 0
M  V30 9 C 3.914560 0.239466 2.168661 0
M  V30 10 N 3.604671 1.061178 1.057145 0
M  V30 11 C 2.994582 2.345277 1.218063 0
M  V30 12 C 2.577115 3.126575 0.167829 0
M  V30 13 C 2.010057 4.369604 0.460309 0
M  V30 14 C 1.858450 4.831679 1.762007 0
M  V30 15 F 1.305943 6.040899 2.014012 0
M  V30 16 C 2.276521 4.049656 2.824103 0
M  V30 17 Cl 2.124221 4.562543 4.503066 0
M  V30 18 C 2.831958 2.826738 2.493329 0
M  V30 19 C 3.115562 -0.780971 2.576222 0
M  V30 20 C 1.951597 -1.054417 1.901296 0
M  V30 21 C 1.126837 -2.089682 2.282557 0
M  V30 22 N -0.042322 -2.264675 1.518456 0
M  V30 23 C -1.037461 -3.222999 1.401541 0
M  V30 24 O -0.923822 -4.231045 2.135835 0
M  V30 25 C -2.199915 -3.204314 0.532509 0
M  V30 26 C -2.576429 -2.265480 -0.323565 0
M  V30 27 C -3.701659 -2.115838 -1.247170 0
M  V30 28 N -3.363414 -1.981116 -2.627565 0
M  V30 29 C -2.705140 -0.785139 -3.013189 0
M  V30 30 C -3.518430 0.219761 -3.756964 0
M  V30 31 C -4.164919 -0.385222 -4.955459 0
M  V30 32 C -4.194644 -1.887915 -4.928211 0
M  V30 33 C -4.413615 -2.411699 -3.514848 0
M  V30 34 H 1.003712 -4.174365 5.884925 0
M  V30 35 H 0.512056 -5.615531 4.854624 0
M  V30 36 H 2.161412 -4.982075 4.807066 0
M  V30 37 H 3.017555 -3.144779 4.915658 0
M  V30 38 H 6.348084 -0.077977 4.456946 0
M  V30 39 H 3.815227 0.745627 0.065008 0
M  V30 40 H 2.696231 2.764413 -0.844347 0
M  V30 41 H 1.684265 4.974326 -0.393992 0
M  V30 42 H 3.152345 2.229418 3.340604 0
M  V30 43 H 1.725929 -0.400921 1.046858 0
M  V30 44 H -0.304649 -1.499928 0.825929 0
M  V30 45 H -2.888867 -4.017310 0.488506 0
M  V30 46 H -1.918097 -1.382337 -0.382016 0
M  V30 47 H -4.343902 -1.238448 -0.951988 0
M  V30 48 H -4.385697 -2.991855 -1.109237 0
M  V30 49 H -2.192582 -0.360248 -2.127505 0
M  V30 50 H -1.869029 -1.086119 -3.712077 0
M  V30 51 H -2.797954 1.042026 -4.045279 0
M  V30 52 H -4.291338 0.725686 -3.160852 0
M  V30 53 H -3.667816 -0.047176 -5.874530 0
M  V30 54 H -5.234432 -0.033597 -5.059737 0
M  V30 55 H -5.066045 -2.226777 -5.519026 0
M  V30 56 H -3.243266 -2.258134 -5.344150 0
M  V30 57 H -4.437961 -3.517696 -3.588764 0
M  V30 58 H -5.383388 -2.055829 -3.149472 0
M  V30 END ATOM
M  V30 BEGIN BOND
M  V30 1 1 1 2
M  V30 2 1 2 3
M  V30 3 2 3 4
M  V30 4 1 4 5
M  V30 5 2 5 6
M  V30 6 1 6 7
M  V30 7 2 7 8
M  V30 8 1 8 9
M  V30 9 1 9 10
M  V30 10 1 10 11
M  V30 11 2 11 12
M  V30 12 1 12 13
M  V30 13 2 13 14
M  V30 14 1 14 15
M  V30 15 1 14 16
M  V30 16 1 16 17
M  V30 17 2 16 18
M  V30 18 2 9 19
M  V30 19 1 19 20
M  V30 20 2 20 21
M  V30 21 1 21 22
M  V30 22 1 22 23
M  V30 23 2 23 24
M  V30 24 1 23 25
M  V30 25 2 25 26
M  V30 26 1 26 27
M  V30 27 1 27 28
M  V30 28 1 28 29
M  V30 29 1 29 30
M  V30 30 1 30 31
M  V30 31 1 31 32
M  V30 32 1 32 33
M  V30 33 1 21 3
M  V30 34 1 33 28
M  V30 35 1 19 5
M  V30 36 1 18 11
M  V30 37 1 1 34
M  V30 38 1 1 35
M  V30 39 1 1 36
M  V30 40 1 4 37
M  V30 41 1 7 38
M  V30 42 1 10 39
M  V30 43 1 12 40
M  V30 44 1 13 41
M  V30 45 1 18 42
M  V30 46 1 20 43
M  V30 47 1 22 44
M  V30 48 1 25 45
M  V30 49 1 26 46
M  V30 50 1 27 47
M  V30 51 1 27 48
M  V30 52 1 29 49
M  V30 53 1 29 50
M  V30 54 1 30 51
M  V30 55 1 30 52
M  V30 56 1 31 53
M  V30 57 1 31 54
M  V30 58 1 32 55
M  V30 59 1 32 56
M  V30 60 1 33 57
M  V30 61 1 33 58
M  V30 END BOND
M  V30 END CTAB
M  END
>  <Dataset>  (55) 
PKIs

>  <Ligand_Instance>  (55) 
nan

>  <PDB_ID>  (55) 
nan

>  <Standardized_SMILES>  (55) 
COc1cc2ncnc(Nc3ccc(F)c(Cl)c3)c2cc1NC(=O)/C=C/CN1CCCCC1

>  <Name>  (55) 
Dacomitinib

>  <Pocket>  (55) 
nan

>  <ATP_Site>  (55) 
nan

>  <Peripheral>  (55) 
nan

>  <Num_H_Atoms_ProtBoundConf>  (55) 
nan

>  <Num_Resolved_Atoms>  (55) 
nan

>  <Num_Not_Resolved_Atoms>  (55) 
nan

$$$$
nan
     RDKit          3D

  0  0  0  0  0  0  0  0  0  0999 V3000
M  V30 BEGIN CTAB
M  V30 COUNTS 48 51 0 0 0
M  V30 BEGIN ATOM
M  V30 1 C -0.539279 -6.150850 4.430263 0
M  V30 2 N -0.437916 -4.785273 4.021054 0
M  V30 3 C 0.801485 -4.250058 3.614370 0
M  V30 4 O 1.612525 -5.229374 3.726197 0
M  V30 5 C 1.307212 -2.982696 3.150192 0
M  V30 6 C 2.639539 -2.859030 2.834662 0
M  V30 7 C 3.767067 -3.814647 2.865845 0
M  V30 8 O 2.849777 -1.634849 2.445980 0
M  V30 9 C 1.791079 -0.887101 2.458677 0
M  V30 10 C 1.475976 0.408346 2.160635 0
M  V30 11 C 0.173553 0.911580 2.293503 0
M  V30 12 O -0.038882 2.199291 1.977808 0
M  V30 13 C -0.381551 2.868635 0.866494 0
M  V30 14 N -0.431458 4.191710 1.219700 0
M  V30 15 C -0.756440 5.152100 0.302457 0
M  V30 16 N -1.040080 4.825845 -0.987457 0
M  V30 17 C -1.008317 3.548242 -1.395194 0
M  V30 18 C -1.270090 3.066289 -2.660459 0
M  V30 19 C -1.204881 1.721956 -2.959031 0
M  V30 20 O -1.473624 1.270436 -4.239845 0
M  V30 21 C -1.821462 2.081398 -5.312728 0
M  V30 22 C -0.865599 0.789472 -1.971757 0
M  V30 23 O -0.818134 -0.548030 -2.339434 0
M  V30 24 C -0.489528 -1.552617 -1.425609 0
M  V30 25 C -0.603081 1.262808 -0.707140 0
M  V30 26 C -0.678625 2.608878 -0.449935 0
M  V30 27 C -0.797161 0.011529 2.751267 0
M  V30 28 C -0.477717 -1.292814 3.050898 0
M  V30 29 C 0.813560 -1.731182 2.902106 0
M  V30 30 H -1.483771 -6.240018 5.013524 0
M  V30 31 H 0.322309 -6.404338 5.081968 0
M  V30 32 H -0.525031 -6.784853 3.517402 0
M  V30 33 H -1.204330 -4.101863 3.983797 0
M  V30 34 H 3.423347 -4.741423 2.339487 0
M  V30 35 H 3.914416 -4.105676 3.940148 0
M  V30 36 H 4.692004 -3.456873 2.422492 0
M  V30 37 H 2.279329 1.058319 1.808506 0
M  V30 38 H -0.830300 6.218848 0.450602 0
M  V30 39 H -1.531989 3.825248 -3.406155 0
M  V30 40 H -2.781442 2.611301 -5.042650 0
M  V30 41 H -2.042376 1.450124 -6.193464 0
M  V30 42 H -1.044049 2.811959 -5.596811 0
M  V30 43 H -1.376236 -1.811748 -0.839014 0
M  V30 44 H -0.144528 -2.437274 -2.017745 0
M  V30 45 H 0.379654 -1.216647 -0.828511 0
M  V30 46 H -0.354084 0.503419 -0.012499 0
M  V30 47 H -1.794350 0.389273 2.855120 0
M  V30 48 H -1.252495 -1.934987 3.395008 0
M  V30 END ATOM
M  V30 BEGIN BOND
M  V30 1 1 1 2
M  V30 2 1 2 3
M  V30 3 2 3 4
M  V30 4 1 3 5
M  V30 5 2 5 6
M  V30 6 1 6 7
M  V30 7 1 6 8
M  V30 8 1 8 9
M  V30 9 2 9 10
M  V30 10 1 10 11
M  V30 11 1 11 12
M  V30 12 1 12 13
M  V30 13 2 13 14
M  V30 14 1 14 15
M  V30 15 2 15 16
M  V30 16 1 16 17
M  V30 17 2 17 18
M  V30 18 1 18 19
M  V30 19 1 19 20
M  V30 20 1 20 21
M  V30 21 2 19 22
M  V30 22 1 22 23
M  V30 23 1 23 24
M  V30 24 1 22 25
M  V30 25 2 25 26
M  V30 26 2 11 27
M  V30 27 1 27 28
M  V30 28 2 28 29
M  V30 29 1 29 5
M  V30 30 1 29 9
M  V30 31 1 26 13
M  V30 32 1 26 17
M  V30 33 1 1 30
M  V30 34 1 1 31
M  V30 35 1 1 32
M  V30 36 1 2 33
M  V30 37 1 7 34
M  V30 38 1 7 35
M  V30 39 1 7 36
M  V30 40 1 10 37
M  V30 41 1 15 38
M  V30 42 1 18 39
M  V30 43 1 21 40
M  V30 44 1 21 41
M  V30 45 1 21 42
M  V30 46 1 24 43
M  V30 47 1 24 44
M  V30 48 1 24 45
M  V30 49 1 25 46
M  V30 50 1 27 47
M  V30 51 1 28 48
M  V30 END BOND
M  V30 END CTAB
M  END
>  <Dataset>  (56) 
PKIs

>  <Ligand_Instance>  (56) 
nan

>  <PDB_ID>  (56) 
nan

>  <Standardized_SMILES>  (56) 
CNC(=O)c1c(C)oc2cc(Oc3ncnc4cc(OC)c(OC)cc34)ccc12

>  <Name>  (56) 
Fruquintinib

>  <Pocket>  (56) 
nan

>  <ATP_Site>  (56) 
nan

>  <Peripheral>  (56) 
nan

>  <Num_H_Atoms_ProtBoundConf>  (56) 
nan

>  <Num_Resolved_Atoms>  (56) 
nan

>  <Num_Not_Resolved_Atoms>  (56) 
nan

$$$$
nan
     RDKit          3D

  0  0  0  0  0  0  0  0  0  0999 V3000
M  V30 BEGIN CTAB
M  V30 COUNTS 47 51 0 0 0
M  V30 BEGIN ATOM
M  V30 1 C -1.280648 0.860048 2.994106 0
M  V30 2 C 0.070950 0.385637 2.562849 0 CFG=2
M  V30 3 N 0.756180 1.410442 1.878975 0
M  V30 4 C 1.449614 2.447617 1.187066 0
M  V30 5 N 1.899117 3.646457 1.574978 0
M  V30 6 C 2.538247 4.482423 0.756297 0
M  V30 7 N 2.710275 4.059697 -0.485985 0
M  V30 8 C 2.309416 2.901584 -0.973308 0
M  V30 9 N 2.455882 2.439105 -2.207894 0
M  V30 10 C 1.859506 1.228853 -2.133153 0
M  V30 11 N 1.373937 0.965973 -0.915829 0
M  V30 12 C 1.636617 2.010595 -0.128076 0
M  V30 13 C 0.089012 -0.895094 1.808323 0
M  V30 14 C 1.419902 -1.211219 1.492598 0
M  V30 15 C 1.800129 -2.330051 0.789654 0
M  V30 16 C 3.096833 -2.669004 0.465288 0
M  V30 17 C 3.368286 -3.818372 -0.243952 0
M  V30 18 C 2.367509 -4.696122 -0.671247 0
M  V30 19 C 1.084259 -4.341010 -0.338534 0
M  V30 20 Cl -0.196760 -5.421058 -0.859803 0
M  V30 21 C 0.814903 -3.196263 0.367849 0
M  V30 22 C -0.482871 -2.866941 0.688076 0
M  V30 23 O -1.373857 -3.642319 0.311400 0
M  V30 24 N -0.807920 -1.764842 1.375780 0
M  V30 25 C -2.180188 -1.557104 1.619562 0
M  V30 26 C -2.786528 -1.105371 0.432887 0
M  V30 27 C -4.141945 -0.841185 0.360755 0
M  V30 28 C -4.941580 -1.019203 1.474192 0
M  V30 29 C -4.356038 -1.461161 2.639939 0
M  V30 30 C -3.025700 -1.724123 2.723213 0
M  V30 31 H -2.051403 0.916828 2.241061 0
M  V30 32 H -1.170473 1.949126 3.343280 0
M  V30 33 H -1.540250 0.343844 3.944998 0
M  V30 34 H 0.669200 0.102380 3.506263 0
M  V30 35 H 0.722977 1.991620 2.785735 0
M  V30 36 H 2.823964 5.394398 1.240367 0
M  V30 37 H 2.913409 2.892533 -3.026158 0
M  V30 38 H 1.757151 0.503144 -2.951177 0
M  V30 39 H 2.315092 -0.621985 1.757672 0
M  V30 40 H 3.880989 -2.004551 0.786854 0
M  V30 41 H 4.380201 -4.107492 -0.511169 0
M  V30 42 H 2.580059 -5.589734 -1.223265 0
M  V30 43 H -2.311165 -0.911831 -0.532485 0
M  V30 44 H -4.671303 -0.494296 -0.511088 0
M  V30 45 H -6.004605 -0.856047 1.570631 0
M  V30 46 H -4.823363 -1.654471 3.597993 0
M  V30 47 H -2.406932 -2.075726 3.556077 0
M  V30 END ATOM
M  V30 BEGIN BOND
M  V30 1 1 1 2
M  V30 2 1 2 3
M  V30 3 1 3 4
M  V30 4 2 4 5
M  V30 5 1 5 6
M  V30 6 2 6 7
M  V30 7 1 7 8
M  V30 8 1 8 9
M  V30 9 1 9 10
M  V30 10 2 10 11
M  V30 11 1 11 12
M  V30 12 1 2 13
M  V30 13 2 13 14
M  V30 14 1 14 15
M  V30 15 2 15 16
M  V30 16 1 16 17
M  V30 17 2 17 18
M  V30 18 1 18 19
M  V30 19 1 19 20
M  V30 20 2 19 21
M  V30 21 1 21 22
M  V30 22 2 22 23
M  V30 23 1 22 24
M  V30 24 1 24 25
M  V30 25 2 25 26
M  V30 26 1 26 27
M  V30 27 2 27 28
M  V30 28 1 28 29
M  V30 29 2 29 30
M  V30 30 1 12 4
M  V30 31 1 24 13
M  V30 32 1 30 25
M  V30 33 2 12 8
M  V30 34 1 21 15
M  V30 35 1 1 31
M  V30 36 1 1 32
M  V30 37 1 1 33
M  V30 38 1 2 34 CFG=1
M  V30 39 1 3 35
M  V30 40 1 6 36
M  V30 41 1 9 37
M  V30 42 1 10 38
M  V30 43 1 14 39
M  V30 44 1 16 40
M  V30 45 1 17 41
M  V30 46 1 18 42
M  V30 47 1 26 43
M  V30 48 1 27 44
M  V30 49 1 28 45
M  V30 50 1 29 46
M  V30 51 1 30 47
M  V30 END BOND
M  V30 END CTAB
M  END
>  <Dataset>  (57) 
PKIs

>  <Ligand_Instance>  (57) 
nan

>  <PDB_ID>  (57) 
nan

>  <Standardized_SMILES>  (57) 
C[C@H](Nc1ncnc2[nH]cnc12)c1cc2cccc(Cl)c2c(=O)n1-c1ccccc1

>  <Name>  (57) 
Duvelisib

>  <Pocket>  (57) 
nan

>  <ATP_Site>  (57) 
nan

>  <Peripheral>  (57) 
nan

>  <Num_H_Atoms_ProtBoundConf>  (57) 
nan

>  <Num_Resolved_Atoms>  (57) 
nan

>  <Num_Not_Resolved_Atoms>  (57) 
nan

$$$$
nan
     RDKit          3D

  0  0  0  0  0  0  0  0  0  0999 V3000
M  V30 BEGIN CTAB
M  V30 COUNTS 66 69 0 0 0
M  V30 BEGIN ATOM
M  V30 1 C 3.803573 -1.844683 3.429114 0
M  V30 2 O 3.096186 -0.770273 3.987245 0
M  V30 3 C 2.443868 0.153735 3.210099 0
M  V30 4 C 2.332944 0.262364 1.848896 0
M  V30 5 C 1.648865 1.235512 1.161929 0
M  V30 6 N 1.639395 1.246812 -0.261380 0
M  V30 7 C 0.686045 2.137630 -0.869516 0
M  V30 8 N 0.575972 3.461355 -1.049270 0
M  V30 9 C -0.486049 3.990265 -1.692308 0
M  V30 10 C -1.493696 3.189610 -2.186863 0
M  V30 11 F -2.543934 3.754770 -2.826373 0
M  V30 12 C -1.389694 1.811875 -2.006437 0
M  V30 13 N -2.435218 0.935912 -2.501858 0
M  V30 14 C -2.098391 -0.444632 -2.384229 0
M  V30 15 C -1.989305 -0.968383 -3.677979 0
M  V30 16 C -1.634257 -2.316871 -3.819161 0
M  V30 17 C -1.410388 -3.055275 -2.677098 0
M  V30 18 C -1.527303 -2.501407 -1.402850 0
M  V30 19 N -1.872279 -1.199092 -1.296083 0
M  V30 20 N -1.257779 -3.214802 -0.183161 0
M  V30 21 C -1.342484 -2.690616 1.137758 0
M  V30 22 O -2.527275 -2.852144 1.791257 0
M  V30 23 P -3.886970 -2.188202 1.123281 0
M  V30 24 O -5.046097 -2.505515 2.088552 0
M  V30 25 O -4.349753 -2.836691 -0.353061 0
M  V30 26 O -3.834791 -0.498806 1.038166 0
M  V30 27 C -0.843299 -4.579430 -0.376862 0
M  V30 28 O -1.036740 -5.405117 0.570082 0
M  V30 29 C -0.210659 -4.887506 -1.712943 0
M  V30 30 C -0.033218 -6.375947 -1.865950 0
M  V30 31 C 1.128939 -4.198167 -1.716275 0
M  V30 32 O -1.047666 -4.421404 -2.759192 0
M  V30 33 N -0.297372 1.347333 -1.352139 0
M  V30 34 C 1.017795 2.186929 1.931943 0
M  V30 35 C 1.067113 2.169768 3.323410 0
M  V30 36 O 0.440488 3.115991 4.114159 0
M  V30 37 C -0.282504 4.151206 3.477534 0
M  V30 38 C 1.786248 1.144604 3.953882 0
M  V30 39 O 1.816964 1.158629 5.363018 0
M  V30 40 C 2.908474 1.887157 5.936639 0
M  V30 41 H 4.803745 -2.007563 3.902874 0
M  V30 42 H 3.223671 -2.811301 3.556759 0
M  V30 43 H 3.936930 -1.759461 2.335316 0
M  V30 44 H 2.833081 -0.493620 1.276775 0
M  V30 45 H 2.307919 0.621187 -0.772694 0
M  V30 46 H -0.450205 5.061716 -1.765010 0
M  V30 47 H -3.290985 1.376713 -2.885594 0
M  V30 48 H -2.137002 -0.490217 -4.627131 0
M  V30 49 H -1.531349 -2.802242 -4.795539 0
M  V30 50 H -1.010197 -1.613329 1.094890 0
M  V30 51 H -0.540422 -3.173881 1.768918 0
M  V30 52 H -4.589166 -2.091403 -0.983332 0
M  V30 53 H -4.651502 -0.132257 0.645235 0
M  V30 54 H 1.034985 -6.660713 -1.695825 0
M  V30 55 H -0.730277 -6.972445 -1.232144 0
M  V30 56 H -0.236432 -6.715590 -2.916219 0
M  V30 57 H 1.369697 -3.739832 -2.696798 0
M  V30 58 H 1.894458 -4.953683 -1.432526 0
M  V30 59 H 1.192547 -3.404032 -0.922987 0
M  V30 60 H 0.471717 2.966923 1.420066 0
M  V30 61 H 0.422137 4.895753 3.006577 0
M  V30 62 H -0.993236 4.674259 4.161018 0
M  V30 63 H -0.925848 3.789207 2.638547 0
M  V30 64 H 3.871607 1.631372 5.422165 0
M  V30 65 H 2.757129 2.984665 5.872016 0
M  V30 66 H 3.008030 1.658979 7.025904 0
M  V30 END ATOM
M  V30 BEGIN BOND
M  V30 1 1 1 2
M  V30 2 1 2 3
M  V30 3 2 3 4
M  V30 4 1 4 5
M  V30 5 1 5 6
M  V30 6 1 6 7
M  V30 7 2 7 8
M  V30 8 1 8 9
M  V30 9 2 9 10
M  V30 10 1 10 11
M  V30 11 1 10 12
M  V30 12 1 12 13
M  V30 13 1 13 14
M  V30 14 2 14 15
M  V30 15 1 15 16
M  V30 16 2 16 17
M  V30 17 1 17 18
M  V30 18 2 18 19
M  V30 19 1 18 20
M  V30 20 1 20 21
M  V30 21 1 21 22
M  V30 22 1 22 23
M  V30 23 2 23 24
M  V30 24 1 23 25
M  V30 25 1 23 26
M  V30 26 1 20 27
M  V30 27 2 27 28
M  V30 28 1 27 29
M  V30 29 1 29 30
M  V30 30 1 29 31
M  V30 31 1 29 32
M  V30 32 2 12 33
M  V30 33 2 5 34
M  V30 34 1 34 35
M  V30 35 1 35 36
M  V30 36 1 36 37
M  V30 37 2 35 38
M  V30 38 1 38 39
M  V30 39 1 39 40
M  V30 40 1 38 3
M  V30 41 1 33 7
M  V30 42 1 19 14
M  V30 43 1 32 17
M  V30 44 1 1 41
M  V30 45 1 1 42
M  V30 46 1 1 43
M  V30 47 1 4 44
M  V30 48 1 6 45
M  V30 49 1 9 46
M  V30 50 1 13 47
M  V30 51 1 15 48
M  V30 52 1 16 49
M  V30 53 1 21 50
M  V30 54 1 21 51
M  V30 55 1 25 52
M  V30 56 1 26 53
M  V30 57 1 30 54
M  V30 58 1 30 55
M  V30 59 1 30 56
M  V30 60 1 31 57
M  V30 61 1 31 58
M  V30 62 1 31 59
M  V30 63 1 34 60
M  V30 64 1 37 61
M  V30 65 1 37 62
M  V30 66 1 37 63
M  V30 67 1 40 64
M  V30 68 1 40 65
M  V30 69 1 40 66
M  V30 END BOND
M  V30 END CTAB
M  END
>  <Dataset>  (58) 
PKIs

>  <Ligand_Instance>  (58) 
nan

>  <PDB_ID>  (58) 
nan

>  <Standardized_SMILES>  (58) 
COc1cc(Nc2ncc(F)c(Nc3ccc4c(n3)N(COP(=O)(O)O)C(=O)C(C)(C)O4)n2)cc(OC)c1OC

>  <Name>  (58) 
Fostamatinib

>  <Pocket>  (58) 
nan

>  <ATP_Site>  (58) 
nan

>  <Peripheral>  (58) 
nan

>  <Num_H_Atoms_ProtBoundConf>  (58) 
nan

>  <Num_Resolved_Atoms>  (58) 
nan

>  <Num_Not_Resolved_Atoms>  (58) 
nan

$$$$
nan
     RDKit          3D

  0  0  0  0  0  0  0  0  0  0999 V3000
M  V30 BEGIN CTAB
M  V30 COUNTS 84 88 0 0 0
M  V30 BEGIN ATOM
M  V30 1 C 4.699334 -1.693786 3.973625 0
M  V30 2 C 3.469060 -2.233695 3.283282 0
M  V30 3 C 3.446705 -1.906214 1.844087 0
M  V30 4 N 3.733985 -2.838061 0.926498 0
M  V30 5 C 3.714803 -2.546519 -0.382316 0
M  V30 6 C 4.050750 -3.662643 -1.256363 0
M  V30 7 N 4.380500 -4.964971 -0.729053 0
M  V30 8 O 4.177791 -3.959727 -2.447768 0
M  V30 9 C 3.409384 -1.307114 -0.895714 0
M  V30 10 N 3.422197 -1.206813 -2.290668 0
M  V30 11 C 2.007374 -1.130664 -2.537653 0
M  V30 12 C 1.330892 0.048063 -2.219624 0
M  V30 13 C -0.045623 0.261267 -2.394528 0
M  V30 14 C -0.775791 -0.808559 -2.932212 0
M  V30 15 N -2.164022 -0.517740 -3.032211 0
M  V30 16 C -2.768351 0.810538 -2.935384 0
M  V30 17 C -3.355522 0.975251 -1.523484 0
M  V30 18 C -3.531475 -0.432766 -1.005330 0
M  V30 19 N -4.094824 -0.430267 0.271031 0
M  V30 20 C -3.380377 0.211987 1.316743 0
M  V30 21 C -4.438807 0.818354 2.252203 0
M  V30 22 N -5.438922 -0.160548 2.527300 0
M  V30 23 C -6.775518 0.222278 2.141598 0
M  V30 24 C -5.089261 -1.496624 2.145646 0
M  V30 25 C -4.739699 -1.652336 0.680532 0
M  V30 26 C -4.306662 -1.173835 -2.072278 0
M  V30 27 C -3.291436 -1.431076 -3.201970 0
M  V30 28 C -0.123394 -1.955315 -3.242639 0
M  V30 29 O -0.868133 -2.972352 -3.763594 0
M  V30 30 C -0.298228 -4.213915 -4.124144 0
M  V30 31 C 1.229251 -2.137068 -3.060339 0
M  V30 32 N 3.120655 -0.370076 0.035990 0
M  V30 33 C 3.131393 -0.633504 1.359633 0
M  V30 34 N 2.815888 0.375031 2.279636 0
M  V30 35 C 2.474547 1.709050 1.816254 0
M  V30 36 C 3.684183 2.219002 1.042763 0
M  V30 37 C 3.787358 3.721472 1.194846 0
M  V30 38 O 4.019580 4.080629 2.500423 0
M  V30 39 C 3.387824 3.302396 3.447656 0
M  V30 40 C 2.124052 2.639732 2.934398 0
M  V30 41 H 4.415252 -0.865507 4.670787 0
M  V30 42 H 5.437760 -1.338435 3.219209 0
M  V30 43 H 5.168576 -2.471096 4.620437 0
M  V30 44 H 2.581556 -1.893957 3.832488 0
M  V30 45 H 3.486347 -3.337888 3.386595 0
M  V30 46 H 5.218928 -5.259175 -0.194545 0
M  V30 47 H 5.323085 -4.777156 -0.293210 0
M  V30 48 H 4.179595 -1.187445 -3.010691 0
M  V30 49 H 1.975204 0.843471 -1.803528 0
M  V30 50 H -0.336774 1.249163 -2.075485 0
M  V30 51 H -2.029954 1.621828 -3.058023 0
M  V30 52 H -3.540646 0.987644 -3.717902 0
M  V30 53 H -2.706148 1.595074 -0.905054 0
M  V30 54 H -4.349458 1.504374 -1.564704 0
M  V30 55 H -2.493469 -0.869533 -0.989961 0
M  V30 56 H -2.838103 -0.572469 1.925908 0
M  V30 57 H -2.673782 0.959696 0.973862 0
M  V30 58 H -4.897430 1.650573 1.682540 0
M  V30 59 H -3.957047 1.245926 3.154750 0
M  V30 60 H -7.257391 -0.554822 1.520444 0
M  V30 61 H -7.395742 0.415466 3.042267 0
M  V30 62 H -6.738662 1.169326 1.577739 0
M  V30 63 H -5.943122 -2.144617 2.442809 0
M  V30 64 H -4.218974 -1.808338 2.750966 0
M  V30 65 H -5.673067 -1.820382 0.118249 0
M  V30 66 H -4.052553 -2.529852 0.621177 0
M  V30 67 H -5.094198 -0.468160 -2.408549 0
M  V30 68 H -4.799434 -2.079985 -1.727545 0
M  V30 69 H -3.786536 -1.147032 -4.148489 0
M  V30 70 H -3.038056 -2.477949 -3.281853 0
M  V30 71 H -1.017369 -4.858352 -4.676719 0
M  V30 72 H -0.002659 -4.697903 -3.153575 0
M  V30 73 H 0.625404 -4.028520 -4.700892 0
M  V30 74 H 1.729473 -3.044553 -3.308236 0
M  V30 75 H 2.807701 0.230831 3.288768 0
M  V30 76 H 1.654185 1.641526 1.053936 0
M  V30 77 H 4.597844 1.717687 1.427178 0
M  V30 78 H 3.586252 2.000725 -0.039530 0
M  V30 79 H 4.613262 4.045908 0.529681 0
M  V30 80 H 2.818663 4.149480 0.815292 0
M  V30 81 H 3.036434 4.001841 4.263084 0
M  V30 82 H 4.036953 2.555677 3.930421 0
M  V30 83 H 1.446414 3.425365 2.531049 0
M  V30 84 H 1.636495 2.149516 3.802312 0
M  V30 END ATOM
M  V30 BEGIN BOND
M  V30 1 1 1 2
M  V30 2 1 2 3
M  V30 3 2 3 4
M  V30 4 1 4 5
M  V30 5 1 5 6
M  V30 6 1 6 7
M  V30 7 2 6 8
M  V30 8 2 5 9
M  V30 9 1 9 10
M  V30 10 1 10 11
M  V30 11 2 11 12
M  V30 12 1 12 13
M  V30 13 2 13 14
M  V30 14 1 14 15
M  V30 15 1 15 16
M  V30 16 1 16 17
M  V30 17 1 17 18
M  V30 18 1 18 19
M  V30 19 1 19 20
M  V30 20 1 20 21
M  V30 21 1 21 22
M  V30 22 1 22 23
M  V30 23 1 22 24
M  V30 24 1 24 25
M  V30 25 1 18 26
M  V30 26 1 26 27
M  V30 27 1 14 28
M  V30 28 1 28 29
M  V30 29 1 29 30
M  V30 30 2 28 31
M  V30 31 1 9 32
M  V30 32 2 32 33
M  V30 33 1 33 34
M  V30 34 1 34 35
M  V30 35 1 35 36
M  V30 36 1 36 37
M  V30 37 1 37 38
M  V30 38 1 38 39
M  V30 39 1 39 40
M  V30 40 1 33 3
M  V30 41 1 40 35
M  V30 42 1 31 11
M  V30 43 1 27 15
M  V30 44 1 25 19
M  V30 45 1 1 41
M  V30 46 1 1 42
M  V30 47 1 1 43
M  V30 48 1 2 44
M  V30 49 1 2 45
M  V30 50 1 7 46
M  V30 51 1 7 47
M  V30 52 1 10 48
M  V30 53 1 12 49
M  V30 54 1 13 50
M  V30 55 1 16 51
M  V30 56 1 16 52
M  V30 57 1 17 53
M  V30 58 1 17 54
M  V30 59 1 18 55
M  V30 60 1 20 56
M  V30 61 1 20 57
M  V30 62 1 21 58
M  V30 63 1 21 59
M  V30 64 1 23 60
M  V30 65 1 23 61
M  V30 66 1 23 62
M  V30 67 1 24 63
M  V30 68 1 24 64
M  V30 69 1 25 65
M  V30 70 1 25 66
M  V30 71 1 26 67
M  V30 72 1 26 68
M  V30 73 1 27 69
M  V30 74 1 27 70
M  V30 75 1 30 71
M  V30 76 1 30 72
M  V30 77 1 30 73
M  V30 78 1 31 74
M  V30 79 1 34 75
M  V30 80 1 35 76
M  V30 81 1 36 77
M  V30 82 1 36 78
M  V30 83 1 37 79
M  V30 84 1 37 80
M  V30 85 1 39 81
M  V30 86 1 39 82
M  V30 87 1 40 83
M  V30 88 1 40 84
M  V30 END BOND
M  V30 END CTAB
M  END
>  <Dataset>  (59) 
PKIs

>  <Ligand_Instance>  (59) 
nan

>  <PDB_ID>  (59) 
nan

>  <Standardized_SMILES>  (59) 
CCc1nc(C(N)=O)c(Nc2ccc(N3CCC(N4CCN(C)CC4)CC3)c(OC)c2)nc1NC1CCOCC1

>  <Name>  (59) 
Gilteritinib

>  <Pocket>  (59) 
nan

>  <ATP_Site>  (59) 
nan

>  <Peripheral>  (59) 
nan

>  <Num_H_Atoms_ProtBoundConf>  (59) 
nan

>  <Num_Resolved_Atoms>  (59) 
nan

>  <Num_Not_Resolved_Atoms>  (59) 
nan

$$$$
nan
     RDKit          3D

  0  0  0  0  0  0  0  0  0  0999 V3000
M  V30 BEGIN CTAB
M  V30 COUNTS 42 44 0 0 0
M  V30 BEGIN ATOM
M  V30 1 C -1.826974 -5.202839 0.138669 0
M  V30 2 N -1.266678 -4.327514 -0.897822 0
M  V30 3 C -1.152713 -4.671015 -2.190371 0
M  V30 4 N -0.602914 -3.634235 -2.841736 0
M  V30 5 C -0.356373 -2.618166 -1.992925 0
M  V30 6 C 0.180549 -1.326594 -2.051559 0
M  V30 7 F 0.539979 -1.035681 -3.344032 0
M  V30 8 C 0.284010 -0.522960 -0.911841 0
M  V30 9 N 0.857551 0.714594 -1.192340 0
M  V30 10 C 2.042249 1.460483 -1.172517 0
M  V30 11 C 2.122687 2.658726 -0.452821 0
M  V30 12 C 3.290270 3.384857 -0.423543 0
M  V30 13 C 4.373865 2.925621 -1.104198 0
M  V30 14 Br 5.974745 3.962253 -1.036392 0
M  V30 15 C 4.364942 1.756457 -1.831701 0
M  V30 16 C 3.166729 1.034895 -1.847267 0
M  V30 17 F 3.229333 -0.090476 -2.568155 0
M  V30 18 C -0.163643 -1.048190 0.275790 0
M  V30 19 C -0.050937 -0.184870 1.442830 0
M  V30 20 O 0.362616 0.982365 1.626315 0
M  V30 21 N -0.464065 -0.639942 2.719428 0
M  V30 22 O -0.254178 0.354535 3.634910 0
M  V30 23 C -0.647459 -0.104234 4.891016 0
M  V30 24 C -0.460868 0.955416 5.955129 0
M  V30 25 O -0.844789 0.524215 7.224255 0
M  V30 26 C -0.698997 -2.303840 0.400355 0
M  V30 27 C -0.780937 -3.061463 -0.749142 0
M  V30 28 H -1.255460 -5.105771 1.098688 0
M  V30 29 H -2.877652 -4.965247 0.376907 0
M  V30 30 H -1.711829 -6.256989 -0.193957 0
M  V30 31 H -1.452223 -5.616212 -2.622848 0
M  V30 32 H 0.098118 1.334612 -1.568711 0
M  V30 33 H 1.286915 3.059304 0.098808 0
M  V30 34 H 3.330540 4.313975 0.141971 0
M  V30 35 H 5.260404 1.443436 -2.352708 0
M  V30 36 H -0.865318 -1.584650 2.934378 0
M  V30 37 H -0.142199 -1.048400 5.172342 0
M  V30 38 H -1.737023 -0.321412 4.871560 0
M  V30 39 H -1.040431 1.865951 5.747695 0
M  V30 40 H 0.622650 1.173285 6.000980 0
M  V30 41 H -1.814146 0.706714 7.305898 0
M  V30 42 H -1.055451 -2.733540 1.320377 0
M  V30 END ATOM
M  V30 BEGIN BOND
M  V30 1 1 1 2
M  V30 2 1 2 3
M  V30 3 2 3 4
M  V30 4 1 4 5
M  V30 5 2 5 6
M  V30 6 1 6 7
M  V30 7 1 6 8
M  V30 8 1 8 9
M  V30 9 1 9 10
M  V30 10 2 10 11
M  V30 11 1 11 12
M  V30 12 2 12 13
M  V30 13 1 13 14
M  V30 14 1 13 15
M  V30 15 2 15 16
M  V30 16 1 16 17
M  V30 17 2 8 18
M  V30 18 1 18 19
M  V30 19 2 19 20
M  V30 20 1 19 21
M  V30 21 1 21 22
M  V30 22 1 22 23
M  V30 23 1 23 24
M  V30 24 1 24 25
M  V30 25 1 18 26
M  V30 26 2 26 27
M  V30 27 1 27 2
M  V30 28 1 27 5
M  V30 29 1 16 10
M  V30 30 1 1 28
M  V30 31 1 1 29
M  V30 32 1 1 30
M  V30 33 1 3 31
M  V30 34 1 9 32
M  V30 35 1 11 33
M  V30 36 1 12 34
M  V30 37 1 15 35
M  V30 38 1 21 36
M  V30 39 1 23 37
M  V30 40 1 23 38
M  V30 41 1 24 39
M  V30 42 1 24 40
M  V30 43 1 25 41
M  V30 44 1 26 42
M  V30 END BOND
M  V30 END CTAB
M  END
>  <Dataset>  (60) 
PKIs

>  <Ligand_Instance>  (60) 
nan

>  <PDB_ID>  (60) 
nan

>  <Standardized_SMILES>  (60) 
Cn1cnc2c(F)c(Nc3ccc(Br)cc3F)c(C(=O)NOCCO)cc21

>  <Name>  (60) 
Binimetinib

>  <Pocket>  (60) 
nan

>  <ATP_Site>  (60) 
nan

>  <Peripheral>  (60) 
nan

>  <Num_H_Atoms_ProtBoundConf>  (60) 
nan

>  <Num_Resolved_Atoms>  (60) 
nan

>  <Num_Not_Resolved_Atoms>  (60) 
nan

$$$$
nan
     RDKit          3D

  0  0  0  0  0  0  0  0  0  0999 V3000
M  V30 BEGIN CTAB
M  V30 COUNTS 49 52 0 0 0
M  V30 BEGIN ATOM
M  V30 1 C -1.184843 -3.203235 3.533200 0
M  V30 2 C -0.653669 -2.649203 2.258161 0 CFG=1
M  V30 3 O 0.765693 -2.827043 2.126981 0
M  V30 4 C 1.583952 -1.943391 1.458494 0
M  V30 5 C 1.219213 -0.664804 1.178411 0
M  V30 6 C 1.844527 0.355089 0.531950 0
M  V30 7 C 3.098583 -0.006863 0.089158 0
M  V30 8 N 3.570053 -1.263830 0.317728 0
M  V30 9 C 2.845109 -2.198428 0.975323 0
M  V30 10 N 3.383839 -3.521524 1.195412 0
M  V30 11 C 1.254236 1.668818 0.278744 0
M  V30 12 C 0.062890 2.013775 -0.271549 0
M  V30 13 N 0.137388 3.380766 -0.216065 0
M  V30 14 N 1.228053 3.831716 0.299014 0
M  V30 15 C 1.538593 5.266145 0.465612 0
M  V30 16 C 1.980844 2.775658 0.633720 0
M  V30 17 C 3.257395 2.955668 1.225633 0
M  V30 18 N 4.302326 3.087215 1.711999 0
M  V30 19 C -1.168429 1.475865 -0.865720 0
M  V30 20 N -1.753702 0.352063 -0.173773 0
M  V30 21 C -2.663908 0.734204 0.890943 0
M  V30 22 C -1.815904 -1.046986 -0.084705 0
M  V30 23 O -1.046685 -0.728399 -1.020973 0
M  V30 24 C -1.849534 -2.474025 -0.030021 0
M  V30 25 C -2.441686 -3.045520 -1.108465 0
M  V30 26 C -2.570467 -4.434727 -1.213613 0
M  V30 27 C -2.039975 -5.077753 -0.130518 0
M  V30 28 F -2.142165 -6.440058 -0.187351 0
M  V30 29 C -1.433223 -4.543431 0.978447 0
M  V30 30 C -1.333277 -3.183238 1.031536 0
M  V30 31 H -0.454683 -3.933539 3.945552 0
M  V30 32 H -1.294968 -2.377369 4.286364 0
M  V30 33 H -2.196553 -3.627231 3.381686 0
M  V30 34 H -0.835490 -1.560893 2.231470 0
M  V30 35 H 0.302636 -0.276035 1.520992 0
M  V30 36 H 3.686436 0.750762 -0.443991 0
M  V30 37 H 3.081376 -4.068016 0.353888 0
M  V30 38 H 3.935872 -3.849938 1.993014 0
M  V30 39 H 1.389932 5.831581 -0.457783 0
M  V30 40 H 0.915134 5.601387 1.309834 0
M  V30 41 H 2.588333 5.342694 0.765085 0
M  V30 42 H -1.997603 2.214939 -1.011499 0
M  V30 43 H -0.922121 1.194906 -1.943467 0
M  V30 44 H -3.664334 0.289398 0.827325 0
M  V30 45 H -2.814038 1.837613 0.970129 0
M  V30 46 H -2.181425 0.445408 1.855248 0
M  V30 47 H -2.829521 -2.426247 -1.931154 0
M  V30 48 H -3.030303 -4.941203 -2.043847 0
M  V30 49 H -1.061005 -5.200190 1.759041 0
M  V30 END ATOM
M  V30 BEGIN BOND
M  V30 1 1 1 2
M  V30 2 1 2 3
M  V30 3 1 3 4
M  V30 4 1 4 5
M  V30 5 2 5 6
M  V30 6 1 6 7
M  V30 7 2 7 8
M  V30 8 1 8 9
M  V30 9 1 9 10
M  V30 10 1 6 11
M  V30 11 1 11 12
M  V30 12 2 12 13
M  V30 13 1 13 14
M  V30 14 1 14 15
M  V30 15 1 14 16
M  V30 16 1 16 17
M  V30 17 3 17 18
M  V30 18 1 12 19
M  V30 19 1 19 20
M  V30 20 1 20 21
M  V30 21 1 20 22
M  V30 22 2 22 23
M  V30 23 1 22 24
M  V30 24 2 24 25
M  V30 25 1 25 26
M  V30 26 2 26 27
M  V30 27 1 27 28
M  V30 28 1 27 29
M  V30 29 2 29 30
M  V30 30 1 30 2
M  V30 31 2 9 4
M  V30 32 2 16 11
M  V30 33 1 30 24
M  V30 34 1 1 31
M  V30 35 1 1 32
M  V30 36 1 1 33
M  V30 37 1 2 34 CFG=1
M  V30 38 1 5 35
M  V30 39 1 7 36
M  V30 40 1 10 37
M  V30 41 1 10 38
M  V30 42 1 15 39
M  V30 43 1 15 40
M  V30 44 1 15 41
M  V30 45 1 19 42
M  V30 46 1 19 43
M  V30 47 1 21 44
M  V30 48 1 21 45
M  V30 49 1 21 46
M  V30 50 1 25 47
M  V30 51 1 26 48
M  V30 52 1 29 49
M  V30 END BOND
M  V30 END CTAB
M  END
>  <Dataset>  (61) 
PKIs

>  <Ligand_Instance>  (61) 
nan

>  <PDB_ID>  (61) 
nan

>  <Standardized_SMILES>  (61) 
C[C@H]1Oc2cc(cnc2N)-c2c(nn(C)c2C#N)CN(C)C(=O)c2ccc(F)cc21

>  <Name>  (61) 
Lorlatinib

>  <Pocket>  (61) 
nan

>  <ATP_Site>  (61) 
nan

>  <Peripheral>  (61) 
nan

>  <Num_H_Atoms_ProtBoundConf>  (61) 
nan

>  <Num_Resolved_Atoms>  (61) 
nan

>  <Num_Not_Resolved_Atoms>  (61) 
nan

$$$$
nan
     RDKit          3D

  0  0  0  0  0  0  0  0  0  0999 V3000
M  V30 BEGIN CTAB
M  V30 COUNTS 58 62 0 0 0
M  V30 BEGIN ATOM
M  V30 1 C 4.100130 -0.764985 6.496960 0
M  V30 2 C 3.990540 0.101268 5.308727 0
M  V30 3 C 3.892654 0.803199 4.312971 0
M  V30 4 C 3.758646 1.613567 3.135222 0
M  V30 5 O 3.591438 2.862128 3.283787 0
M  V30 6 N 3.813850 1.019145 1.844094 0
M  V30 7 C 4.003160 -0.409314 1.577037 0
M  V30 8 C 4.458504 -0.517357 0.158067 0
M  V30 9 C 4.443362 0.877269 -0.374796 0
M  V30 10 C 3.688814 1.753873 0.594946 0 CFG=1
M  V30 11 C 2.252343 1.818483 0.203248 0
M  V30 12 N 1.429695 0.755881 0.254522 0
M  V30 13 C 0.178895 1.119598 -0.163105 0
M  V30 14 C -0.875056 0.120121 -0.196204 0
M  V30 15 C -2.144332 0.168141 0.299925 0
M  V30 16 C -3.038344 -0.874701 0.165202 0
M  V30 17 C -2.670059 -2.030710 -0.491652 0
M  V30 18 C -3.663760 -3.098028 -0.600260 0
M  V30 19 O -4.796687 -2.901680 -0.089037 0
M  V30 20 N -3.420917 -4.334061 -1.246358 0
M  V30 21 C -4.500569 -5.263230 -1.260826 0
M  V30 22 C -4.638854 -6.186364 -0.223922 0
M  V30 23 C -5.623649 -7.131372 -0.111250 0
M  V30 24 C -6.562789 -7.149030 -1.145174 0
M  V30 25 C -6.441576 -6.235856 -2.188419 0
M  V30 26 N -5.446199 -5.329706 -2.238976 0
M  V30 27 C -1.401540 -2.156731 -1.021834 0
M  V30 28 C -0.553486 -1.080025 -0.855073 0
M  V30 29 C 0.315659 2.459034 -0.463801 0
M  V30 30 C -0.669885 3.273304 -0.932124 0
M  V30 31 N -1.981568 2.857109 -1.186323 0
M  V30 32 N -0.354540 4.564361 -1.178331 0
M  V30 33 C 0.896931 5.000504 -0.959386 0
M  V30 34 C 1.895256 4.153893 -0.480338 0
M  V30 35 N 1.575132 2.867680 -0.236796 0
M  V30 36 H 4.305631 -0.114358 7.378515 0
M  V30 37 H 4.919750 -1.506289 6.388323 0
M  V30 38 H 3.164568 -1.334017 6.670928 0
M  V30 39 H 3.057508 -0.968378 1.698376 0
M  V30 40 H 4.780164 -0.816244 2.250205 0
M  V30 41 H 5.477597 -0.984882 0.097241 0
M  V30 42 H 3.798093 -1.212102 -0.437070 0
M  V30 43 H 5.461971 1.259089 -0.585699 0
M  V30 44 H 3.854533 0.865804 -1.333661 0
M  V30 45 H 4.105661 2.775490 0.655168 0
M  V30 46 H -2.418385 1.057667 0.816389 0
M  V30 47 H -4.028168 -0.747075 0.592102 0
M  V30 48 H -2.488187 -4.516689 -1.676645 0
M  V30 49 H -3.883794 -6.144179 0.571167 0
M  V30 50 H -5.633988 -7.799728 0.740541 0
M  V30 51 H -7.358448 -7.886279 -1.088073 0
M  V30 52 H -7.181617 -6.269774 -2.977327 0
M  V30 53 H -1.093951 -3.038617 -1.532588 0
M  V30 54 H 0.449512 -1.216698 -1.290926 0
M  V30 55 H -2.863702 3.124249 -0.662120 0
M  V30 56 H -2.306285 2.205783 -1.946009 0
M  V30 57 H 1.214317 6.028085 -1.137513 0
M  V30 58 H 2.910628 4.475884 -0.294781 0
M  V30 END ATOM
M  V30 BEGIN BOND
M  V30 1 1 1 2
M  V30 2 3 2 3
M  V30 3 1 3 4
M  V30 4 2 4 5
M  V30 5 1 4 6
M  V30 6 1 6 7
M  V30 7 1 7 8
M  V30 8 1 8 9
M  V30 9 1 9 10
M  V30 10 1 10 11
M  V30 11 2 11 12
M  V30 12 1 12 13
M  V30 13 1 13 14
M  V30 14 2 14 15
M  V30 15 1 15 16
M  V30 16 2 16 17
M  V30 17 1 17 18
M  V30 18 2 18 19
M  V30 19 1 18 20
M  V30 20 1 20 21
M  V30 21 2 21 22
M  V30 22 1 22 23
M  V30 23 2 23 24
M  V30 24 1 24 25
M  V30 25 2 25 26
M  V30 26 1 17 27
M  V30 27 2 27 28
M  V30 28 2 13 29
M  V30 29 1 29 30
M  V30 30 1 30 31
M  V30 31 2 30 32
M  V30 32 1 32 33
M  V30 33 2 33 34
M  V30 34 1 34 35
M  V30 35 1 10 6
M  V30 36 1 35 11
M  V30 37 1 28 14
M  V30 38 1 35 29
M  V30 39 1 26 21
M  V30 40 1 1 36
M  V30 41 1 1 37
M  V30 42 1 1 38
M  V30 43 1 7 39
M  V30 44 1 7 40
M  V30 45 1 8 41
M  V30 46 1 8 42
M  V30 47 1 9 43
M  V30 48 1 9 44
M  V30 49 1 10 45 CFG=1
M  V30 50 1 15 46
M  V30 51 1 16 47
M  V30 52 1 20 48
M  V30 53 1 22 49
M  V30 54 1 23 50
M  V30 55 1 24 51
M  V30 56 1 25 52
M  V30 57 1 27 53
M  V30 58 1 28 54
M  V30 59 1 31 55
M  V30 60 1 31 56
M  V30 61 1 33 57
M  V30 62 1 34 58
M  V30 END BOND
M  V30 END CTAB
M  END
>  <Dataset>  (62) 
PKIs

>  <Ligand_Instance>  (62) 
nan

>  <PDB_ID>  (62) 
nan

>  <Standardized_SMILES>  (62) 
CC#CC(=O)N1CCC[C@H]1c1nc(-c2ccc(C(=O)Nc3ccccn3)cc2)c2c(N)nccn12

>  <Name>  (62) 
Acalabrutinib

>  <Pocket>  (62) 
nan

>  <ATP_Site>  (62) 
nan

>  <Peripheral>  (62) 
nan

>  <Num_H_Atoms_ProtBoundConf>  (62) 
nan

>  <Num_Resolved_Atoms>  (62) 
nan

>  <Num_Not_Resolved_Atoms>  (62) 
nan

$$$$
nan
     RDKit          3D

  0  0  0  0  0  0  0  0  0  0999 V3000
M  V30 BEGIN CTAB
M  V30 COUNTS 43 46 0 0 0
M  V30 BEGIN ATOM
M  V30 1 C 0.199708 -5.183415 1.328017 0
M  V30 2 C 0.214952 -4.322446 0.059440 0
M  V30 3 S 1.704596 -3.416024 0.015751 0
M  V30 4 O 2.835633 -4.435358 -0.038645 0
M  V30 5 O 1.888712 -2.654899 1.297554 0
M  V30 6 N 1.890554 -2.399911 -1.333810 0
M  V30 7 C 0.942164 -1.348821 -1.519290 0
M  V30 8 C 1.933515 -0.310016 -1.082989 0
M  V30 9 C 2.036800 0.853584 -2.018050 0
M  V30 10 C 2.442142 0.512925 -3.360331 0
M  V30 11 N 2.755042 0.232317 -4.435004 0
M  V30 12 N 1.794889 0.164786 0.281152 0
M  V30 13 C 0.565781 0.286509 0.818667 0
M  V30 14 C 0.677260 0.757082 2.131471 0
M  V30 15 C -0.378531 1.044621 3.110468 0
M  V30 16 N -0.257449 0.630631 4.386543 0
M  V30 17 C -1.182176 0.857799 5.334030 0
M  V30 18 N -2.288323 1.541904 4.964758 0
M  V30 19 C -2.478937 1.986189 3.711760 0
M  V30 20 N -3.492818 2.678964 3.133724 0
M  V30 21 C -3.177371 2.870701 1.829443 0
M  V30 22 C -1.941537 2.298104 1.543439 0
M  V30 23 C -1.515361 1.748481 2.728110 0
M  V30 24 C 2.055596 0.904521 2.331427 0
M  V30 25 N 2.682738 0.535622 1.189836 0
M  V30 26 C 2.929897 -1.421407 -1.270993 0
M  V30 27 H 0.517773 -6.219062 1.125721 0
M  V30 28 H 0.906475 -4.771723 2.078300 0
M  V30 29 H -0.799265 -5.192916 1.779899 0
M  V30 30 H -0.702673 -3.715041 0.052939 0
M  V30 31 H 0.130027 -5.057826 -0.766892 0
M  V30 32 H 0.031195 -1.329631 -0.939770 0
M  V30 33 H 0.704593 -1.236269 -2.607225 0
M  V30 34 H 1.016786 1.319346 -2.082962 0
M  V30 35 H 2.677118 1.640730 -1.540549 0
M  V30 36 H -0.425713 0.098783 0.443957 0
M  V30 37 H -1.054727 0.512202 6.348616 0
M  V30 38 H -4.386045 3.028244 3.575753 0
M  V30 39 H -3.728624 3.378868 1.036003 0
M  V30 40 H -1.417158 2.278476 0.608260 0
M  V30 41 H 2.542816 1.250145 3.231860 0
M  V30 42 H 3.607932 -1.474805 -0.388045 0
M  V30 43 H 3.516981 -1.301346 -2.203554 0
M  V30 END ATOM
M  V30 BEGIN BOND
M  V30 1 1 1 2
M  V30 2 1 2 3
M  V30 3 2 3 4
M  V30 4 2 3 5
M  V30 5 1 3 6
M  V30 6 1 6 7
M  V30 7 1 7 8
M  V30 8 1 8 9
M  V30 9 1 9 10
M  V30 10 3 10 11
M  V30 11 1 8 12
M  V30 12 1 12 13
M  V30 13 2 13 14
M  V30 14 1 14 15
M  V30 15 2 15 16
M  V30 16 1 16 17
M  V30 17 2 17 18
M  V30 18 1 18 19
M  V30 19 1 19 20
M  V30 20 1 20 21
M  V30 21 2 21 22
M  V30 22 1 22 23
M  V30 23 1 14 24
M  V30 24 2 24 25
M  V30 25 1 8 26
M  V30 26 1 26 6
M  V30 27 1 25 12
M  V30 28 1 23 15
M  V30 29 2 23 19
M  V30 30 1 1 27
M  V30 31 1 1 28
M  V30 32 1 1 29
M  V30 33 1 2 30
M  V30 34 1 2 31
M  V30 35 1 7 32
M  V30 36 1 7 33
M  V30 37 1 9 34
M  V30 38 1 9 35
M  V30 39 1 13 36
M  V30 40 1 17 37
M  V30 41 1 20 38
M  V30 42 1 21 39
M  V30 43 1 22 40
M  V30 44 1 24 41
M  V30 45 1 26 42
M  V30 46 1 26 43
M  V30 END BOND
M  V30 END CTAB
M  END
>  <Dataset>  (63) 
PKIs

>  <Ligand_Instance>  (63) 
nan

>  <PDB_ID>  (63) 
nan

>  <Standardized_SMILES>  (63) 
CCS(=O)(=O)N1CC(CC#N)(n2cc(-c3ncnc4[nH]ccc34)cn2)C1

>  <Name>  (63) 
Baricitinib

>  <Pocket>  (63) 
nan

>  <ATP_Site>  (63) 
nan

>  <Peripheral>  (63) 
nan

>  <Num_H_Atoms_ProtBoundConf>  (63) 
nan

>  <Num_Resolved_Atoms>  (63) 
nan

>  <Num_Not_Resolved_Atoms>  (63) 
nan

$$$$
nan
     RDKit          3D

  0  0  0  0  0  0  0  0  0  0999 V3000
M  V30 BEGIN CTAB
M  V30 COUNTS 62 66 0 0 0
M  V30 BEGIN ATOM
M  V30 1 C 2.631461 -1.214534 5.261681 0
M  V30 2 N 3.230634 -2.401765 4.710869 0
M  V30 3 C 3.450480 -3.518926 5.613038 0
M  V30 4 C 3.641131 -2.632037 3.342711 0
M  V30 5 O 4.178903 -3.723332 2.956942 0
M  V30 6 C 3.508995 -1.691713 2.239049 0
M  V30 7 C 4.093225 -0.463918 2.012166 0
M  V30 8 C 3.585820 -0.047897 0.809415 0
M  V30 9 C 3.730882 1.054216 0.001044 0
M  V30 10 N 3.104157 1.231740 -1.165293 0
M  V30 11 C 2.242177 0.270900 -1.633422 0
M  V30 12 N 1.399129 0.098946 -2.786531 0
M  V30 13 C 0.093609 0.539957 -2.528050 0
M  V30 14 C -0.317561 1.125644 -1.357131 0
M  V30 15 C -1.605703 1.541437 -1.043536 0
M  V30 16 C -2.554863 1.334853 -2.023548 0
M  V30 17 N -3.901269 1.719532 -1.807736 0
M  V30 18 C -5.020317 1.142183 -2.566581 0
M  V30 19 C -6.065579 0.730149 -1.550241 0
M  V30 20 N -6.608962 1.928151 -0.965238 0
M  V30 21 C -5.727619 3.077259 -1.090204 0
M  V30 22 C -4.268645 2.718546 -0.826834 0
M  V30 23 C -2.132907 0.746968 -3.196257 0
M  V30 24 N -0.860647 0.340940 -3.494956 0
M  V30 25 N 2.068790 -0.822347 -0.879526 0
M  V30 26 C 2.705420 -0.986681 0.290001 0
M  V30 27 N 2.682382 -2.002880 1.213211 0
M  V30 28 C 1.850892 -3.181905 1.024003 0
M  V30 29 C 0.908652 -3.024888 -0.130440 0
M  V30 30 C -0.008123 -4.237247 0.112872 0
M  V30 31 C -0.180761 -4.233449 1.638857 0
M  V30 32 C 0.957362 -3.417908 2.196048 0
M  V30 33 H 2.334501 -0.468229 4.520113 0
M  V30 34 H 1.724773 -1.523677 5.819977 0
M  V30 35 H 3.317887 -0.774709 6.041983 0
M  V30 36 H 3.827979 -4.430420 5.100096 0
M  V30 37 H 4.232292 -3.205059 6.332392 0
M  V30 38 H 2.467494 -3.746883 6.128695 0
M  V30 39 H 4.782590 0.044468 2.633700 0
M  V30 40 H 4.379107 1.833318 0.297328 0
M  V30 41 H 1.680447 -0.290728 -3.696265 0
M  V30 42 H 0.408435 1.305472 -0.565532 0
M  V30 43 H -1.837930 1.995543 -0.096213 0
M  V30 44 H -5.351320 1.879149 -3.295986 0
M  V30 45 H -4.658408 0.232813 -3.119635 0
M  V30 46 H -6.818399 0.082920 -1.994578 0
M  V30 47 H -5.519813 0.166602 -0.762220 0
M  V30 48 H -7.510080 2.155981 -1.421603 0
M  V30 49 H -6.067795 3.837678 -0.355150 0
M  V30 50 H -5.753478 3.521245 -2.128402 0
M  V30 51 H -3.684266 3.640329 -1.090351 0
M  V30 52 H -4.073922 2.391282 0.197948 0
M  V30 53 H -2.871549 0.577445 -3.994899 0
M  V30 54 H 2.465758 -4.084541 0.852072 0
M  V30 55 H 0.312542 -2.100428 0.047465 0
M  V30 56 H 1.373050 -3.086725 -1.122132 0
M  V30 57 H -0.951437 -4.134488 -0.424472 0
M  V30 58 H 0.574637 -5.143370 -0.126368 0
M  V30 59 H -0.203414 -5.261025 2.057401 0
M  V30 60 H -1.179220 -3.796234 1.886091 0
M  V30 61 H 1.450548 -3.996704 3.006430 0
M  V30 62 H 0.536659 -2.443261 2.579439 0
M  V30 END ATOM
M  V30 BEGIN BOND
M  V30 1 1 1 2
M  V30 2 1 2 3
M  V30 3 1 2 4
M  V30 4 2 4 5
M  V30 5 1 4 6
M  V30 6 2 6 7
M  V30 7 1 7 8
M  V30 8 2 8 9
M  V30 9 1 9 10
M  V30 10 2 10 11
M  V30 11 1 11 12
M  V30 12 1 12 13
M  V30 13 2 13 14
M  V30 14 1 14 15
M  V30 15 2 15 16
M  V30 16 1 16 17
M  V30 17 1 17 18
M  V30 18 1 18 19
M  V30 19 1 19 20
M  V30 20 1 20 21
M  V30 21 1 21 22
M  V30 22 1 16 23
M  V30 23 2 23 24
M  V30 24 1 11 25
M  V30 25 2 25 26
M  V30 26 1 26 27
M  V30 27 1 27 28
M  V30 28 1 28 29
M  V30 29 1 29 30
M  V30 30 1 30 31
M  V30 31 1 31 32
M  V30 32 1 27 6
M  V30 33 1 32 28
M  V30 34 1 26 8
M  V30 35 1 24 13
M  V30 36 1 22 17
M  V30 37 1 1 33
M  V30 38 1 1 34
M  V30 39 1 1 35
M  V30 40 1 3 36
M  V30 41 1 3 37
M  V30 42 1 3 38
M  V30 43 1 7 39
M  V30 44 1 9 40
M  V30 45 1 12 41
M  V30 46 1 14 42
M  V30 47 1 15 43
M  V30 48 1 18 44
M  V30 49 1 18 45
M  V30 50 1 19 46
M  V30 51 1 19 47
M  V30 52 1 20 48
M  V30 53 1 21 49
M  V30 54 1 21 50
M  V30 55 1 22 51
M  V30 56 1 22 52
M  V30 57 1 23 53
M  V30 58 1 28 54
M  V30 59 1 29 55
M  V30 60 1 29 56
M  V30 61 1 30 57
M  V30 62 1 30 58
M  V30 63 1 31 59
M  V30 64 1 31 60
M  V30 65 1 32 61
M  V30 66 1 32 62
M  V30 END BOND
M  V30 END CTAB
M  END
>  <Dataset>  (64) 
PKIs

>  <Ligand_Instance>  (64) 
nan

>  <PDB_ID>  (64) 
nan

>  <Standardized_SMILES>  (64) 
CN(C)C(=O)c1cc2cnc(Nc3ccc(N4CCNCC4)cn3)nc2n1C1CCCC1

>  <Name>  (64) 
Ribociclib

>  <Pocket>  (64) 
nan

>  <ATP_Site>  (64) 
nan

>  <Peripheral>  (64) 
nan

>  <Num_H_Atoms_ProtBoundConf>  (64) 
nan

>  <Num_Resolved_Atoms>  (64) 
nan

>  <Num_Not_Resolved_Atoms>  (64) 
nan

$$$$
nan
     RDKit          3D

  0  0  0  0  0  0  0  0  0  0999 V3000
M  V30 BEGIN CTAB
M  V30 COUNTS 73 81 0 0 0
M  V30 BEGIN ATOM
M  V30 1 C 2.778830 0.726575 2.813078 0
M  V30 2 O 2.026058 0.364794 1.716622 0
M  V30 3 C 0.998187 1.211210 1.395933 0 CFG=2
M  V30 4 C -0.324786 0.579550 1.771156 0 CFG=2
M  V30 5 N -0.268758 -0.817645 1.439798 0
M  V30 6 C -0.238433 -1.878479 0.462894 0
M  V30 7 C -0.231843 -1.282248 2.816834 0
M  V30 8 O -0.236830 -0.892198 4.013667 0
M  V30 9 C -0.160207 -2.711330 3.197495 0
M  V30 10 C 1.146067 -3.163497 2.982857 0
M  V30 11 C 1.499572 -4.485685 3.261843 0
M  V30 12 C 0.536649 -5.338427 3.753218 0
M  V30 13 C -0.737032 -4.894103 3.961280 0
M  V30 14 C -1.117008 -3.595051 3.695612 0
M  V30 15 C -1.498650 1.341544 1.314493 0
M  V30 16 C -1.268924 2.393412 0.263272 0 CFG=1
M  V30 17 O -0.041836 2.701642 -0.070348 0
M  V30 18 C 1.037859 1.822979 0.036171 0 CFG=1
M  V30 19 C 2.162337 2.827554 0.124464 0
M  V30 20 N 1.071846 0.910042 -1.063270 0
M  V30 21 C 2.042190 0.203496 -1.638609 0
M  V30 22 C 3.361766 0.075387 -1.279232 0
M  V30 23 C 4.282523 -0.692437 -1.952974 0
M  V30 24 C 3.879452 -1.404080 -3.085160 0
M  V30 25 C 2.555646 -1.268275 -3.434867 0
M  V30 26 C 1.645610 -0.503169 -2.761985 0
M  V30 27 C 0.306086 -0.215173 -2.897625 0
M  V30 28 C -0.629335 -0.609578 -3.829395 0
M  V30 29 C -1.928976 -0.166345 -3.755947 0
M  V30 30 C -2.274453 0.670027 -2.739175 0
M  V30 31 C -3.467702 1.237739 -2.404537 0
M  V30 32 C -4.755982 1.302329 -2.838070 0
M  V30 33 C -5.793067 2.000390 -2.260623 0
M  V30 34 C -5.485387 2.722000 -1.099755 0
M  V30 35 C -4.177503 2.692674 -0.607406 0
M  V30 36 C -3.209187 1.961415 -1.261021 0
M  V30 37 N -1.922511 1.825720 -0.939088 0
M  V30 38 C -1.309757 1.034636 -1.836303 0
M  V30 39 C 0.004773 0.617215 -1.877497 0
M  V30 40 C -2.656821 -0.726865 -4.841650 0
M  V30 41 O -3.818269 -0.683626 -5.266695 0
M  V30 42 N -1.773026 -1.536760 -5.601086 0
M  V30 43 C -0.459507 -1.508492 -5.004122 0
M  V30 44 H 3.285735 1.693105 2.767436 0
M  V30 45 H 3.575490 -0.032682 2.967784 0
M  V30 46 H 2.171884 0.665957 3.765209 0
M  V30 47 H 1.085643 2.071064 2.137052 0
M  V30 48 H -0.323074 0.595145 2.901841 0
M  V30 49 H 0.681967 -1.883476 -0.171243 0
M  V30 50 H -0.255705 -2.881865 0.930012 0
M  V30 51 H -1.165740 -1.866965 -0.176907 0
M  V30 52 H 1.997054 -2.619352 2.607275 0
M  V30 53 H 2.468563 -4.922011 3.130476 0
M  V30 54 H 0.708452 -6.378056 3.999722 0
M  V30 55 H -1.585107 -5.479711 4.347202 0
M  V30 56 H -2.053966 -3.068842 3.793124 0
M  V30 57 H -2.003131 1.888416 2.169094 0
M  V30 58 H -2.281307 0.598092 1.030574 0
M  V30 59 H -1.835803 3.326503 0.459714 0
M  V30 60 H 2.233663 3.507572 -0.738303 0
M  V30 61 H 1.791985 3.566810 0.918861 0
M  V30 62 H 3.080773 2.517958 0.591577 0
M  V30 63 H 3.707159 0.603057 -0.410521 0
M  V30 64 H 5.326154 -0.795333 -1.671576 0
M  V30 65 H 4.535664 -2.030981 -3.670865 0
M  V30 66 H 2.158449 -1.793995 -4.310026 0
M  V30 67 H -5.022405 0.767244 -3.714646 0
M  V30 68 H -6.792913 1.997355 -2.674062 0
M  V30 69 H -6.256691 3.290930 -0.597090 0
M  V30 70 H -3.936613 3.247467 0.287636 0
M  V30 71 H -1.877368 -2.118523 -6.457086 0
M  V30 72 H -0.093305 -2.510437 -4.723145 0
M  V30 73 H 0.221341 -1.008308 -5.727931 0
M  V30 END ATOM
M  V30 BEGIN BOND
M  V30 1 1 1 2
M  V30 2 1 2 3
M  V30 3 1 3 4
M  V30 4 1 4 5
M  V30 5 1 5 6
M  V30 6 1 5 7
M  V30 7 2 7 8
M  V30 8 1 7 9
M  V30 9 2 9 10
M  V30 10 1 10 11
M  V30 11 2 11 12
M  V30 12 1 12 13
M  V30 13 2 13 14
M  V30 14 1 4 15
M  V30 15 1 15 16
M  V30 16 1 16 17
M  V30 17 1 17 18
M  V30 18 1 18 19 CFG=1
M  V30 19 1 18 20
M  V30 20 1 20 21
M  V30 21 2 21 22
M  V30 22 1 22 23
M  V30 23 2 23 24
M  V30 24 1 24 25
M  V30 25 2 25 26
M  V30 26 1 26 27
M  V30 27 2 27 28
M  V30 28 1 28 29
M  V30 29 2 29 30
M  V30 30 1 30 31
M  V30 31 2 31 32
M  V30 32 1 32 33
M  V30 33 2 33 34
M  V30 34 1 34 35
M  V30 35 2 35 36
M  V30 36 1 36 37
M  V30 37 1 37 38
M  V30 38 2 38 39
M  V30 39 1 29 40
M  V30 40 2 40 41
M  V30 41 1 40 42
M  V30 42 1 42 43
M  V30 43 1 18 3
M  V30 44 1 39 20
M  V30 45 1 14 9
M  V30 46 1 37 16
M  V30 47 1 26 21
M  V30 48 1 39 27
M  V30 49 1 43 28
M  V30 50 1 38 30
M  V30 51 1 36 31
M  V30 52 1 1 44
M  V30 53 1 1 45
M  V30 54 1 1 46
M  V30 55 1 3 47 CFG=1
M  V30 56 1 4 48 CFG=1
M  V30 57 1 6 49
M  V30 58 1 6 50
M  V30 59 1 6 51
M  V30 60 1 10 52
M  V30 61 1 11 53
M  V30 62 1 12 54
M  V30 63 1 13 55
M  V30 64 1 14 56
M  V30 65 1 15 57
M  V30 66 1 15 58
M  V30 67 1 16 59 CFG=1
M  V30 68 1 19 60
M  V30 69 1 19 61
M  V30 70 1 19 62
M  V30 71 1 22 63
M  V30 72 1 23 64
M  V30 73 1 24 65
M  V30 74 1 25 66
M  V30 75 1 32 67
M  V30 76 1 33 68
M  V30 77 1 34 69
M  V30 78 1 35 70
M  V30 79 1 42 71
M  V30 80 1 43 72
M  V30 81 1 43 73
M  V30 END BOND
M  V30 END CTAB
M  END
>  <Dataset>  (65) 
PKIs

>  <Ligand_Instance>  (65) 
nan

>  <PDB_ID>  (65) 
nan

>  <Standardized_SMILES>  (65) 
CO[C@@H]1[C@H](N(C)C(=O)c2ccccc2)C[C@H]2O[C@]1(C)n1c3ccccc3c3c4c(c5c6ccccc6n2c5c31)C(=O)NC4

>  <Name>  (65) 
Midostaurin

>  <Pocket>  (65) 
nan

>  <ATP_Site>  (65) 
nan

>  <Peripheral>  (65) 
nan

>  <Num_H_Atoms_ProtBoundConf>  (65) 
nan

>  <Num_Resolved_Atoms>  (65) 
nan

>  <Num_Not_Resolved_Atoms>  (65) 
nan

$$$$
nan
     RDKit          3D

  0  0  0  0  0  0  0  0  0  0999 V3000
M  V30 BEGIN CTAB
M  V30 COUNTS 79 83 0 0 0
M  V30 BEGIN ATOM
M  V30 1 C 2.247544 -0.831667 5.373830 0
M  V30 2 O 2.061959 -1.773173 4.318861 0
M  V30 3 C 0.875739 -1.711774 3.589610 0
M  V30 4 C -0.076075 -0.748408 3.904526 0
M  V30 5 C -1.252898 -0.682795 3.189684 0
M  V30 6 N -2.285093 0.299621 3.418827 0
M  V30 7 C -3.677221 0.139914 3.132114 0
M  V30 8 C -4.146278 1.036987 2.013890 0
M  V30 9 C -3.383205 2.302950 1.909501 0
M  V30 10 N -2.620425 2.449647 0.701401 0
M  V30 11 C -3.401863 2.393593 -0.494363 0
M  V30 12 C -2.782709 1.587901 -1.611171 0
M  V30 13 N -1.393748 1.833313 -1.786740 0
M  V30 14 C -1.069632 2.508999 -3.021147 0
M  V30 15 C -0.696657 2.318635 -0.637772 0
M  V30 16 C -1.414899 1.723448 0.588951 0
M  V30 17 C -2.546492 2.681066 3.090993 0
M  V30 18 C -2.029088 1.604185 3.959631 0
M  V30 19 C -1.498816 -1.580308 2.147130 0
M  V30 20 C -0.502216 -2.504882 1.899639 0
M  V30 21 C 0.696738 -2.620936 2.578404 0
M  V30 22 N 1.683451 -3.593835 2.240035 0
M  V30 23 C 1.363719 -4.466330 1.148658 0
M  V30 24 N 1.091165 -5.778657 0.991298 0
M  V30 25 C 0.798944 -6.279462 -0.221057 0
M  V30 26 C 0.758440 -5.501853 -1.363571 0
M  V30 27 Cl 0.363072 -6.304899 -2.863461 0
M  V30 28 C 1.041076 -4.154677 -1.185685 0
M  V30 29 N 0.982717 -3.370813 -2.364524 0
M  V30 30 C 1.709897 -2.880352 -3.469931 0
M  V30 31 C 1.138906 -3.340630 -4.665618 0
M  V30 32 C 1.695717 -2.975929 -5.890294 0
M  V30 33 C 2.799150 -2.165022 -5.825108 0
M  V30 34 C 3.378895 -1.698820 -4.656528 0
M  V30 35 C 2.817368 -2.067290 -3.447234 0
M  V30 36 P 3.447084 -1.553644 -1.886596 0
M  V30 37 C 2.245458 -0.728444 -0.831142 0
M  V30 38 C 4.812479 -0.368352 -2.189344 0
M  V30 39 O 4.067299 -2.699877 -1.111858 0
M  V30 40 N 1.322554 -3.723350 0.036418 0
M  V30 41 H 3.151390 -1.094871 5.962826 0
M  V30 42 H 2.227261 0.209672 5.021509 0
M  V30 43 H 1.398747 -0.934721 6.106023 0
M  V30 44 H 0.077852 -0.036934 4.702882 0
M  V30 45 H -4.280939 0.342006 4.043062 0
M  V30 46 H -3.867426 -0.929242 2.885114 0
M  V30 47 H -5.234420 1.219691 2.186355 0
M  V30 48 H -4.116825 0.408862 1.097973 0
M  V30 49 H -4.149336 3.150317 1.835352 0
M  V30 50 H -4.380291 1.910842 -0.243890 0
M  V30 51 H -3.656924 3.427507 -0.827949 0
M  V30 52 H -3.290904 1.917107 -2.563822 0
M  V30 53 H -2.993538 0.513638 -1.518863 0
M  V30 54 H 0.012018 2.580272 -3.137529 0
M  V30 55 H -1.552333 3.486999 -3.109516 0
M  V30 56 H -1.466715 1.900423 -3.877377 0
M  V30 57 H 0.375865 2.062710 -0.647918 0
M  V30 58 H -0.821639 3.432692 -0.596495 0
M  V30 59 H -0.758925 1.792241 1.454968 0
M  V30 60 H -1.543182 0.645286 0.281182 0
M  V30 61 H -3.099596 3.406527 3.761437 0
M  V30 62 H -1.634666 3.219960 2.677488 0
M  V30 63 H -0.946696 1.741965 4.218917 0
M  V30 64 H -2.560307 1.636874 4.946002 0
M  V30 65 H -2.410172 -1.544941 1.580316 0
M  V30 66 H -0.735320 -3.188828 1.077158 0
M  V30 67 H 2.560300 -3.583161 2.822031 0
M  V30 68 H 0.605023 -7.342901 -0.177835 0
M  V30 69 H -0.038182 -3.070130 -2.320644 0
M  V30 70 H 0.263179 -3.982084 -4.749839 0
M  V30 71 H 1.268750 -3.321765 -6.821086 0
M  V30 72 H 3.267251 -1.854143 -6.732459 0
M  V30 73 H 4.253458 -1.057147 -4.648695 0
M  V30 74 H 2.369968 0.363293 -0.941768 0
M  V30 75 H 1.190912 -0.941849 -1.145174 0
M  V30 76 H 2.394620 -0.962148 0.245849 0
M  V30 77 H 5.352601 -0.191257 -1.233419 0
M  V30 78 H 5.499098 -0.699136 -2.968569 0
M  V30 79 H 4.368438 0.616008 -2.450051 0
M  V30 END ATOM
M  V30 BEGIN BOND
M  V30 1 1 1 2
M  V30 2 1 2 3
M  V30 3 2 3 4
M  V30 4 1 4 5
M  V30 5 1 5 6
M  V30 6 1 6 7
M  V30 7 1 7 8
M  V30 8 1 8 9
M  V30 9 1 9 10
M  V30 10 1 10 11
M  V30 11 1 11 12
M  V30 12 1 12 13
M  V30 13 1 13 14
M  V30 14 1 13 15
M  V30 15 1 15 16
M  V30 16 1 9 17
M  V30 17 1 17 18
M  V30 18 2 5 19
M  V30 19 1 19 20
M  V30 20 2 20 21
M  V30 21 1 21 22
M  V30 22 1 22 23
M  V30 23 2 23 24
M  V30 24 1 24 25
M  V30 25 2 25 26
M  V30 26 1 26 27
M  V30 27 1 26 28
M  V30 28 1 28 29
M  V30 29 1 29 30
M  V30 30 2 30 31
M  V30 31 1 31 32
M  V30 32 2 32 33
M  V30 33 1 33 34
M  V30 34 2 34 35
M  V30 35 1 35 36
M  V30 36 1 36 37
M  V30 37 1 36 38
M  V30 38 2 36 39
M  V30 39 2 28 40
M  V30 40 1 21 3
M  V30 41 1 40 23
M  V30 42 1 18 6
M  V30 43 1 35 30
M  V30 44 1 16 10
M  V30 45 1 1 41
M  V30 46 1 1 42
M  V30 47 1 1 43
M  V30 48 1 4 44
M  V30 49 1 7 45
M  V30 50 1 7 46
M  V30 51 1 8 47
M  V30 52 1 8 48
M  V30 53 1 9 49
M  V30 54 1 11 50
M  V30 55 1 11 51
M  V30 56 1 12 52
M  V30 57 1 12 53
M  V30 58 1 14 54
M  V30 59 1 14 55
M  V30 60 1 14 56
M  V30 61 1 15 57
M  V30 62 1 15 58
M  V30 63 1 16 59
M  V30 64 1 16 60
M  V30 65 1 17 61
M  V30 66 1 17 62
M  V30 67 1 18 63
M  V30 68 1 18 64
M  V30 69 1 19 65
M  V30 70 1 20 66
M  V30 71 1 22 67
M  V30 72 1 25 68
M  V30 73 1 29 69
M  V30 74 1 31 70
M  V30 75 1 32 71
M  V30 76 1 33 72
M  V30 77 1 34 73
M  V30 78 1 37 74
M  V30 79 1 37 75
M  V30 80 1 37 76
M  V30 81 1 38 77
M  V30 82 1 38 78
M  V30 83 1 38 79
M  V30 END BOND
M  V30 END CTAB
M  END
>  <Dataset>  (66) 
PKIs

>  <Ligand_Instance>  (66) 
nan

>  <PDB_ID>  (66) 
nan

>  <Standardized_SMILES>  (66) 
COc1cc(N2CCC(N3CCN(C)CC3)CC2)ccc1Nc1ncc(Cl)c(Nc2ccccc2P(C)(C)=O)n1

>  <Name>  (66) 
Brigatinib

>  <Pocket>  (66) 
nan

>  <ATP_Site>  (66) 
nan

>  <Peripheral>  (66) 
nan

>  <Num_H_Atoms_ProtBoundConf>  (66) 
nan

>  <Num_Resolved_Atoms>  (66) 
nan

>  <Num_Not_Resolved_Atoms>  (66) 
nan

$$$$
nan
     RDKit          3D

  0  0  0  0  0  0  0  0  0  0999 V3000
M  V30 BEGIN CTAB
M  V30 COUNTS 63 67 0 0 0
M  V30 BEGIN ATOM
M  V30 1 C 0.999663 -1.694505 3.207705 0
M  V30 2 O 1.076767 -1.318181 1.866476 0
M  V30 3 C 0.393529 -0.216306 1.309586 0
M  V30 4 C 0.936748 1.075933 1.250729 0
M  V30 5 O 2.105480 1.177944 1.741246 0
M  V30 6 C 3.306147 1.287408 2.243989 0
M  V30 7 C 4.476102 1.685545 1.390195 0
M  V30 8 C 4.299017 3.016579 0.756361 0
M  V30 9 N 3.145106 2.978552 -0.120416 0
M  V30 10 C 3.469799 2.091312 -1.238324 0
M  V30 11 C 2.447727 2.379124 -2.329984 0
M  V30 12 O 2.797191 3.588230 -2.931759 0
M  V30 13 C 3.355493 4.481831 -2.043805 0
M  V30 14 C 2.859097 4.319982 -0.619339 0
M  V30 15 C 0.127214 2.023168 0.674612 0
M  V30 16 C -1.127404 1.767724 0.179342 0
M  V30 17 C -1.586871 0.471827 0.275594 0
M  V30 18 C -0.859203 -0.555123 0.834492 0
M  V30 19 N -1.412064 -1.865027 0.890366 0
M  V30 20 C -2.613522 -2.108355 0.413218 0
M  V30 21 N -3.168132 -3.418999 0.469279 0
M  V30 22 C -2.473739 -4.518010 1.042630 0
M  V30 23 O -1.326794 -4.234271 1.498736 0
M  V30 24 C -3.028878 -5.866919 1.105335 0
M  V30 25 C -4.259208 -6.225382 0.599126 0
M  V30 26 N -4.722799 -7.484069 0.685632 0
M  V30 27 C -3.961364 -8.443410 1.290202 0
M  V30 28 N -4.509622 -9.753296 1.347462 0
M  V30 29 N -2.758012 -8.103349 1.787825 0
M  V30 30 C -2.259241 -6.849499 1.719589 0
M  V30 31 N -3.434237 -1.097696 -0.183290 0
M  V30 32 C -4.755947 -1.113010 -0.768678 0
M  V30 33 C -4.981291 0.314267 -1.191980 0
M  V30 34 N -3.784515 0.998970 -0.817745 0
M  V30 35 C -2.918426 0.219453 -0.257003 0
M  V30 36 H 0.899487 -0.815881 3.876953 0
M  V30 37 H 0.193979 -2.449704 3.346503 0
M  V30 38 H 1.949403 -2.235982 3.476529 0
M  V30 39 H 3.338222 1.909938 3.203679 0
M  V30 40 H 3.629691 0.254963 2.657848 0
M  V30 41 H 4.629946 0.861969 0.665138 0
M  V30 42 H 5.426833 1.720126 1.991300 0
M  V30 43 H 5.179292 3.323914 0.133890 0
M  V30 44 H 4.083416 3.829598 1.493346 0
M  V30 45 H 3.458570 1.034630 -0.985858 0
M  V30 46 H 4.457831 2.438176 -1.629288 0
M  V30 47 H 1.437922 2.482421 -1.890948 0
M  V30 48 H 2.447209 1.607973 -3.127801 0
M  V30 49 H 4.453315 4.479063 -2.012225 0
M  V30 50 H 3.026777 5.499703 -2.375664 0
M  V30 51 H 3.439073 5.024515 0.008027 0
M  V30 52 H 1.811740 4.617695 -0.541079 0
M  V30 53 H 0.479581 3.024384 0.608614 0
M  V30 54 H -1.710485 2.576948 -0.265651 0
M  V30 55 H -4.128784 -3.599535 0.076304 0
M  V30 56 H -4.872374 -5.477599 0.118581 0
M  V30 57 H -4.284816 -10.655682 0.839666 0
M  V30 58 H -4.203299 -10.599158 0.784705 0
M  V30 59 H -1.273280 -6.703355 2.160386 0
M  V30 60 H -4.790219 -1.782672 -1.657475 0
M  V30 61 H -5.546433 -1.432275 -0.050031 0
M  V30 62 H -5.164094 0.361888 -2.284154 0
M  V30 63 H -5.877780 0.758932 -0.678406 0
M  V30 END ATOM
M  V30 BEGIN BOND
M  V30 1 1 1 2
M  V30 2 1 2 3
M  V30 3 2 3 4
M  V30 4 1 4 5
M  V30 5 1 5 6
M  V30 6 1 6 7
M  V30 7 1 7 8
M  V30 8 1 8 9
M  V30 9 1 9 10
M  V30 10 1 10 11
M  V30 11 1 11 12
M  V30 12 1 12 13
M  V30 13 1 13 14
M  V30 14 1 4 15
M  V30 15 2 15 16
M  V30 16 1 16 17
M  V30 17 2 17 18
M  V30 18 1 18 19
M  V30 19 2 19 20
M  V30 20 1 20 21
M  V30 21 1 21 22
M  V30 22 2 22 23
M  V30 23 1 22 24
M  V30 24 2 24 25
M  V30 25 1 25 26
M  V30 26 2 26 27
M  V30 27 1 27 28
M  V30 28 1 27 29
M  V30 29 2 29 30
M  V30 30 1 20 31
M  V30 31 1 31 32
M  V30 32 1 32 33
M  V30 33 1 33 34
M  V30 34 2 34 35
M  V30 35 1 18 3
M  V30 36 1 30 24
M  V30 37 1 35 31
M  V30 38 1 14 9
M  V30 39 1 35 17
M  V30 40 1 1 36
M  V30 41 1 1 37
M  V30 42 1 1 38
M  V30 43 1 6 39
M  V30 44 1 6 40
M  V30 45 1 7 41
M  V30 46 1 7 42
M  V30 47 1 8 43
M  V30 48 1 8 44
M  V30 49 1 10 45
M  V30 50 1 10 46
M  V30 51 1 11 47
M  V30 52 1 11 48
M  V30 53 1 13 49
M  V30 54 1 13 50
M  V30 55 1 14 51
M  V30 56 1 14 52
M  V30 57 1 15 53
M  V30 58 1 16 54
M  V30 59 1 21 55
M  V30 60 1 25 56
M  V30 61 1 28 57
M  V30 62 1 28 58
M  V30 63 1 30 59
M  V30 64 1 32 60
M  V30 65 1 32 61
M  V30 66 1 33 62
M  V30 67 1 33 63
M  V30 END BOND
M  V30 END CTAB
M  END
>  <Dataset>  (67) 
PKIs

>  <Ligand_Instance>  (67) 
nan

>  <PDB_ID>  (67) 
nan

>  <Standardized_SMILES>  (67) 
COc1c(OCCCN2CCOCC2)ccc2c1N=C(NC(=O)c1cnc(N)nc1)N1CCN=C21

>  <Name>  (67) 
Copanlisib

>  <Pocket>  (67) 
nan

>  <ATP_Site>  (67) 
nan

>  <Peripheral>  (67) 
nan

>  <Num_H_Atoms_ProtBoundConf>  (67) 
nan

>  <Num_Resolved_Atoms>  (67) 
nan

>  <Num_Not_Resolved_Atoms>  (67) 
nan

$$$$
nan
     RDKit          3D

  0  0  0  0  0  0  0  0  0  0999 V3000
M  V30 BEGIN CTAB
M  V30 COUNTS 61 64 0 0 0
M  V30 BEGIN ATOM
M  V30 1 C 5.438760 -3.517088 5.953978 0
M  V30 2 C 5.225087 -2.660459 4.766783 0
M  V30 3 C 6.348015 -2.185795 4.119114 0
M  V30 4 C 6.233916 -1.374449 2.995354 0
M  V30 5 C 4.966601 -1.051329 2.537777 0
M  V30 6 C 4.937809 -0.194656 1.351361 0
M  V30 7 O 5.958523 0.244587 0.752022 0
M  V30 8 O 3.760332 0.232010 0.750285 0
M  V30 9 C 3.670125 1.047914 -0.380771 0
M  V30 10 C 2.216865 1.277283 -0.711065 0
M  V30 11 C 1.484351 2.333568 -0.197550 0
M  V30 12 C 0.144211 2.481057 -0.547604 0
M  V30 13 C -0.485811 1.592934 -1.403879 0
M  V30 14 C -1.912106 1.708552 -1.805226 0 CFG=1
M  V30 15 C -2.101666 1.934779 -3.274857 0
M  V30 16 N -1.577522 0.901158 -4.113217 0
M  V30 17 C -2.712883 0.559772 -1.284257 0
M  V30 18 O -1.812024 -0.078094 -0.683834 0
M  V30 19 N -4.086894 0.472493 -1.548196 0
M  V30 20 C -4.671469 -0.706121 -0.958709 0
M  V30 21 C -5.133542 -0.466852 0.339380 0
M  V30 22 C -5.739836 -1.463408 1.111148 0
M  V30 23 C -5.847856 -2.698554 0.496964 0
M  V30 24 C -6.444263 -3.729514 1.220003 0
M  V30 25 N -6.541902 -4.910143 0.619096 0
M  V30 26 C -6.110256 -5.171341 -0.620307 0
M  V30 27 C -5.504902 -4.172220 -1.387787 0
M  V30 28 C -5.399238 -2.955262 -0.780625 0
M  V30 29 C -4.801977 -1.955547 -1.528059 0
M  V30 30 C 0.234155 0.535093 -1.922841 0
M  V30 31 C 1.566134 0.387820 -1.575395 0
M  V30 32 C 3.827354 -1.512365 3.166483 0
M  V30 33 C 2.497634 -1.132568 2.630268 0
M  V30 34 C 3.968754 -2.323454 4.290112 0
M  V30 35 H 6.135851 -4.374893 5.742001 0
M  V30 36 H 4.484165 -4.020477 6.254610 0
M  V30 37 H 5.883027 -2.980321 6.815202 0
M  V30 38 H 7.346519 -2.449805 4.492603 0
M  V30 39 H 7.128227 -1.027056 2.521802 0
M  V30 40 H 4.091533 0.494320 -1.242053 0
M  V30 41 H 4.220192 2.004207 -0.275652 0
M  V30 42 H 1.968368 3.028268 0.469217 0
M  V30 43 H -0.437082 3.294499 -0.157977 0
M  V30 44 H -2.352548 2.613673 -1.301527 0
M  V30 45 H -1.593703 2.877526 -3.526684 0
M  V30 46 H -3.190821 2.111163 -3.423838 0
M  V30 47 H -1.309034 1.325112 -5.027092 0
M  V30 48 H -2.294378 0.147483 -4.234128 0
M  V30 49 H -4.503647 1.232096 -2.111452 0
M  V30 50 H -5.064364 0.496904 0.855634 0
M  V30 51 H -6.093856 -1.290944 2.097541 0
M  V30 52 H -6.828763 -3.629174 2.229963 0
M  V30 53 H -6.252568 -6.163023 -0.978464 0
M  V30 54 H -5.156483 -4.384594 -2.389129 0
M  V30 55 H -4.416379 -2.032157 -2.523778 0
M  V30 56 H -0.130765 -0.225860 -2.596988 0
M  V30 57 H 2.175022 -0.428079 -1.957425 0
M  V30 58 H 2.413181 -0.021609 2.644925 0
M  V30 59 H 1.696229 -1.529659 3.288801 0
M  V30 60 H 2.370149 -1.478954 1.590835 0
M  V30 61 H 3.089637 -2.699065 4.802534 0
M  V30 END ATOM
M  V30 BEGIN BOND
M  V30 1 1 1 2
M  V30 2 2 2 3
M  V30 3 1 3 4
M  V30 4 2 4 5
M  V30 5 1 5 6
M  V30 6 2 6 7
M  V30 7 1 6 8
M  V30 8 1 8 9
M  V30 9 1 9 10
M  V30 10 2 10 11
M  V30 11 1 11 12
M  V30 12 2 12 13
M  V30 13 1 13 14
M  V30 14 1 14 15
M  V30 15 1 15 16
M  V30 16 1 14 17
M  V30 17 2 17 18
M  V30 18 1 17 19
M  V30 19 1 19 20
M  V30 20 2 20 21
M  V30 21 1 21 22
M  V30 22 2 22 23
M  V30 23 1 23 24
M  V30 24 2 24 25
M  V30 25 1 25 26
M  V30 26 2 26 27
M  V30 27 1 27 28
M  V30 28 2 28 29
M  V30 29 1 13 30
M  V30 30 2 30 31
M  V30 31 1 5 32
M  V30 32 1 32 33
M  V30 33 2 32 34
M  V30 34 1 34 2
M  V30 35 1 31 10
M  V30 36 1 29 20
M  V30 37 1 28 23
M  V30 38 1 1 35
M  V30 39 1 1 36
M  V30 40 1 1 37
M  V30 41 1 3 38
M  V30 42 1 4 39
M  V30 43 1 9 40
M  V30 44 1 9 41
M  V30 45 1 11 42
M  V30 46 1 12 43
M  V30 47 1 14 44 CFG=1
M  V30 48 1 15 45
M  V30 49 1 15 46
M  V30 50 1 16 47
M  V30 51 1 16 48
M  V30 52 1 19 49
M  V30 53 1 21 50
M  V30 54 1 22 51
M  V30 55 1 24 52
M  V30 56 1 26 53
M  V30 57 1 27 54
M  V30 58 1 29 55
M  V30 59 1 30 56
M  V30 60 1 31 57
M  V30 61 1 33 58
M  V30 62 1 33 59
M  V30 63 1 33 60
M  V30 64 1 34 61
M  V30 END BOND
M  V30 END CTAB
M  END
>  <Dataset>  (68) 
PKIs

>  <Ligand_Instance>  (68) 
nan

>  <PDB_ID>  (68) 
nan

>  <Standardized_SMILES>  (68) 
Cc1ccc(C(=O)OCc2ccc([C@@H](CN)C(=O)Nc3ccc4cnccc4c3)cc2)c(C)c1

>  <Name>  (68) 
Netarsudil

>  <Pocket>  (68) 
nan

>  <ATP_Site>  (68) 
nan

>  <Peripheral>  (68) 
nan

>  <Num_H_Atoms_ProtBoundConf>  (68) 
nan

>  <Num_Resolved_Atoms>  (68) 
nan

>  <Num_Not_Resolved_Atoms>  (68) 
nan

$$$$
nan
     RDKit          3D

  0  0  0  0  0  0  0  0  0  0999 V3000
M  V30 BEGIN CTAB
M  V30 COUNTS 69 72 0 0 0
M  V30 BEGIN ATOM
M  V30 1 C 2.854938 1.793637 5.906506 0
M  V30 2 C 2.436053 0.341243 5.929005 0
M  V30 3 O 1.620988 0.131324 4.806233 0
M  V30 4 C 1.989024 0.308454 3.485366 0
M  V30 5 C 3.211615 0.717987 2.992710 0
M  V30 6 C 3.421834 0.846875 1.637722 0
M  V30 7 N 4.623887 1.251932 1.174409 0
M  V30 8 C 4.788311 1.370847 -0.173630 0
M  V30 9 C 3.788897 1.097702 -1.092823 0
M  V30 10 C 4.032592 1.245093 -2.505262 0
M  V30 11 N 4.218845 1.362938 -3.637288 0
M  V30 12 C 2.562691 0.681205 -0.567093 0
M  V30 13 N 1.523058 0.400749 -1.457239 0
M  V30 14 C 1.123447 -0.765422 -2.151259 0
M  V30 15 C -0.009192 -0.633986 -2.924120 0
M  V30 16 C -0.398125 -1.765806 -3.608020 0
M  V30 17 C 0.245720 -2.980241 -3.574084 0
M  V30 18 O 0.103737 -4.175480 -4.102942 0
M  V30 19 C -0.626095 -4.965456 -4.920776 0
M  V30 20 C -0.724326 -4.562408 -6.357554 0
M  V30 21 C -1.367973 -3.463620 -6.850535 0
M  V30 22 C -1.446523 -3.151588 -8.184233 0
M  V30 23 C -0.868669 -3.941570 -9.125267 0
M  V30 24 C -0.227574 -5.040755 -8.594936 0
M  V30 25 N -0.156085 -5.337608 -7.294897 0
M  V30 26 C 1.394486 -3.040615 -2.761578 0
M  V30 27 Cl 2.450885 -4.429601 -2.488140 0
M  V30 28 C 1.857935 -1.928215 -2.031098 0
M  V30 29 C 2.362201 0.550393 0.805549 0
M  V30 30 C 1.118043 0.136762 1.233542 0
M  V30 31 C 0.943340 0.017696 2.610205 0
M  V30 32 N -0.357691 -0.415590 3.008963 0
M  V30 33 C -1.400130 0.522003 3.274199 0
M  V30 34 O -1.267843 1.770559 3.184555 0
M  V30 35 C -2.697947 -0.002758 3.673942 0
M  V30 36 C -3.736370 0.771064 3.946212 0
M  V30 37 C -5.105623 0.404130 4.359924 0
M  V30 38 N -5.415537 0.988493 5.675053 0
M  V30 39 C -4.602052 0.348110 6.703692 0
M  V30 40 C -5.261545 2.413306 5.697394 0
M  V30 41 H 2.356615 2.305446 6.749691 0
M  V30 42 H 2.525227 2.331624 4.995186 0
M  V30 43 H 3.965145 1.851297 6.023822 0
M  V30 44 H 1.915293 0.127428 6.870428 0
M  V30 45 H 3.356985 -0.304807 5.824470 0
M  V30 46 H 3.969866 0.921303 3.735252 0
M  V30 47 H 5.768242 1.697765 -0.491338 0
M  V30 48 H 1.052443 1.327520 -1.509939 0
M  V30 49 H -0.599741 0.261977 -3.035380 0
M  V30 50 H -1.270900 -1.776107 -4.230399 0
M  V30 51 H -1.694203 -5.103810 -4.549168 0
M  V30 52 H -0.199229 -6.018969 -4.928883 0
M  V30 53 H -1.861759 -2.794181 -6.187520 0
M  V30 54 H -1.985476 -2.245862 -8.513921 0
M  V30 55 H -0.880649 -3.770114 -10.187284 0
M  V30 56 H 0.277225 -5.757441 -9.258166 0
M  V30 57 H 2.713090 -1.878803 -1.391175 0
M  V30 58 H 0.318305 -0.085083 0.522380 0
M  V30 59 H -0.490692 -1.447237 3.093106 0
M  V30 60 H -2.911409 -1.055387 3.778313 0
M  V30 61 H -3.631919 1.845794 3.871304 0
M  V30 62 H -5.105080 -0.705098 4.561114 0
M  V30 63 H -5.883060 0.600924 3.615412 0
M  V30 64 H -3.923988 1.038476 7.208087 0
M  V30 65 H -5.327906 0.002927 7.494897 0
M  V30 66 H -4.090888 -0.537546 6.257434 0
M  V30 67 H -4.309595 2.745256 6.206023 0
M  V30 68 H -5.374730 2.915884 4.720787 0
M  V30 69 H -6.071603 2.829261 6.357384 0
M  V30 END ATOM
M  V30 BEGIN BOND
M  V30 1 1 1 2
M  V30 2 1 2 3
M  V30 3 1 3 4
M  V30 4 2 4 5
M  V30 5 1 5 6
M  V30 6 2 6 7
M  V30 7 1 7 8
M  V30 8 2 8 9
M  V30 9 1 9 10
M  V30 10 3 10 11
M  V30 11 1 9 12
M  V30 12 1 12 13
M  V30 13 1 13 14
M  V30 14 2 14 15
M  V30 15 1 15 16
M  V30 16 2 16 17
M  V30 17 1 17 18
M  V30 18 1 18 19
M  V30 19 1 19 20
M  V30 20 2 20 21
M  V30 21 1 21 22
M  V30 22 2 22 23
M  V30 23 1 23 24
M  V30 24 2 24 25
M  V30 25 1 17 26
M  V30 26 1 26 27
M  V30 27 2 26 28
M  V30 28 2 12 29
M  V30 29 1 29 30
M  V30 30 2 30 31
M  V30 31 1 31 32
M  V30 32 1 32 33
M  V30 33 2 33 34
M  V30 34 1 33 35
M  V30 35 2 35 36
M  V30 36 1 36 37
M  V30 37 1 37 38
M  V30 38 1 38 39
M  V30 39 1 38 40
M  V30 40 1 31 4
M  V30 41 1 29 6
M  V30 42 1 28 14
M  V30 43 1 25 20
M  V30 44 1 1 41
M  V30 45 1 1 42
M  V30 46 1 1 43
M  V30 47 1 2 44
M  V30 48 1 2 45
M  V30 49 1 5 46
M  V30 50 1 8 47
M  V30 51 1 13 48
M  V30 52 1 15 49
M  V30 53 1 16 50
M  V30 54 1 19 51
M  V30 55 1 19 52
M  V30 56 1 21 53
M  V30 57 1 22 54
M  V30 58 1 23 55
M  V30 59 1 24 56
M  V30 60 1 28 57
M  V30 61 1 30 58
M  V30 62 1 32 59
M  V30 63 1 35 60
M  V30 64 1 36 61
M  V30 65 1 37 62
M  V30 66 1 37 63
M  V30 67 1 39 64
M  V30 68 1 39 65
M  V30 69 1 39 66
M  V30 70 1 40 67
M  V30 71 1 40 68
M  V30 72 1 40 69
M  V30 END BOND
M  V30 END CTAB
M  END
>  <Dataset>  (69) 
PKIs

>  <Ligand_Instance>  (69) 
nan

>  <PDB_ID>  (69) 
nan

>  <Standardized_SMILES>  (69) 
CCOc1cc2ncc(C#N)c(Nc3ccc(OCc4ccccn4)c(Cl)c3)c2cc1NC(=O)/C=C/CN(C)C

>  <Name>  (69) 
Neratinib

>  <Pocket>  (69) 
nan

>  <ATP_Site>  (69) 
nan

>  <Peripheral>  (69) 
nan

>  <Num_H_Atoms_ProtBoundConf>  (69) 
nan

>  <Num_Resolved_Atoms>  (69) 
nan

>  <Num_Not_Resolved_Atoms>  (69) 
nan

$$$$
nan
     RDKit          3D

  0  0  0  0  0  0  0  0  0  0999 V3000
M  V30 BEGIN CTAB
M  V30 COUNTS 69 73 0 0 0
M  V30 BEGIN ATOM
M  V30 1 C 3.204152 -2.583726 5.015570 0
M  V30 2 C 4.263011 -2.680761 3.934964 0
M  V30 3 N 3.606068 -2.944329 2.675078 0
M  V30 4 C 2.838064 -1.779273 2.287772 0
M  V30 5 C 2.782584 -1.779084 0.777158 0
M  V30 6 N 4.053788 -1.368141 0.285035 0
M  V30 7 C 4.330338 0.023514 0.295691 0
M  V30 8 C 3.323147 0.773595 -0.501591 0
M  V30 9 C 3.362534 1.050722 -1.852926 0
M  V30 10 C 2.345500 1.758985 -2.459161 0
M  V30 11 C 1.248548 2.224584 -1.764649 0
M  V30 12 N 0.174168 2.950266 -2.395009 0
M  V30 13 C -0.885224 3.367347 -1.505674 0
M  V30 14 N -1.220283 4.645349 -1.241238 0
M  V30 15 C -2.228156 4.903745 -0.369895 0
M  V30 16 C -2.920285 3.884376 0.254048 0
M  V30 17 F -3.926076 4.023639 1.126609 0
M  V30 18 C -2.575507 2.589175 -0.018266 0
M  V30 19 C -3.151448 1.341194 0.529240 0
M  V30 20 C -3.404851 1.289317 1.894830 0
M  V30 21 C -3.929475 0.111461 2.397786 0
M  V30 22 F -4.217499 -0.055248 3.714453 0
M  V30 23 C -4.180821 -0.954614 1.548666 0
M  V30 24 N -4.677953 -2.212633 1.731088 0
M  V30 25 C -4.709530 -2.842233 0.554897 0
M  V30 26 C -5.209312 -4.248784 0.443486 0
M  V30 27 N -4.238208 -2.028254 -0.438252 0
M  V30 28 C -4.136867 -2.394145 -1.837461 0
M  V30 29 C -5.426279 -2.011446 -2.580894 0
M  V30 30 C -2.922611 -1.885846 -2.530847 0
M  V30 31 C -3.924410 -0.887377 0.196414 0
M  V30 32 C -3.402242 0.279041 -0.316895 0
M  V30 33 N -1.560692 2.358358 -0.896817 0
M  V30 34 N 1.238258 1.940108 -0.450163 0
M  V30 35 C 2.201642 1.255398 0.185286 0
M  V30 36 C 5.073558 -2.207564 0.823510 0
M  V30 37 C 4.553260 -3.346427 1.679469 0
M  V30 38 H 2.285864 -3.108572 4.660924 0
M  V30 39 H 3.013679 -1.543243 5.343065 0
M  V30 40 H 3.553540 -3.135124 5.913790 0
M  V30 41 H 4.989547 -3.505904 4.159729 0
M  V30 42 H 4.776678 -1.699022 3.874719 0
M  V30 43 H 3.344634 -0.852355 2.619507 0
M  V30 44 H 1.828255 -1.746674 2.745901 0
M  V30 45 H 2.506311 -2.815533 0.413831 0
M  V30 46 H 1.918981 -1.157791 0.466757 0
M  V30 47 H 4.277315 0.399531 1.335805 0
M  V30 48 H 5.365809 0.238558 -0.045616 0
M  V30 49 H 4.224388 0.678409 -2.371164 0
M  V30 50 H 2.404601 1.961670 -3.526942 0
M  V30 51 H 0.259004 3.105363 -3.420861 0
M  V30 52 H -2.518778 5.916122 -0.138553 0
M  V30 53 H -3.219823 2.097513 2.567497 0
M  V30 54 H -5.316502 -4.573852 -0.592191 0
M  V30 55 H -6.120983 -4.326588 1.042423 0
M  V30 56 H -4.446699 -4.894857 0.958330 0
M  V30 57 H -4.091443 -3.504021 -1.884898 0
M  V30 58 H -6.099247 -2.902213 -2.707840 0
M  V30 59 H -6.004185 -1.314002 -1.921584 0
M  V30 60 H -5.206175 -1.590318 -3.577985 0
M  V30 61 H -2.512741 -2.657555 -3.249696 0
M  V30 62 H -3.210279 -1.049285 -3.233403 0
M  V30 63 H -2.076603 -1.647315 -1.880064 0
M  V30 64 H -3.175791 0.416165 -1.342292 0
M  V30 65 H 2.014966 1.129160 1.238166 0
M  V30 66 H 5.653618 -2.717766 -0.003451 0
M  V30 67 H 5.814410 -1.614236 1.406055 0
M  V30 68 H 4.174327 -4.191068 1.044976 0
M  V30 69 H 5.451264 -3.761263 2.218076 0
M  V30 END ATOM
M  V30 BEGIN BOND
M  V30 1 1 1 2
M  V30 2 1 2 3
M  V30 3 1 3 4
M  V30 4 1 4 5
M  V30 5 1 5 6
M  V30 6 1 6 7
M  V30 7 1 7 8
M  V30 8 2 8 9
M  V30 9 1 9 10
M  V30 10 2 10 11
M  V30 11 1 11 12
M  V30 12 1 12 13
M  V30 13 2 13 14
M  V30 14 1 14 15
M  V30 15 2 15 16
M  V30 16 1 16 17
M  V30 17 1 16 18
M  V30 18 1 18 19
M  V30 19 2 19 20
M  V30 20 1 20 21
M  V30 21 1 21 22
M  V30 22 2 21 23
M  V30 23 1 23 24
M  V30 24 2 24 25
M  V30 25 1 25 26
M  V30 26 1 25 27
M  V30 27 1 27 28
M  V30 28 1 28 29
M  V30 29 1 28 30
M  V30 30 1 27 31
M  V30 31 2 31 32
M  V30 32 2 18 33
M  V30 33 1 11 34
M  V30 34 2 34 35
M  V30 35 1 6 36
M  V30 36 1 36 37
M  V30 37 1 37 3
M  V30 38 1 35 8
M  V30 39 1 33 13
M  V30 40 1 32 19
M  V30 41 1 31 23
M  V30 42 1 1 38
M  V30 43 1 1 39
M  V30 44 1 1 40
M  V30 45 1 2 41
M  V30 46 1 2 42
M  V30 47 1 4 43
M  V30 48 1 4 44
M  V30 49 1 5 45
M  V30 50 1 5 46
M  V30 51 1 7 47
M  V30 52 1 7 48
M  V30 53 1 9 49
M  V30 54 1 10 50
M  V30 55 1 12 51
M  V30 56 1 15 52
M  V30 57 1 20 53
M  V30 58 1 26 54
M  V30 59 1 26 55
M  V30 60 1 26 56
M  V30 61 1 28 57
M  V30 62 1 29 58
M  V30 63 1 29 59
M  V30 64 1 29 60
M  V30 65 1 30 61
M  V30 66 1 30 62
M  V30 67 1 30 63
M  V30 68 1 32 64
M  V30 69 1 35 65
M  V30 70 1 36 66
M  V30 71 1 36 67
M  V30 72 1 37 68
M  V30 73 1 37 69
M  V30 END BOND
M  V30 END CTAB
M  END
>  <Dataset>  (70) 
PKIs

>  <Ligand_Instance>  (70) 
nan

>  <PDB_ID>  (70) 
nan

>  <Standardized_SMILES>  (70) 
CCN1CCN(Cc2ccc(Nc3ncc(F)c(-c4cc(F)c5nc(C)n(C(C)C)c5c4)n3)nc2)CC1

>  <Name>  (70) 
Abemaciclib

>  <Pocket>  (70) 
nan

>  <ATP_Site>  (70) 
nan

>  <Peripheral>  (70) 
nan

>  <Num_H_Atoms_ProtBoundConf>  (70) 
nan

>  <Num_Resolved_Atoms>  (70) 
nan

>  <Num_Not_Resolved_Atoms>  (70) 
nan

$$$$
nan
     RDKit          3D

  0  0  0  0  0  0  0  0  0  0999 V3000
M  V30 BEGIN CTAB
M  V30 COUNTS 61 65 0 0 0
M  V30 BEGIN ATOM
M  V30 1 C 3.938526 -3.998557 2.541454 0
M  V30 2 C 4.319917 -2.827131 2.985807 0
M  V30 3 C 4.311365 -2.011857 1.772879 0
M  V30 4 O 3.951102 -2.737713 0.810291 0
M  V30 5 N 4.678034 -0.638500 1.845710 0
M  V30 6 C 4.732269 0.310566 0.790975 0
M  V30 7 C 5.865278 0.532855 0.029111 0
M  V30 8 C 5.920592 1.454759 -0.996443 0
M  V30 9 C 4.758147 2.187091 -1.256782 0
M  V30 10 C 3.589020 1.995174 -0.511299 0
M  V30 11 O 2.596035 2.812036 -0.941221 0
M  V30 12 C 1.316691 2.929093 -0.481064 0
M  V30 13 N 0.757805 2.235916 0.526898 0
M  V30 14 C -0.546611 2.542245 0.793410 0
M  V30 15 N -1.180703 1.819468 1.867643 0
M  V30 16 C -1.840908 0.606877 1.517105 0
M  V30 17 C -1.855135 0.170338 0.206512 0
M  V30 18 C -2.494327 -1.003433 -0.132487 0
M  V30 19 C -3.143802 -1.797706 0.788458 0
M  V30 20 N -3.798581 -3.002840 0.439483 0
M  V30 21 C -4.521904 -3.871399 1.328510 0
M  V30 22 C -3.794401 -5.192715 1.472275 0
M  V30 23 N -3.303609 -5.658791 0.190075 0
M  V30 24 C -1.867024 -5.502734 0.076539 0
M  V30 25 C -4.007314 -4.995148 -0.889498 0
M  V30 26 C -3.803339 -3.501334 -0.907556 0
M  V30 27 C -3.108118 -1.330024 2.084593 0
M  V30 28 C -2.480884 -0.162326 2.467391 0
M  V30 29 N -1.262081 3.451806 0.135774 0
M  V30 30 C -0.729886 4.176064 -0.893595 0
M  V30 31 C -1.414230 5.116808 -1.598992 0
M  V30 32 C -0.721559 5.747902 -2.600649 0
M  V30 33 S 1.004128 4.959515 -2.538227 0
M  V30 34 C 0.603516 3.890762 -1.196299 0
M  V30 35 C 3.626943 1.067963 0.477249 0
M  V30 36 H 3.791409 -4.938149 3.067371 0
M  V30 37 H 3.615487 -4.877353 2.002413 0
M  V30 38 H 4.509331 -2.847356 4.067735 0
M  V30 39 H 4.942702 -0.272830 2.793559 0
M  V30 40 H 6.768481 -0.039871 0.235492 0
M  V30 41 H 6.832829 1.583268 -1.555048 0
M  V30 42 H 4.891751 2.891849 -2.082576 0
M  V30 43 H -1.190024 2.117683 2.867702 0
M  V30 44 H -1.356484 0.763893 -0.551422 0
M  V30 45 H -2.460417 -1.274167 -1.175340 0
M  V30 46 H -4.669238 -3.467840 2.348313 0
M  V30 47 H -5.529353 -4.038971 0.894673 0
M  V30 48 H -4.554777 -5.923787 1.818995 0
M  V30 49 H -2.942331 -5.112158 2.152660 0
M  V30 50 H -1.647717 -4.500014 -0.359482 0
M  V30 51 H -1.430162 -5.572120 1.111646 0
M  V30 52 H -1.388192 -6.306985 -0.521345 0
M  V30 53 H -5.089654 -5.181109 -0.735372 0
M  V30 54 H -3.716399 -5.476882 -1.839752 0
M  V30 55 H -4.704402 -3.063292 -1.427638 0
M  V30 56 H -2.888185 -3.231625 -1.494690 0
M  V30 57 H -3.571137 -1.850442 2.888853 0
M  V30 58 H -2.448350 0.211037 3.479786 0
M  V30 59 H -2.439513 5.426009 -1.463437 0
M  V30 60 H -1.148592 6.582633 -3.309204 0
M  V30 61 H 2.700171 0.962934 1.017508 0
M  V30 END ATOM
M  V30 BEGIN BOND
M  V30 1 2 1 2
M  V30 2 1 2 3
M  V30 3 2 3 4
M  V30 4 1 3 5
M  V30 5 1 5 6
M  V30 6 2 6 7
M  V30 7 1 7 8
M  V30 8 2 8 9
M  V30 9 1 9 10
M  V30 10 1 10 11
M  V30 11 1 11 12
M  V30 12 2 12 13
M  V30 13 1 13 14
M  V30 14 1 14 15
M  V30 15 1 15 16
M  V30 16 2 16 17
M  V30 17 1 17 18
M  V30 18 2 18 19
M  V30 19 1 19 20
M  V30 20 1 20 21
M  V30 21 1 21 22
M  V30 22 1 22 23
M  V30 23 1 23 24
M  V30 24 1 23 25
M  V30 25 1 25 26
M  V30 26 1 19 27
M  V30 27 2 27 28
M  V30 28 2 14 29
M  V30 29 1 29 30
M  V30 30 1 30 31
M  V30 31 2 31 32
M  V30 32 1 32 33
M  V30 33 1 33 34
M  V30 34 2 10 35
M  V30 35 1 35 6
M  V30 36 1 34 12
M  V30 37 1 28 16
M  V30 38 2 34 30
M  V30 39 1 26 20
M  V30 40 1 1 36
M  V30 41 1 1 37
M  V30 42 1 2 38
M  V30 43 1 5 39
M  V30 44 1 7 40
M  V30 45 1 8 41
M  V30 46 1 9 42
M  V30 47 1 15 43
M  V30 48 1 17 44
M  V30 49 1 18 45
M  V30 50 1 21 46
M  V30 51 1 21 47
M  V30 52 1 22 48
M  V30 53 1 22 49
M  V30 54 1 24 50
M  V30 55 1 24 51
M  V30 56 1 24 52
M  V30 57 1 25 53
M  V30 58 1 25 54
M  V30 59 1 26 55
M  V30 60 1 26 56
M  V30 61 1 27 57
M  V30 62 1 28 58
M  V30 63 1 31 59
M  V30 64 1 32 60
M  V30 65 1 35 61
M  V30 END BOND
M  V30 END CTAB
M  END
>  <Dataset>  (71) 
PKIs

>  <Ligand_Instance>  (71) 
nan

>  <PDB_ID>  (71) 
nan

>  <Standardized_SMILES>  (71) 
C=CC(=O)Nc1cccc(Oc2nc(Nc3ccc(N4CCN(C)CC4)cc3)nc3ccsc23)c1

>  <Name>  (71) 
Olmutinib

>  <Pocket>  (71) 
nan

>  <ATP_Site>  (71) 
nan

>  <Peripheral>  (71) 
nan

>  <Num_H_Atoms_ProtBoundConf>  (71) 
nan

>  <Num_Resolved_Atoms>  (71) 
nan

>  <Num_Not_Resolved_Atoms>  (71) 
nan

$$$$
nan
     RDKit          3D

  0  0  0  0  0  0  0  0  0  0999 V3000
M  V30 BEGIN CTAB
M  V30 COUNTS 62 66 0 0 0
M  V30 BEGIN ATOM
M  V30 1 C 4.743035 -4.616005 4.585555 0
M  V30 2 C 3.532109 -3.844998 4.229840 0
M  V30 3 O 2.535724 -3.855396 5.022403 0
M  V30 4 C 3.110066 -2.996861 3.131045 0
M  V30 5 C 3.382792 -1.628149 3.234271 0
M  V30 6 C 4.078327 -1.042158 4.409021 0
M  V30 7 C 2.982483 -0.822916 2.193703 0
M  V30 8 C 3.228683 0.520924 2.258506 0
M  V30 9 N 2.846471 1.333102 1.256862 0
M  V30 10 C 2.207043 0.832966 0.158721 0
M  V30 11 N 1.688487 1.456191 -1.017278 0
M  V30 12 C 0.273477 1.737531 -0.998155 0
M  V30 13 C -0.382935 2.335201 -2.072126 0
M  V30 14 C -1.735148 2.600475 -2.080389 0
M  V30 15 C -2.500562 2.267186 -0.981254 0
M  V30 16 N -3.912012 2.458463 -0.840060 0
M  V30 17 C -4.718155 2.308644 0.340040 0
M  V30 18 C -5.920376 1.425061 0.186157 0
M  V30 19 N -6.578162 1.574263 -1.093702 0
M  V30 20 C -5.627565 1.584198 -2.187966 0
M  V30 21 C -4.775368 2.842882 -1.947456 0
M  V30 22 C -1.820168 1.678559 0.063648 0
M  V30 23 N -0.506609 1.419647 0.074237 0
M  V30 24 N 1.979721 -0.488645 0.123953 0
M  V30 25 C 2.337007 -1.347436 1.091928 0
M  V30 26 N 2.061978 -2.683733 0.973977 0
M  V30 27 C 1.386270 -3.240437 -0.168482 0
M  V30 28 C 0.660038 -2.257803 -1.013983 0
M  V30 29 C -0.276702 -3.131504 -1.861498 0
M  V30 30 C -0.378970 -4.444033 -1.158877 0
M  V30 31 C 0.321979 -4.247380 0.173182 0
M  V30 32 C 2.461788 -3.445357 1.999906 0
M  V30 33 O 2.278821 -4.689068 2.032455 0
M  V30 34 H 4.809339 -4.580045 5.702196 0
M  V30 35 H 4.662851 -5.706687 4.317372 0
M  V30 36 H 5.660542 -4.244180 4.107213 0
M  V30 37 H 4.177928 -1.841690 5.173500 0
M  V30 38 H 3.484960 -0.216893 4.848149 0
M  V30 39 H 5.063919 -0.620716 4.118847 0
M  V30 40 H 3.725676 1.029285 3.073173 0
M  V30 41 H 2.181625 1.731896 -1.877207 0
M  V30 42 H 0.202708 2.604287 -2.943247 0
M  V30 43 H -2.233607 3.062991 -2.913015 0
M  V30 44 H -4.159647 1.942718 1.217650 0
M  V30 45 H -5.044983 3.351317 0.631678 0
M  V30 46 H -6.661891 1.780353 0.957059 0
M  V30 47 H -5.748357 0.358544 0.397623 0
M  V30 48 H -7.210171 0.761565 -1.241973 0
M  V30 49 H -6.158048 1.602054 -3.140337 0
M  V30 50 H -4.918323 0.728908 -2.106621 0
M  V30 51 H -5.470476 3.652064 -1.655963 0
M  V30 52 H -4.242405 3.042191 -2.881321 0
M  V30 53 H -2.242179 1.352675 0.994768 0
M  V30 54 H 2.119186 -3.764246 -0.811051 0
M  V30 55 H -0.024426 -1.572796 -0.472964 0
M  V30 56 H 1.336647 -1.789521 -1.726388 0
M  V30 57 H -1.283536 -2.702327 -1.959320 0
M  V30 58 H 0.106108 -3.262408 -2.897680 0
M  V30 59 H 0.201530 -5.197410 -1.726075 0
M  V30 60 H -1.425162 -4.789109 -1.022217 0
M  V30 61 H 0.702583 -5.246873 0.449495 0
M  V30 62 H -0.377139 -3.881603 0.952177 0
M  V30 END ATOM
M  V30 BEGIN BOND
M  V30 1 1 1 2
M  V30 2 2 2 3
M  V30 3 1 2 4
M  V30 4 2 4 5
M  V30 5 1 5 6
M  V30 6 1 5 7
M  V30 7 2 7 8
M  V30 8 1 8 9
M  V30 9 2 9 10
M  V30 10 1 10 11
M  V30 11 1 11 12
M  V30 12 2 12 13
M  V30 13 1 13 14
M  V30 14 2 14 15
M  V30 15 1 15 16
M  V30 16 1 16 17
M  V30 17 1 17 18
M  V30 18 1 18 19
M  V30 19 1 19 20
M  V30 20 1 20 21
M  V30 21 1 15 22
M  V30 22 2 22 23
M  V30 23 1 10 24
M  V30 24 2 24 25
M  V30 25 1 25 26
M  V30 26 1 26 27
M  V30 27 1 27 28
M  V30 28 1 28 29
M  V30 29 1 29 30
M  V30 30 1 30 31
M  V30 31 1 26 32
M  V30 32 2 32 33
M  V30 33 1 32 4
M  V30 34 1 25 7
M  V30 35 1 31 27
M  V30 36 1 23 12
M  V30 37 1 21 16
M  V30 38 1 1 34
M  V30 39 1 1 35
M  V30 40 1 1 36
M  V30 41 1 6 37
M  V30 42 1 6 38
M  V30 43 1 6 39
M  V30 44 1 8 40
M  V30 45 1 11 41
M  V30 46 1 13 42
M  V30 47 1 14 43
M  V30 48 1 17 44
M  V30 49 1 17 45
M  V30 50 1 18 46
M  V30 51 1 18 47
M  V30 52 1 19 48
M  V30 53 1 20 49
M  V30 54 1 20 50
M  V30 55 1 21 51
M  V30 56 1 21 52
M  V30 57 1 22 53
M  V30 58 1 27 54
M  V30 59 1 28 55
M  V30 60 1 28 56
M  V30 61 1 29 57
M  V30 62 1 29 58
M  V30 63 1 30 59
M  V30 64 1 30 60
M  V30 65 1 31 61
M  V30 66 1 31 62
M  V30 END BOND
M  V30 END CTAB
M  END
>  <Dataset>  (72) 
PKIs

>  <Ligand_Instance>  (72) 
nan

>  <PDB_ID>  (72) 
nan

>  <Standardized_SMILES>  (72) 
CC(=O)c1c(C)c2cnc(Nc3ccc(N4CCNCC4)cn3)nc2n(C2CCCC2)c1=O

>  <Name>  (72) 
Palbociclib

>  <Pocket>  (72) 
nan

>  <ATP_Site>  (72) 
nan

>  <Peripheral>  (72) 
nan

>  <Num_H_Atoms_ProtBoundConf>  (72) 
nan

>  <Num_Resolved_Atoms>  (72) 
nan

>  <Num_Not_Resolved_Atoms>  (72) 
nan

$$$$
nan
     RDKit          3D

  0  0  0  0  0  0  0  0  0  0999 V3000
M  V30 BEGIN CTAB
M  V30 COUNTS 70 73 0 0 0
M  V30 BEGIN ATOM
M  V30 1 C 0.771766 1.999818 5.561608 0
M  V30 2 C 1.154261 2.628753 4.457822 0
M  V30 3 C 1.411451 2.098190 3.123074 0
M  V30 4 O 1.780952 2.585474 1.999975 0
M  V30 5 N 1.228055 0.679786 2.928298 0
M  V30 6 C 1.495788 0.190226 1.600292 0
M  V30 7 C 0.525722 0.213712 0.621729 0
M  V30 8 C 0.664246 -0.234399 -0.673687 0
M  V30 9 N -0.311633 -0.210922 -1.670430 0
M  V30 10 C -1.645962 0.273267 -1.579560 0
M  V30 11 N -2.202914 0.801610 -0.481793 0
M  V30 12 C -3.460549 1.240861 -0.453126 0
M  V30 13 C -4.146880 1.112161 -1.634432 0
M  V30 14 C -3.680671 0.592649 -2.802488 0
M  V30 15 C -4.311404 0.429357 -4.090718 0
M  V30 16 C -3.551097 0.016280 -5.194455 0
M  V30 17 N -4.349921 -0.073365 -6.270004 0
M  V30 18 C -3.956698 -0.468047 -7.621302 0
M  V30 19 C -5.620437 0.252101 -5.979662 0
M  V30 20 C -6.830621 0.338861 -6.634200 0
M  V30 21 C -7.998883 0.716854 -6.003594 0
M  V30 22 C -7.886391 1.012147 -4.640080 0
M  V30 23 C -6.679222 0.925092 -3.990397 0
M  V30 24 C -5.556924 0.552877 -4.638921 0
M  V30 25 N -2.413017 0.205608 -2.651694 0
M  V30 26 C 1.941038 -0.748924 -0.946303 0
M  V30 27 O 2.207289 -1.228460 -2.204802 0
M  V30 28 C 3.474482 -1.758849 -2.542851 0
M  V30 29 C 2.933401 -0.787911 0.006690 0
M  V30 30 C 2.739220 -0.324673 1.292140 0
M  V30 31 N 3.807296 -0.390776 2.233110 0
M  V30 32 C 4.422760 0.830498 2.679617 0
M  V30 33 C 4.416646 -1.567162 2.872601 0
M  V30 34 C 3.699796 -2.807071 2.403306 0
M  V30 35 N 4.269522 -3.995058 3.015972 0
M  V30 36 C 4.021059 -4.064642 4.427286 0
M  V30 37 C 3.670110 -5.168337 2.363912 0
M  V30 38 H 0.631817 0.934446 5.448463 0
M  V30 39 H 0.666586 2.697247 6.390498 0
M  V30 40 H 1.353551 3.685535 4.332839 0
M  V30 41 H 0.923222 -0.002584 3.660856 0
M  V30 42 H -0.397714 0.623370 0.937465 0
M  V30 43 H -0.009840 -0.606954 -2.612423 0
M  V30 44 H -3.928016 1.669590 0.419006 0
M  V30 45 H -5.145847 1.475725 -1.609110 0
M  V30 46 H -2.481029 -0.225191 -5.298234 0
M  V30 47 H -3.656289 0.391249 -8.243284 0
M  V30 48 H -3.062062 -1.145301 -7.545701 0
M  V30 49 H -4.749980 -1.088525 -8.091219 0
M  V30 50 H -6.834853 0.094613 -7.687728 0
M  V30 51 H -8.950984 0.783625 -6.525776 0
M  V30 52 H -8.838380 1.305818 -4.184836 0
M  V30 53 H -6.769152 1.173085 -2.968325 0
M  V30 54 H 4.273203 -0.970449 -2.419460 0
M  V30 55 H 3.517116 -2.021144 -3.622676 0
M  V30 56 H 3.693370 -2.590867 -1.867002 0
M  V30 57 H 3.904334 -1.203389 -0.307899 0
M  V30 58 H 5.533375 0.683789 2.783190 0
M  V30 59 H 4.346009 1.660650 1.936234 0
M  V30 60 H 4.073912 1.104379 3.692975 0
M  V30 61 H 5.494312 -1.631524 2.550995 0
M  V30 62 H 4.353205 -1.507397 3.969912 0
M  V30 63 H 3.743170 -2.909404 1.313128 0
M  V30 64 H 2.631515 -2.673074 2.709160 0
M  V30 65 H 3.454606 -3.166706 4.738908 0
M  V30 66 H 4.994317 -4.067139 4.976390 0
M  V30 67 H 3.416815 -4.965846 4.705180 0
M  V30 68 H 3.255651 -4.865904 1.368480 0
M  V30 69 H 2.790298 -5.446397 2.991557 0
M  V30 70 H 4.361649 -6.020651 2.297950 0
M  V30 END ATOM
M  V30 BEGIN BOND
M  V30 1 2 1 2
M  V30 2 1 2 3
M  V30 3 2 3 4
M  V30 4 1 3 5
M  V30 5 1 5 6
M  V30 6 2 6 7
M  V30 7 1 7 8
M  V30 8 1 8 9
M  V30 9 1 9 10
M  V30 10 2 10 11
M  V30 11 1 11 12
M  V30 12 2 12 13
M  V30 13 1 13 14
M  V30 14 1 14 15
M  V30 15 2 15 16
M  V30 16 1 16 17
M  V30 17 1 17 18
M  V30 18 1 17 19
M  V30 19 2 19 20
M  V30 20 1 20 21
M  V30 21 2 21 22
M  V30 22 1 22 23
M  V30 23 2 23 24
M  V30 24 2 14 25
M  V30 25 2 8 26
M  V30 26 1 26 27
M  V30 27 1 27 28
M  V30 28 1 26 29
M  V30 29 2 29 30
M  V30 30 1 30 31
M  V30 31 1 31 32
M  V30 32 1 31 33
M  V30 33 1 33 34
M  V30 34 1 34 35
M  V30 35 1 35 36
M  V30 36 1 35 37
M  V30 37 1 30 6
M  V30 38 1 25 10
M  V30 39 1 24 15
M  V30 40 1 24 19
M  V30 41 1 1 38
M  V30 42 1 1 39
M  V30 43 1 2 40
M  V30 44 1 5 41
M  V30 45 1 7 42
M  V30 46 1 9 43
M  V30 47 1 12 44
M  V30 48 1 13 45
M  V30 49 1 16 46
M  V30 50 1 18 47
M  V30 51 1 18 48
M  V30 52 1 18 49
M  V30 53 1 20 50
M  V30 54 1 21 51
M  V30 55 1 22 52
M  V30 56 1 23 53
M  V30 57 1 28 54
M  V30 58 1 28 55
M  V30 59 1 28 56
M  V30 60 1 29 57
M  V30 61 1 32 58
M  V30 62 1 32 59
M  V30 63 1 32 60
M  V30 64 1 33 61
M  V30 65 1 33 62
M  V30 66 1 34 63
M  V30 67 1 34 64
M  V30 68 1 36 65
M  V30 69 1 36 66
M  V30 70 1 36 67
M  V30 71 1 37 68
M  V30 72 1 37 69
M  V30 73 1 37 70
M  V30 END BOND
M  V30 END CTAB
M  END
>  <Dataset>  (73) 
PKIs

>  <Ligand_Instance>  (73) 
nan

>  <PDB_ID>  (73) 
nan

>  <Standardized_SMILES>  (73) 
C=CC(=O)Nc1cc(Nc2nccc(-c3cn(C)c4ccccc34)n2)c(OC)cc1N(C)CCN(C)C

>  <Name>  (73) 
Osimertinib

>  <Pocket>  (73) 
nan

>  <ATP_Site>  (73) 
nan

>  <Peripheral>  (73) 
nan

>  <Num_H_Atoms_ProtBoundConf>  (73) 
nan

>  <Num_Resolved_Atoms>  (73) 
nan

>  <Num_Not_Resolved_Atoms>  (73) 
nan

$$$$
nan
     RDKit          3D

  0  0  0  0  0  0  0  0  0  0999 V3000
M  V30 BEGIN CTAB
M  V30 COUNTS 60 64 0 0 0
M  V30 BEGIN ATOM
M  V30 1 C 4.628675 -4.126942 5.306126 0
M  V30 2 C 4.413048 -2.705945 4.852001 0
M  V30 3 C 4.088245 -2.226277 3.605790 0
M  V30 4 N 4.002532 -0.876521 3.690797 0
M  V30 5 C 3.669490 -0.200405 2.475177 0
M  V30 6 C 2.441637 0.428615 2.407825 0
M  V30 7 C 2.095997 1.082801 1.258652 0
M  V30 8 N 0.891379 1.789776 0.978752 0
M  V30 9 C -0.155741 1.027733 0.404345 0
M  V30 10 O 0.114442 -0.167275 0.217866 0
M  V30 11 C -1.446491 1.617960 0.064147 0
M  V30 12 C -1.718588 2.951365 0.282676 0
M  V30 13 C -2.951060 3.462554 -0.054610 0
M  V30 14 C -3.913730 2.654571 -0.607872 0
M  V30 15 C -5.224121 3.261181 -0.951355 0
M  V30 16 C -3.700448 1.314185 -0.850013 0
M  V30 17 N -4.718511 0.508806 -1.422966 0
M  V30 18 C -4.717760 -0.872489 -1.754865 0
M  V30 19 N -5.810186 -1.435479 -2.297145 0
M  V30 20 C -5.842054 -2.731131 -2.620764 0
M  V30 21 C -4.756354 -3.551124 -2.413796 0
M  V30 22 C -3.633074 -2.992494 -1.861103 0
M  V30 23 C -2.472384 -3.840712 -1.633148 0
M  V30 24 C -1.297801 -3.373307 -1.083578 0
M  V30 25 N -0.242030 -4.186981 -0.886608 0
M  V30 26 C -0.287319 -5.505153 -1.220786 0
M  V30 27 C -1.487419 -5.927922 -1.769102 0
M  V30 28 N -2.561325 -5.137863 -1.978506 0
M  V30 29 N -3.675341 -1.691296 -1.563714 0
M  V30 30 C -2.447205 0.867352 -0.489532 0
M  V30 31 C 2.973366 1.101766 0.197208 0
M  V30 32 C 4.206213 0.459278 0.290740 0
M  V30 33 C 5.170817 0.466692 -0.844584 0
M  V30 34 F 6.459020 0.339675 -0.367481 0
M  V30 35 F 4.885944 -0.565723 -1.726246 0
M  V30 36 F 5.077362 1.635800 -1.586090 0
M  V30 37 C 4.577982 -0.206211 1.436362 0
M  V30 38 C 4.268673 -0.511597 4.968379 0
M  V30 39 N 4.519950 -1.635516 5.677720 0
M  V30 40 H 4.967142 -4.755570 4.431436 0
M  V30 41 H 5.346538 -4.181087 6.125633 0
M  V30 42 H 3.684277 -4.607149 5.635572 0
M  V30 43 H 3.959169 -2.935941 2.805887 0
M  V30 44 H 1.707797 0.457759 3.189015 0
M  V30 45 H 0.788538 2.806834 1.184985 0
M  V30 46 H -1.000499 3.622901 0.711937 0
M  V30 47 H -3.173143 4.506440 0.113109 0
M  V30 48 H -5.480469 3.022461 -2.016127 0
M  V30 49 H -5.217175 4.353052 -0.782407 0
M  V30 50 H -6.031238 2.802764 -0.311849 0
M  V30 51 H -5.624564 1.024105 -1.636573 0
M  V30 52 H -6.748878 -3.101549 -3.047576 0
M  V30 53 H -4.786844 -4.592706 -2.675723 0
M  V30 54 H -1.209195 -2.350076 -0.804341 0
M  V30 55 H 0.532942 -6.197255 -1.082178 0
M  V30 56 H -1.552351 -6.975541 -2.045465 0
M  V30 57 H -2.193277 -0.168011 -0.643301 0
M  V30 58 H 2.800009 1.592594 -0.764593 0
M  V30 59 H 5.525594 -0.721357 1.558613 0
M  V30 60 H 4.236470 0.550624 5.188118 0
M  V30 END ATOM
M  V30 BEGIN BOND
M  V30 1 1 1 2
M  V30 2 2 2 3
M  V30 3 1 3 4
M  V30 4 1 4 5
M  V30 5 2 5 6
M  V30 6 1 6 7
M  V30 7 1 7 8
M  V30 8 1 8 9
M  V30 9 2 9 10
M  V30 10 1 9 11
M  V30 11 2 11 12
M  V30 12 1 12 13
M  V30 13 2 13 14
M  V30 14 1 14 15
M  V30 15 1 14 16
M  V30 16 1 16 17
M  V30 17 1 17 18
M  V30 18 2 18 19
M  V30 19 1 19 20
M  V30 20 2 20 21
M  V30 21 1 21 22
M  V30 22 1 22 23
M  V30 23 2 23 24
M  V30 24 1 24 25
M  V30 25 2 25 26
M  V30 26 1 26 27
M  V30 27 2 27 28
M  V30 28 2 22 29
M  V30 29 2 16 30
M  V30 30 2 7 31
M  V30 31 1 31 32
M  V30 32 1 32 33
M  V30 33 1 33 34
M  V30 34 1 33 35
M  V30 35 1 33 36
M  V30 36 2 32 37
M  V30 37 1 4 38
M  V30 38 2 38 39
M  V30 39 1 39 2
M  V30 40 1 37 5
M  V30 41 1 30 11
M  V30 42 1 29 18
M  V30 43 1 28 23
M  V30 44 1 1 40
M  V30 45 1 1 41
M  V30 46 1 1 42
M  V30 47 1 3 43
M  V30 48 1 6 44
M  V30 49 1 8 45
M  V30 50 1 12 46
M  V30 51 1 13 47
M  V30 52 1 15 48
M  V30 53 1 15 49
M  V30 54 1 15 50
M  V30 55 1 17 51
M  V30 56 1 20 52
M  V30 57 1 21 53
M  V30 58 1 24 54
M  V30 59 1 26 55
M  V30 60 1 27 56
M  V30 61 1 30 57
M  V30 62 1 31 58
M  V30 63 1 37 59
M  V30 64 1 38 60
M  V30 END BOND
M  V30 END CTAB
M  END
>  <Dataset>  (74) 
PKIs

>  <Ligand_Instance>  (74) 
nan

>  <PDB_ID>  (74) 
nan

>  <Standardized_SMILES>  (74) 
Cc1cn(-c2cc(NC(=O)c3ccc(C)c(Nc4nccc(-c5cnccn5)n4)c3)cc(C(F)(F)F)c2)cn1

>  <Name>  (74) 
Radotinib

>  <Pocket>  (74) 
nan

>  <ATP_Site>  (74) 
nan

>  <Peripheral>  (74) 
nan

>  <Num_H_Atoms_ProtBoundConf>  (74) 
nan

>  <Num_Resolved_Atoms>  (74) 
nan

>  <Num_Not_Resolved_Atoms>  (74) 
nan

$$$$
nan
     RDKit          3D

  0  0  0  0  0  0  0  0  0  0999 V3000
M  V30 BEGIN CTAB
M  V30 COUNTS 70 75 0 0 0
M  V30 BEGIN ATOM
M  V30 1 C 1.141587 -3.334589 4.100308 0
M  V30 2 C 0.649818 -3.963929 2.825777 0
M  V30 3 C 0.591179 -3.016500 1.681454 0
M  V30 4 C 1.634581 -3.079993 0.754895 0
M  V30 5 C 1.673652 -2.237995 -0.329346 0
M  V30 6 C 0.694393 -1.292175 -0.561275 0
M  V30 7 C -0.317299 -1.280676 0.398940 0
M  V30 8 C -0.419009 -2.094976 1.508650 0
M  V30 9 N -1.514101 -1.980088 2.406622 0
M  V30 10 C -1.635090 -1.612134 3.807829 0
M  V30 11 C -2.865861 -0.848004 4.134091 0
M  V30 12 C -3.563059 -0.180681 3.002115 0
M  V30 13 N -3.031739 1.072904 2.574772 0
M  V30 14 C -2.968583 2.083631 3.609205 0
M  V30 15 C -2.445369 3.356819 2.984014 0
M  V30 16 O -3.112359 3.742519 1.837026 0
M  V30 17 C -4.267163 2.989917 1.691328 0
M  V30 18 C -3.849745 1.548602 1.456825 0
M  V30 19 C -3.688188 -1.074652 1.785495 0
M  V30 20 C -2.828496 -2.290541 1.875267 0
M  V30 21 C 0.613011 -0.336378 -1.670871 0
M  V30 22 C -0.688326 -0.381528 -2.417982 0
M  V30 23 C 0.769550 1.050556 -1.044328 0
M  V30 24 C 1.785926 -0.534769 -2.556483 0
M  V30 25 N 1.967533 0.213100 -3.663151 0
M  V30 26 C 3.104534 -0.192758 -4.256137 0
M  V30 27 C 3.804117 0.182099 -5.399660 0
M  V30 28 C 4.995000 -0.431116 -5.787244 0
M  V30 29 C 5.669189 -0.001802 -6.974497 0
M  V30 30 N 6.208754 0.339757 -7.952935 0
M  V30 31 C 5.494408 -1.449826 -5.000943 0
M  V30 32 C 4.858772 -1.870424 -3.862170 0
M  V30 33 C 3.686841 -1.218961 -3.540674 0
M  V30 34 C 2.839820 -1.420647 -2.471405 0
M  V30 35 C 2.759535 -2.296890 -1.303792 0
M  V30 36 O 3.680400 -3.142625 -1.140125 0
M  V30 37 H 0.442805 -3.543690 4.908118 0
M  V30 38 H 2.127733 -3.847519 4.325043 0
M  V30 39 H 1.322126 -2.259524 3.890674 0
M  V30 40 H 1.264838 -4.862679 2.528233 0
M  V30 41 H -0.358187 -4.399147 3.033966 0
M  V30 42 H 2.441869 -3.817339 0.893456 0
M  V30 43 H -1.115991 -0.561298 0.276435 0
M  V30 44 H -1.654320 -2.574969 4.359554 0
M  V30 45 H -0.714000 -1.066738 4.172467 0
M  V30 46 H -3.623545 -1.558765 4.583880 0
M  V30 47 H -2.649748 -0.113667 4.933319 0
M  V30 48 H -4.621100 0.030671 3.337467 0
M  V30 49 H -2.172614 1.754577 4.317884 0
M  V30 50 H -3.893464 2.219219 4.171662 0
M  V30 51 H -2.588367 4.209719 3.710720 0
M  V30 52 H -1.350836 3.284054 2.767786 0
M  V30 53 H -4.849289 3.313857 0.791286 0
M  V30 54 H -4.881940 3.032493 2.601432 0
M  V30 55 H -3.235402 1.452137 0.546788 0
M  V30 56 H -4.743072 0.899320 1.357001 0
M  V30 57 H -4.746559 -1.426559 1.624776 0
M  V30 58 H -3.431768 -0.549833 0.845957 0
M  V30 59 H -2.758470 -2.694649 0.822353 0
M  V30 60 H -3.289056 -3.058155 2.537485 0
M  V30 61 H -0.896935 -1.410657 -2.740194 0
M  V30 62 H -0.533929 0.218735 -3.347960 0
M  V30 63 H -1.495607 0.120476 -1.874854 0
M  V30 64 H 0.095189 1.110023 -0.147879 0
M  V30 65 H 1.816921 1.242075 -0.740393 0
M  V30 66 H 0.457936 1.843820 -1.731485 0
M  V30 67 H 1.422936 0.999668 -4.116785 0
M  V30 68 H 3.417324 0.982577 -6.022312 0
M  V30 69 H 6.423208 -1.949935 -5.276262 0
M  V30 70 H 5.224874 -2.667870 -3.222707 0
M  V30 END ATOM
M  V30 BEGIN BOND
M  V30 1 1 1 2
M  V30 2 1 2 3
M  V30 3 2 3 4
M  V30 4 1 4 5
M  V30 5 2 5 6
M  V30 6 1 6 7
M  V30 7 2 7 8
M  V30 8 1 8 9
M  V30 9 1 9 10
M  V30 10 1 10 11
M  V30 11 1 11 12
M  V30 12 1 12 13
M  V30 13 1 13 14
M  V30 14 1 14 15
M  V30 15 1 15 16
M  V30 16 1 16 17
M  V30 17 1 17 18
M  V30 18 1 12 19
M  V30 19 1 19 20
M  V30 20 1 6 21
M  V30 21 1 21 22
M  V30 22 1 21 23
M  V30 23 1 21 24
M  V30 24 1 24 25
M  V30 25 1 25 26
M  V30 26 2 26 27
M  V30 27 1 27 28
M  V30 28 1 28 29
M  V30 29 3 29 30
M  V30 30 2 28 31
M  V30 31 1 31 32
M  V30 32 2 32 33
M  V30 33 1 33 34
M  V30 34 1 34 35
M  V30 35 2 35 36
M  V30 36 1 8 3
M  V30 37 1 20 9
M  V30 38 2 34 24
M  V30 39 1 35 5
M  V30 40 1 18 13
M  V30 41 1 33 26
M  V30 42 1 1 37
M  V30 43 1 1 38
M  V30 44 1 1 39
M  V30 45 1 2 40
M  V30 46 1 2 41
M  V30 47 1 4 42
M  V30 48 1 7 43
M  V30 49 1 10 44
M  V30 50 1 10 45
M  V30 51 1 11 46
M  V30 52 1 11 47
M  V30 53 1 12 48
M  V30 54 1 14 49
M  V30 55 1 14 50
M  V30 56 1 15 51
M  V30 57 1 15 52
M  V30 58 1 17 53
M  V30 59 1 17 54
M  V30 60 1 18 55
M  V30 61 1 18 56
M  V30 62 1 19 57
M  V30 63 1 19 58
M  V30 64 1 20 59
M  V30 65 1 20 60
M  V30 66 1 22 61
M  V30 67 1 22 62
M  V30 68 1 22 63
M  V30 69 1 23 64
M  V30 70 1 23 65
M  V30 71 1 23 66
M  V30 72 1 25 67
M  V30 73 1 27 68
M  V30 74 1 31 69
M  V30 75 1 32 70
M  V30 END BOND
M  V30 END CTAB
M  END
>  <Dataset>  (75) 
PKIs

>  <Ligand_Instance>  (75) 
nan

>  <PDB_ID>  (75) 
nan

>  <Standardized_SMILES>  (75) 
CCc1cc2c(cc1N1CCC(N3CCOCC3)CC1)C(C)(C)c1[nH]c3cc(C#N)ccc3c1C2=O

>  <Name>  (75) 
Alectinib

>  <Pocket>  (75) 
nan

>  <ATP_Site>  (75) 
nan

>  <Peripheral>  (75) 
nan

>  <Num_H_Atoms_ProtBoundConf>  (75) 
nan

>  <Num_Resolved_Atoms>  (75) 
nan

>  <Num_Not_Resolved_Atoms>  (75) 
nan

$$$$
nan
     RDKit          3D

  0  0  0  0  0  0  0  0  0  0999 V3000
M  V30 BEGIN CTAB
M  V30 COUNTS 49 52 0 0 0
M  V30 BEGIN ATOM
M  V30 1 C 0.676452 -7.003814 2.908913 0
M  V30 2 O 0.508935 -6.164237 1.782199 0
M  V30 3 C 1.189126 -4.989005 1.599291 0
M  V30 4 C 2.094913 -4.600611 2.576594 0
M  V30 5 C 2.822198 -3.430264 2.470792 0
M  V30 6 N 3.720987 -2.988309 3.368000 0
M  V30 7 C 4.388292 -1.831412 3.171405 0
M  V30 8 C 4.139816 -1.084918 2.020045 0
M  V30 9 C 3.208308 -1.509016 1.055788 0
M  V30 10 O 3.186966 -0.578354 0.057052 0
M  V30 11 C 2.111390 0.184334 -0.316998 0
M  V30 12 C 1.126991 0.218356 -1.280039 0
M  V30 13 C 0.159572 1.191001 -1.343782 0
M  V30 14 C 0.123364 2.212259 -0.421456 0
M  V30 15 N -0.914055 3.175839 -0.564364 0
M  V30 16 C -2.183860 2.986886 0.091543 0
M  V30 17 O -2.350111 1.953150 0.790066 0
M  V30 18 N -3.221916 3.969009 -0.062374 0
M  V30 19 C -4.467790 3.746277 0.603799 0
M  V30 20 C -5.677903 3.858203 -0.358625 0
M  V30 21 C -5.507752 4.740227 0.835882 0
M  V30 22 C 1.085411 2.235495 0.571895 0
M  V30 23 Cl 0.917777 3.587902 1.671716 0
M  V30 24 C 2.066684 1.231799 0.620885 0
M  V30 25 C 2.578680 -2.696814 1.339470 0
M  V30 26 C 1.698960 -3.044540 0.358671 0
M  V30 27 C 0.977685 -4.205731 0.464200 0
M  V30 28 C 0.013150 -4.666931 -0.526811 0
M  V30 29 N -0.228107 -3.894633 -1.696118 0
M  V30 30 O -0.574897 -5.754288 -0.294257 0
M  V30 31 H 1.680451 -7.464308 2.882306 0
M  V30 32 H -0.071764 -7.808278 2.939259 0
M  V30 33 H 0.639275 -6.390149 3.853897 0
M  V30 34 H 2.256200 -5.212121 3.456557 0
M  V30 35 H 5.082201 -1.576935 3.953530 0
M  V30 36 H 4.769980 -0.181876 2.031631 0
M  V30 37 H 1.288226 -0.636610 -1.936822 0
M  V30 38 H -0.515045 1.059154 -2.148865 0
M  V30 39 H -0.725981 4.020779 -1.157534 0
M  V30 40 H -3.016219 4.802944 -0.656387 0
M  V30 41 H -4.487504 2.803598 1.185676 0
M  V30 42 H -5.517059 4.338465 -1.341947 0
M  V30 43 H -6.418202 3.049717 -0.360479 0
M  V30 44 H -5.395563 5.814309 0.660501 0
M  V30 45 H -6.211329 4.529425 1.667767 0
M  V30 46 H 2.706193 1.468049 1.488455 0
M  V30 47 H 1.517723 -2.479949 -0.520571 0
M  V30 48 H -0.244110 -4.229548 -2.703764 0
M  V30 49 H -0.413842 -2.861975 -1.540995 0
M  V30 END ATOM
M  V30 BEGIN BOND
M  V30 1 1 1 2
M  V30 2 1 2 3
M  V30 3 2 3 4
M  V30 4 1 4 5
M  V30 5 2 5 6
M  V30 6 1 6 7
M  V30 7 2 7 8
M  V30 8 1 8 9
M  V30 9 1 9 10
M  V30 10 1 10 11
M  V30 11 2 11 12
M  V30 12 1 12 13
M  V30 13 2 13 14
M  V30 14 1 14 15
M  V30 15 1 15 16
M  V30 16 2 16 17
M  V30 17 1 16 18
M  V30 18 1 18 19
M  V30 19 1 19 20
M  V30 20 1 20 21
M  V30 21 1 14 22
M  V30 22 1 22 23
M  V30 23 2 22 24
M  V30 24 2 9 25
M  V30 25 1 25 26
M  V30 26 2 26 27
M  V30 27 1 27 28
M  V30 28 1 28 29
M  V30 29 2 28 30
M  V30 30 1 27 3
M  V30 31 1 25 5
M  V30 32 1 24 11
M  V30 33 1 21 19
M  V30 34 1 1 31
M  V30 35 1 1 32
M  V30 36 1 1 33
M  V30 37 1 4 34
M  V30 38 1 7 35
M  V30 39 1 8 36
M  V30 40 1 12 37
M  V30 41 1 13 38
M  V30 42 1 15 39
M  V30 43 1 18 40
M  V30 44 1 19 41
M  V30 45 1 20 42
M  V30 46 1 20 43
M  V30 47 1 21 44
M  V30 48 1 21 45
M  V30 49 1 24 46
M  V30 50 1 26 47
M  V30 51 1 29 48
M  V30 52 1 29 49
M  V30 END BOND
M  V30 END CTAB
M  END
>  <Dataset>  (76) 
PKIs

>  <Ligand_Instance>  (76) 
nan

>  <PDB_ID>  (76) 
nan

>  <Standardized_SMILES>  (76) 
COc1cc2nccc(Oc3ccc(NC(=O)NC4CC4)c(Cl)c3)c2cc1C(N)=O

>  <Name>  (76) 
Lenvatinib

>  <Pocket>  (76) 
nan

>  <ATP_Site>  (76) 
nan

>  <Peripheral>  (76) 
nan

>  <Num_H_Atoms_ProtBoundConf>  (76) 
nan

>  <Num_Resolved_Atoms>  (76) 
nan

>  <Num_Not_Resolved_Atoms>  (76) 
nan

$$$$
nan
     RDKit          3D

  0  0  0  0  0  0  0  0  0  0999 V3000
M  V30 BEGIN CTAB
M  V30 COUNTS 51 54 0 0 0
M  V30 BEGIN ATOM
M  V30 1 O -0.051342 0.710428 1.098435 0
M  V30 2 C 0.262916 0.385240 -0.063276 0
M  V30 3 C 0.913056 0.762288 -1.302171 0
M  V30 4 C 0.888933 -0.167399 -2.308661 0
M  V30 5 C 1.511906 0.224968 -3.469183 0
M  V30 6 C 2.110759 1.457348 -3.602153 0
M  V30 7 F 2.694558 1.736150 -4.792067 0
M  V30 8 C 2.089375 2.332232 -2.541352 0
M  V30 9 F 2.702389 3.511003 -2.794408 0
M  V30 10 C 1.479711 2.010935 -1.332469 0
M  V30 11 N 1.494098 2.965059 -0.286544 0
M  V30 12 C 2.280316 3.253867 0.859866 0
M  V30 13 C 1.671239 3.265248 2.114937 0
M  V30 14 C 2.346729 3.524463 3.283121 0
M  V30 15 C 3.684801 3.784071 3.204086 0
M  V30 16 I 4.779770 4.190250 4.968288 0
M  V30 17 C 4.341679 3.789252 2.012529 0
M  V30 18 C 3.625980 3.525973 0.883187 0
M  V30 19 F 4.288657 3.532993 -0.283471 0
M  V30 20 N -0.417306 -0.771328 0.388278 0
M  V30 21 C -1.009270 -0.948927 1.697706 0
M  V30 22 C -0.752708 -2.431072 1.530355 0
M  V30 23 O 0.541970 -2.744488 1.900091 0
M  V30 24 C -1.828942 -3.319409 2.116220 0 CFG=2
M  V30 25 C -1.555221 -4.763684 1.929925 0
M  V30 26 C -2.254141 -5.420975 0.783504 0
M  V30 27 C -3.605334 -4.878325 0.478781 0
M  V30 28 C -4.042118 -4.049456 1.683393 0
M  V30 29 N -3.134190 -2.893293 1.657656 0
M  V30 30 C -0.878636 -2.109394 0.078274 0
M  V30 31 H 0.437002 -1.128662 -2.246894 0
M  V30 32 H 1.525784 -0.473865 -4.307856 0
M  V30 33 H 0.695583 3.615535 -0.431442 0
M  V30 34 H 0.602966 3.073578 2.278803 0
M  V30 35 H 1.884175 3.534972 4.255344 0
M  V30 36 H 5.409564 3.998877 1.971239 0
M  V30 37 H -0.502843 -0.486842 2.554402 0
M  V30 38 H -2.100478 -0.733695 1.639163 0
M  V30 39 H 0.681131 -2.609432 2.873674 0
M  V30 40 H -1.812828 -3.100980 3.207054 0
M  V30 41 H -1.740444 -5.355850 2.865210 0
M  V30 42 H -0.453141 -4.878235 1.747050 0
M  V30 43 H -1.641414 -5.399299 -0.162429 0
M  V30 44 H -2.371685 -6.511682 1.008078 0
M  V30 45 H -4.370376 -5.655410 0.270613 0
M  V30 46 H -3.521753 -4.172928 -0.374401 0
M  V30 47 H -5.100860 -3.751882 1.636814 0
M  V30 48 H -3.769960 -4.605342 2.597808 0
M  V30 49 H -3.587601 -2.205774 2.330458 0
M  V30 50 H -0.266502 -2.707290 -0.608289 0
M  V30 51 H -1.928254 -2.036519 -0.272618 0
M  V30 END ATOM
M  V30 BEGIN BOND
M  V30 1 2 1 2
M  V30 2 1 2 3
M  V30 3 2 3 4
M  V30 4 1 4 5
M  V30 5 2 5 6
M  V30 6 1 6 7
M  V30 7 1 6 8
M  V30 8 1 8 9
M  V30 9 2 8 10
M  V30 10 1 10 11
M  V30 11 1 11 12
M  V30 12 2 12 13
M  V30 13 1 13 14
M  V30 14 2 14 15
M  V30 15 1 15 16
M  V30 16 1 15 17
M  V30 17 2 17 18
M  V30 18 1 18 19
M  V30 19 1 2 20
M  V30 20 1 20 21
M  V30 21 1 21 22
M  V30 22 1 22 23
M  V30 23 1 22 24
M  V30 24 1 24 25
M  V30 25 1 25 26
M  V30 26 1 26 27
M  V30 27 1 27 28
M  V30 28 1 28 29
M  V30 29 1 22 30
M  V30 30 1 10 3
M  V30 31 1 18 12
M  V30 32 1 30 20
M  V30 33 1 29 24
M  V30 34 1 4 31
M  V30 35 1 5 32
M  V30 36 1 11 33
M  V30 37 1 13 34
M  V30 38 1 14 35
M  V30 39 1 17 36
M  V30 40 1 21 37
M  V30 41 1 21 38
M  V30 42 1 23 39
M  V30 43 1 24 40 CFG=1
M  V30 44 1 25 41
M  V30 45 1 25 42
M  V30 46 1 26 43
M  V30 47 1 26 44
M  V30 48 1 27 45
M  V30 49 1 27 46
M  V30 50 1 28 47
M  V30 51 1 28 48
M  V30 52 1 29 49
M  V30 53 1 30 50
M  V30 54 1 30 51
M  V30 END BOND
M  V30 END CTAB
M  END
>  <Dataset>  (77) 
PKIs

>  <Ligand_Instance>  (77) 
nan

>  <PDB_ID>  (77) 
nan

>  <Standardized_SMILES>  (77) 
O=C(c1ccc(F)c(F)c1Nc1ccc(I)cc1F)N1CC(O)([C@@H]2CCCCN2)C1

>  <Name>  (77) 
Cobimetinib

>  <Pocket>  (77) 
nan

>  <ATP_Site>  (77) 
nan

>  <Peripheral>  (77) 
nan

>  <Num_H_Atoms_ProtBoundConf>  (77) 
nan

>  <Num_Resolved_Atoms>  (77) 
nan

>  <Num_Not_Resolved_Atoms>  (77) 
nan

$$$$
nan
     RDKit          3D

  0  0  0  0  0  0  0  0  0  0999 V3000
M  V30 BEGIN CTAB
M  V30 COUNTS 49 53 0 0 0
M  V30 BEGIN ATOM
M  V30 1 C 1.837555 -2.931005 2.934379 0
M  V30 2 C 0.646620 -2.016951 2.831391 0
M  V30 3 C 0.639226 -1.358498 1.493656 0 CFG=2
M  V30 4 N 1.784677 -0.606277 1.197711 0
M  V30 5 C 2.945530 0.155775 0.899775 0
M  V30 6 N 3.983039 0.631375 1.607161 0
M  V30 7 C 4.973639 1.310766 1.071984 0
M  V30 8 N 4.926730 1.529846 -0.232439 0
M  V30 9 C 3.974806 1.129261 -1.060405 0
M  V30 10 N 3.858926 1.315402 -2.369227 0
M  V30 11 C 2.680786 0.690760 -2.662624 0
M  V30 12 N 2.143093 0.162782 -1.562438 0
M  V30 13 C 2.927845 0.406790 -0.491344 0
M  V30 14 C -0.595623 -0.493204 1.316422 0
M  V30 15 N -0.607198 0.794090 1.771978 0
M  V30 16 C -1.705660 1.578124 1.622815 0
M  V30 17 C -1.671782 2.869504 2.099504 0
M  V30 18 C -2.814345 3.620113 1.922022 0
M  V30 19 C -3.908632 3.064248 1.296940 0
M  V30 20 C -3.903493 1.768182 0.835303 0
M  V30 21 F -4.987824 1.232397 0.217638 0
M  V30 22 C -2.765823 0.974833 0.993852 0
M  V30 23 C -2.796313 -0.309846 0.524215 0
M  V30 24 O -3.814493 -0.790972 -0.043000 0
M  V30 25 N -1.676345 -1.050984 0.696078 0
M  V30 26 C -1.696028 -2.394945 0.211051 0
M  V30 27 C -2.148950 -3.437525 1.006449 0
M  V30 28 C -2.191723 -4.752067 0.610059 0
M  V30 29 C -1.753112 -5.086071 -0.680063 0
M  V30 30 C -1.305543 -4.051786 -1.464565 0
M  V30 31 C -1.265246 -2.739410 -1.061822 0
M  V30 32 H 1.675542 -3.770975 3.630638 0
M  V30 33 H 2.206658 -3.211151 1.939386 0
M  V30 34 H 2.660594 -2.293663 3.397617 0
M  V30 35 H 0.696564 -1.259287 3.641018 0
M  V30 36 H -0.307494 -2.568390 3.040543 0
M  V30 37 H 0.576621 -2.170547 0.670608 0
M  V30 38 H 2.009340 -0.568773 2.220120 0
M  V30 39 H 5.701664 1.600788 1.795963 0
M  V30 40 H 4.511569 1.822919 -3.001036 0
M  V30 41 H 2.240019 0.634152 -3.651420 0
M  V30 42 H -0.793344 3.291128 2.595099 0
M  V30 43 H -2.841732 4.625249 2.266295 0
M  V30 44 H -4.799090 3.661788 1.171765 0
M  V30 45 H -2.498157 -3.198481 2.022862 0
M  V30 46 H -2.538812 -5.565607 1.218400 0
M  V30 47 H -1.756805 -6.110009 -1.059048 0
M  V30 48 H -0.962172 -4.260576 -2.460006 0
M  V30 49 H -0.902405 -1.980721 -1.725660 0
M  V30 END ATOM
M  V30 BEGIN BOND
M  V30 1 1 1 2
M  V30 2 1 2 3
M  V30 3 1 3 4
M  V30 4 1 4 5
M  V30 5 2 5 6
M  V30 6 1 6 7
M  V30 7 2 7 8
M  V30 8 1 8 9
M  V30 9 1 9 10
M  V30 10 1 10 11
M  V30 11 2 11 12
M  V30 12 1 12 13
M  V30 13 1 3 14
M  V30 14 2 14 15
M  V30 15 1 15 16
M  V30 16 2 16 17
M  V30 17 1 17 18
M  V30 18 2 18 19
M  V30 19 1 19 20
M  V30 20 1 20 21
M  V30 21 2 20 22
M  V30 22 1 22 23
M  V30 23 2 23 24
M  V30 24 1 23 25
M  V30 25 1 25 26
M  V30 26 2 26 27
M  V30 27 1 27 28
M  V30 28 2 28 29
M  V30 29 1 29 30
M  V30 30 2 30 31
M  V30 31 1 13 5
M  V30 32 1 25 14
M  V30 33 1 31 26
M  V30 34 2 13 9
M  V30 35 1 22 16
M  V30 36 1 1 32
M  V30 37 1 1 33
M  V30 38 1 1 34
M  V30 39 1 2 35
M  V30 40 1 2 36
M  V30 41 1 3 37 CFG=3
M  V30 42 1 4 38
M  V30 43 1 7 39
M  V30 44 1 10 40
M  V30 45 1 11 41
M  V30 46 1 17 42
M  V30 47 1 18 43
M  V30 48 1 19 44
M  V30 49 1 27 45
M  V30 50 1 28 46
M  V30 51 1 29 47
M  V30 52 1 30 48
M  V30 53 1 31 49
M  V30 END BOND
M  V30 END CTAB
M  END
>  <Dataset>  (78) 
PKIs

>  <Ligand_Instance>  (78) 
nan

>  <PDB_ID>  (78) 
nan

>  <Standardized_SMILES>  (78) 
CC[C@H](Nc1ncnc2[nH]cnc12)c1nc2cccc(F)c2c(=O)n1-c1ccccc1

>  <Name>  (78) 
Idelalisib

>  <Pocket>  (78) 
nan

>  <ATP_Site>  (78) 
nan

>  <Peripheral>  (78) 
nan

>  <Num_H_Atoms_ProtBoundConf>  (78) 
nan

>  <Num_Resolved_Atoms>  (78) 
nan

>  <Num_Not_Resolved_Atoms>  (78) 
nan

$$$$
nan
     RDKit          3D

  0  0  0  0  0  0  0  0  0  0999 V3000
M  V30 BEGIN CTAB
M  V30 COUNTS 53 56 0 0 0
M  V30 BEGIN ATOM
M  V30 1 N -0.511688 -5.673936 -1.553780 0
M  V30 2 C -1.442566 -5.017967 -1.340055 0
M  V30 3 C -2.630430 -4.186428 -1.067263 0
M  V30 4 C -2.275792 -2.760871 -0.953102 0
M  V30 5 C -1.212712 -2.396415 -1.788208 0
M  V30 6 C -0.708115 -1.110705 -1.848735 0
M  V30 7 C -1.298139 -0.154293 -1.035501 0
M  V30 8 N -0.871270 1.225350 -0.998517 0
M  V30 9 C 0.139532 1.469020 -0.032585 0
M  V30 10 O 0.344911 0.359849 0.500288 0
M  V30 11 C 0.685658 2.782891 0.145838 0
M  V30 12 C 0.230343 3.816833 -0.621144 0
M  V30 13 C 0.747694 5.080282 -0.457556 0
M  V30 14 C 1.733253 5.338441 0.477902 0
M  V30 15 N 2.140680 4.295117 1.198510 0
M  V30 16 C 1.666087 3.037640 1.077028 0
M  V30 17 N 2.215967 2.049003 1.927802 0
M  V30 18 C 3.235395 2.362870 2.881774 0
M  V30 19 C 3.717489 1.251042 3.698929 0
M  V30 20 C 4.786642 0.446115 3.318601 0
M  V30 21 C 5.149069 -0.582810 4.187929 0
M  V30 22 N 4.504377 -0.805842 5.352584 0
M  V30 23 C 3.467900 -0.015007 5.707410 0
M  V30 24 C 3.038002 1.035627 4.900483 0
M  V30 25 C -2.348193 -0.486341 -0.202198 0
M  V30 26 C -2.831960 -1.778530 -0.162156 0
M  V30 27 C -3.659766 -4.495232 -2.108212 0
M  V30 28 C -4.017608 -5.933512 -1.754676 0
M  V30 29 C -3.844733 -6.081739 -0.269177 0
M  V30 30 C -3.259689 -4.760009 0.183659 0
M  V30 31 H -0.692592 -3.091303 -2.460367 0
M  V30 32 H 0.100007 -0.814948 -2.477902 0
M  V30 33 H -1.293945 1.951641 -1.643080 0
M  V30 34 H -0.516813 3.777324 -1.375665 0
M  V30 35 H 0.426497 5.941195 -1.036817 0
M  V30 36 H 2.196530 6.311945 0.670213 0
M  V30 37 H 1.964828 1.039995 1.963284 0
M  V30 38 H 2.940870 3.251865 3.476114 0
M  V30 39 H 4.121361 2.711362 2.274782 0
M  V30 40 H 5.300479 0.631441 2.380365 0
M  V30 41 H 5.985198 -1.237394 3.923634 0
M  V30 42 H 2.991001 -0.243434 6.652715 0
M  V30 43 H 2.209978 1.626168 5.238449 0
M  V30 44 H -2.846274 0.222711 0.454629 0
M  V30 45 H -3.633887 -2.119866 0.447517 0
M  V30 46 H -3.226754 -4.522592 -3.131937 0
M  V30 47 H -4.549319 -3.861202 -2.049075 0
M  V30 48 H -5.041286 -6.149985 -2.093539 0
M  V30 49 H -3.274092 -6.610975 -2.249513 0
M  V30 50 H -4.827613 -6.179899 0.200005 0
M  V30 51 H -3.150119 -6.906590 0.006626 0
M  V30 52 H -4.038369 -4.106894 0.612119 0
M  V30 53 H -2.449958 -4.944992 0.919177 0
M  V30 END ATOM
M  V30 BEGIN BOND
M  V30 1 3 1 2
M  V30 2 1 2 3
M  V30 3 1 3 4
M  V30 4 2 4 5
M  V30 5 1 5 6
M  V30 6 2 6 7
M  V30 7 1 7 8
M  V30 8 1 8 9
M  V30 9 2 9 10
M  V30 10 1 9 11
M  V30 11 2 11 12
M  V30 12 1 12 13
M  V30 13 2 13 14
M  V30 14 1 14 15
M  V30 15 2 15 16
M  V30 16 1 16 17
M  V30 17 1 17 18
M  V30 18 1 18 19
M  V30 19 2 19 20
M  V30 20 1 20 21
M  V30 21 2 21 22
M  V30 22 1 22 23
M  V30 23 2 23 24
M  V30 24 1 7 25
M  V30 25 2 25 26
M  V30 26 1 3 27
M  V30 27 1 27 28
M  V30 28 1 28 29
M  V30 29 1 29 30
M  V30 30 1 30 3
M  V30 31 1 26 4
M  V30 32 1 16 11
M  V30 33 1 24 19
M  V30 34 1 5 31
M  V30 35 1 6 32
M  V30 36 1 8 33
M  V30 37 1 12 34
M  V30 38 1 13 35
M  V30 39 1 14 36
M  V30 40 1 17 37
M  V30 41 1 18 38
M  V30 42 1 18 39
M  V30 43 1 20 40
M  V30 44 1 21 41
M  V30 45 1 23 42
M  V30 46 1 24 43
M  V30 47 1 25 44
M  V30 48 1 26 45
M  V30 49 1 27 46
M  V30 50 1 27 47
M  V30 51 1 28 48
M  V30 52 1 28 49
M  V30 53 1 29 50
M  V30 54 1 29 51
M  V30 55 1 30 52
M  V30 56 1 30 53
M  V30 END BOND
M  V30 END CTAB
M  END
>  <Dataset>  (79) 
PKIs

>  <Ligand_Instance>  (79) 
nan

>  <PDB_ID>  (79) 
nan

>  <Standardized_SMILES>  (79) 
N#CC1(c2ccc(NC(=O)c3cccnc3NCc3ccncc3)cc2)CCCC1

>  <Name>  (79) 
Rivoceranib

>  <Pocket>  (79) 
nan

>  <ATP_Site>  (79) 
nan

>  <Peripheral>  (79) 
nan

>  <Num_H_Atoms_ProtBoundConf>  (79) 
nan

>  <Num_Resolved_Atoms>  (79) 
nan

>  <Num_Not_Resolved_Atoms>  (79) 
nan

$$$$
nan
     RDKit          3D

  0  0  0  0  0  0  0  0  0  0999 V3000
M  V30 BEGIN CTAB
M  V30 COUNTS 74 77 0 0 0
M  V30 BEGIN ATOM
M  V30 1 C 2.433733 1.739536 0.494818 0
M  V30 2 C 2.027406 0.563595 1.267135 0
M  V30 3 C 0.746053 0.423893 1.751854 0
M  V30 4 C 0.322585 -0.663659 2.476958 0
M  V30 5 N -1.038000 -0.747502 2.927914 0
M  V30 6 C -1.925464 0.339163 2.591173 0
M  V30 7 N -2.497909 1.354584 3.306654 0
M  V30 8 C -3.287211 2.250398 2.688090 0
M  V30 9 C -3.499066 2.123424 1.352557 0
M  V30 10 Cl -4.512736 3.276933 0.529454 0
M  V30 11 C -2.950652 1.125881 0.583552 0
M  V30 12 N -3.158605 0.960119 -0.834378 0
M  V30 13 C -4.054976 -0.086592 -1.223993 0
M  V30 14 C -4.674994 -0.866961 -0.274843 0
M  V30 15 C -5.548348 -1.925717 -0.518449 0
M  V30 16 C -5.771804 -2.162627 -1.876035 0
M  V30 17 C -5.168038 -1.398783 -2.882925 0
M  V30 18 C -4.316709 -0.369522 -2.562413 0
M  V30 19 S -3.546941 0.585734 -3.777122 0
M  V30 20 O -3.964754 2.035371 -3.598575 0
M  V30 21 O -2.050637 0.513216 -3.650316 0
M  V30 22 C -4.070896 0.045595 -5.392038 0
M  V30 23 C -5.523361 0.343250 -5.601969 0
M  V30 24 C -3.276827 0.803852 -6.467619 0
M  V30 25 N -2.157147 0.244608 1.269872 0
M  V30 26 C 1.245007 -1.655158 2.721223 0
M  V30 27 O 0.836375 -2.746711 3.445152 0
M  V30 28 C 1.517667 -3.906558 3.787081 0
M  V30 29 C 1.729009 -3.961610 5.302628 0
M  V30 30 C 0.601845 -5.083926 3.473899 0
M  V30 31 C 2.525473 -1.497046 2.226016 0
M  V30 32 C 2.986698 -0.395469 1.480974 0
M  V30 33 C 4.374826 -0.503059 1.129867 0
M  V30 34 C 4.981227 0.361160 0.097301 0
M  V30 35 C 6.235644 -0.398466 -0.386739 0
M  V30 36 N 6.515427 -1.558785 0.406805 0
M  V30 37 C 6.528781 -1.368581 1.828565 0
M  V30 38 C 5.353446 -0.508050 2.306372 0
M  V30 39 H 2.240004 1.634360 -0.609460 0
M  V30 40 H 3.373312 2.213063 0.757436 0
M  V30 41 H 1.663679 2.534485 0.765994 0
M  V30 42 H 0.018708 1.202048 1.560236 0
M  V30 43 H -1.300463 -1.595552 3.476946 0
M  V30 44 H -3.691074 3.008633 3.322188 0
M  V30 45 H -2.714877 1.530065 -1.581131 0
M  V30 46 H -4.483548 -0.658114 0.786096 0
M  V30 47 H -6.005179 -2.501118 0.249020 0
M  V30 48 H -6.459553 -3.001107 -2.051832 0
M  V30 49 H -5.393655 -1.648856 -3.893570 0
M  V30 50 H -3.793351 -1.022359 -5.495053 0
M  V30 51 H -6.044292 -0.599084 -5.932559 0
M  V30 52 H -5.666918 1.118967 -6.408536 0
M  V30 53 H -5.983667 0.727014 -4.690482 0
M  V30 54 H -3.645967 1.842235 -6.451847 0
M  V30 55 H -3.549685 0.318464 -7.420807 0
M  V30 56 H -2.214061 0.696558 -6.212596 0
M  V30 57 H 2.498436 -4.004341 3.296465 0
M  V30 58 H 2.487797 -3.241802 5.615700 0
M  V30 59 H 2.000164 -5.031380 5.518937 0
M  V30 60 H 0.762769 -3.700654 5.776058 0
M  V30 61 H 0.062664 -5.428200 4.378956 0
M  V30 62 H -0.203557 -4.771221 2.759868 0
M  V30 63 H 1.147954 -5.935211 3.056274 0
M  V30 64 H 3.183333 -2.342152 2.474697 0
M  V30 65 H 4.482075 -1.566226 0.699128 0
M  V30 66 H 5.475047 1.282252 0.555005 0
M  V30 67 H 4.368772 0.604522 -0.774484 0
M  V30 68 H 6.003910 -0.790803 -1.417010 0
M  V30 69 H 7.098387 0.274641 -0.548346 0
M  V30 70 H 6.176206 -2.454503 0.056239 0
M  V30 71 H 7.484569 -0.973744 2.222145 0
M  V30 72 H 6.378102 -2.364627 2.298108 0
M  V30 73 H 5.704669 0.501697 2.503403 0
M  V30 74 H 4.809378 -0.958689 3.151777 0
M  V30 END ATOM
M  V30 BEGIN BOND
M  V30 1 1 1 2
M  V30 2 2 2 3
M  V30 3 1 3 4
M  V30 4 1 4 5
M  V30 5 1 5 6
M  V30 6 2 6 7
M  V30 7 1 7 8
M  V30 8 2 8 9
M  V30 9 1 9 10
M  V30 10 1 9 11
M  V30 11 1 11 12
M  V30 12 1 12 13
M  V30 13 2 13 14
M  V30 14 1 14 15
M  V30 15 2 15 16
M  V30 16 1 16 17
M  V30 17 2 17 18
M  V30 18 1 18 19
M  V30 19 2 19 20
M  V30 20 2 19 21
M  V30 21 1 19 22
M  V30 22 1 22 23
M  V30 23 1 22 24
M  V30 24 2 11 25
M  V30 25 2 4 26
M  V30 26 1 26 27
M  V30 27 1 27 28
M  V30 28 1 28 29
M  V30 29 1 28 30
M  V30 30 1 26 31
M  V30 31 2 31 32
M  V30 32 1 32 33
M  V30 33 1 33 34
M  V30 34 1 34 35
M  V30 35 1 35 36
M  V30 36 1 36 37
M  V30 37 1 37 38
M  V30 38 1 32 2
M  V30 39 1 38 33
M  V30 40 1 25 6
M  V30 41 1 18 13
M  V30 42 1 1 39
M  V30 43 1 1 40
M  V30 44 1 1 41
M  V30 45 1 3 42
M  V30 46 1 5 43
M  V30 47 1 8 44
M  V30 48 1 12 45
M  V30 49 1 14 46
M  V30 50 1 15 47
M  V30 51 1 16 48
M  V30 52 1 17 49
M  V30 53 1 22 50
M  V30 54 1 23 51
M  V30 55 1 23 52
M  V30 56 1 23 53
M  V30 57 1 24 54
M  V30 58 1 24 55
M  V30 59 1 24 56
M  V30 60 1 28 57
M  V30 61 1 29 58
M  V30 62 1 29 59
M  V30 63 1 29 60
M  V30 64 1 30 61
M  V30 65 1 30 62
M  V30 66 1 30 63
M  V30 67 1 31 64
M  V30 68 1 33 65
M  V30 69 1 34 66
M  V30 70 1 34 67
M  V30 71 1 35 68
M  V30 72 1 35 69
M  V30 73 1 36 70
M  V30 74 1 37 71
M  V30 75 1 37 72
M  V30 76 1 38 73
M  V30 77 1 38 74
M  V30 END BOND
M  V30 END CTAB
M  END
>  <Dataset>  (80) 
PKIs

>  <Ligand_Instance>  (80) 
nan

>  <PDB_ID>  (80) 
nan

>  <Standardized_SMILES>  (80) 
Cc1cc(Nc2ncc(Cl)c(Nc3ccccc3S(=O)(=O)C(C)C)n2)c(OC(C)C)cc1C1CCNCC1

>  <Name>  (80) 
Ceritinib

>  <Pocket>  (80) 
nan

>  <ATP_Site>  (80) 
nan

>  <Peripheral>  (80) 
nan

>  <Num_H_Atoms_ProtBoundConf>  (80) 
nan

>  <Num_Resolved_Atoms>  (80) 
nan

>  <Num_Not_Resolved_Atoms>  (80) 
nan

$$$$
nan
     RDKit          3D

  0  0  0  0  0  0  0  0  0  0999 V3000
M  V30 BEGIN CTAB
M  V30 COUNTS 40 42 0 0 0
M  V30 BEGIN ATOM
M  V30 1 C 0.832006 -3.001561 -1.613679 0
M  V30 2 C 0.606420 -2.758875 -0.135704 0 CFG=1
M  V30 3 C 1.602256 -3.591456 0.611235 0
M  V30 4 N 1.260487 -3.769393 1.984156 0
M  V30 5 C 1.132304 -2.589041 2.759062 0
M  V30 6 C 1.966495 -1.430291 2.334770 0
M  V30 7 C 1.933795 -1.038904 0.909740 0
M  V30 8 N 0.749711 -1.406878 0.173616 0
M  V30 9 S 0.268186 -0.220567 -0.911104 0
M  V30 10 O 1.575144 0.027978 -1.652632 0
M  V30 11 O -0.528891 -0.648226 -2.080819 0
M  V30 12 C -0.156495 1.313268 -0.215996 0
M  V30 13 C 0.542615 2.500372 -0.490546 0
M  V30 14 C 0.275175 3.746264 0.032100 0
M  V30 15 C -0.761827 3.858534 0.899421 0
M  V30 16 C -1.489910 2.762145 1.219194 0
M  V30 17 C -2.549686 2.909514 2.107401 0
M  V30 18 N -3.288389 1.822220 2.431510 0
M  V30 19 C -3.021321 0.599546 1.913581 0
M  V30 20 C -1.966792 0.477646 1.036038 0
M  V30 21 F -1.731931 -0.722063 0.538211 0
M  V30 22 C -1.198714 1.546138 0.684411 0
M  V30 23 H 1.449273 -2.259504 -2.113081 0
M  V30 24 H 1.343800 -3.996522 -1.762292 0
M  V30 25 H -0.131873 -3.086530 -2.170817 0
M  V30 26 H -0.390369 -3.213282 0.136637 0
M  V30 27 H 2.646342 -3.305849 0.513753 0
M  V30 28 H 1.535017 -4.614437 0.135887 0
M  V30 29 H 1.734715 -4.574526 2.399955 0
M  V30 30 H 0.055065 -2.328968 2.831763 0
M  V30 31 H 1.457348 -2.832503 3.794978 0
M  V30 32 H 3.038866 -1.676855 2.587055 0
M  V30 33 H 1.712807 -0.589450 3.013890 0
M  V30 34 H 2.873922 -1.286393 0.345348 0
M  V30 35 H 1.939405 0.085125 0.878569 0
M  V30 36 H 1.383815 2.410517 -1.193849 0
M  V30 37 H 0.901740 4.574697 -0.271751 0
M  V30 38 H -1.002679 4.806466 1.327733 0
M  V30 39 H -2.754949 3.881571 2.513351 0
M  V30 40 H -3.639401 -0.228376 2.204734 0
M  V30 END ATOM
M  V30 BEGIN BOND
M  V30 1 1 1 2
M  V30 2 1 2 3
M  V30 3 1 3 4
M  V30 4 1 4 5
M  V30 5 1 5 6
M  V30 6 1 6 7
M  V30 7 1 7 8
M  V30 8 1 8 9
M  V30 9 2 9 10
M  V30 10 2 9 11
M  V30 11 1 9 12
M  V30 12 2 12 13
M  V30 13 1 13 14
M  V30 14 2 14 15
M  V30 15 1 15 16
M  V30 16 2 16 17
M  V30 17 1 17 18
M  V30 18 2 18 19
M  V30 19 1 19 20
M  V30 20 1 20 21
M  V30 21 2 20 22
M  V30 22 1 8 2
M  V30 23 1 22 12
M  V30 24 1 22 16
M  V30 25 1 1 23
M  V30 26 1 1 24
M  V30 27 1 1 25
M  V30 28 1 2 26 CFG=1
M  V30 29 1 3 27
M  V30 30 1 3 28
M  V30 31 1 4 29
M  V30 32 1 5 30
M  V30 33 1 5 31
M  V30 34 1 6 32
M  V30 35 1 6 33
M  V30 36 1 7 34
M  V30 37 1 7 35
M  V30 38 1 13 36
M  V30 39 1 14 37
M  V30 40 1 15 38
M  V30 41 1 17 39
M  V30 42 1 19 40
M  V30 END BOND
M  V30 END CTAB
M  END
>  <Dataset>  (81) 
PKIs

>  <Ligand_Instance>  (81) 
nan

>  <PDB_ID>  (81) 
nan

>  <Standardized_SMILES>  (81) 
C[C@H]1CNCCCN1S(=O)(=O)c1cccc2cncc(F)c12

>  <Name>  (81) 
Ripasudil

>  <Pocket>  (81) 
nan

>  <ATP_Site>  (81) 
nan

>  <Peripheral>  (81) 
nan

>  <Num_H_Atoms_ProtBoundConf>  (81) 
nan

>  <Num_Resolved_Atoms>  (81) 
nan

>  <Num_Not_Resolved_Atoms>  (81) 
nan

$$$$
nan
     RDKit          3D

  0  0  0  0  0  0  0  0  0  0999 V3000
M  V30 BEGIN CTAB
M  V30 COUNTS 73 77 0 0 0
M  V30 BEGIN ATOM
M  V30 1 C 7.270679 1.603158 5.033253 0
M  V30 2 O 6.426676 1.454796 3.903637 0
M  V30 3 C 5.734773 2.475339 3.298577 0
M  V30 4 O 5.890922 3.626215 3.822454 0
M  V30 5 C 4.880761 2.258926 2.136412 0
M  V30 6 C 4.698987 1.021981 1.549872 0
M  V30 7 C 3.870437 0.864170 0.436889 0
M  V30 8 C 3.229421 1.959992 -0.079748 0
M  V30 9 C 3.378585 3.212839 0.473014 0
M  V30 10 C 4.209079 3.341424 1.580455 0
M  V30 11 N 2.578291 4.139627 -0.245142 0
M  V30 12 C 1.896224 3.458946 -1.290600 0
M  V30 13 O 1.110298 3.945877 -2.120208 0
M  V30 14 C 2.311063 2.043858 -1.196961 0
M  V30 15 C 1.976846 1.079594 -2.029183 0
M  V30 16 N 1.038312 1.433806 -3.029408 0
M  V30 17 C -0.187728 0.758276 -2.777999 0
M  V30 18 C -0.769244 -0.220505 -3.557125 0
M  V30 19 C -1.959461 -0.816277 -3.198261 0
M  V30 20 C -2.635858 -0.471903 -2.046694 0
M  V30 21 N -3.864799 -0.999196 -1.564979 0
M  V30 22 C -5.152022 -0.437831 -1.854364 0
M  V30 23 C -3.575691 -2.137989 -0.781591 0
M  V30 24 O -2.434530 -1.757340 -1.202633 0
M  V30 25 C -3.370886 -3.310255 0.036693 0
M  V30 26 N -4.532635 -3.883066 0.619785 0
M  V30 27 C -4.293172 -5.091499 1.341591 0
M  V30 28 C -4.296891 -4.733600 2.831509 0
M  V30 29 N -5.682701 -4.473434 3.178111 0
M  V30 30 C -5.856603 -3.800116 4.425859 0
M  V30 31 C -6.377507 -3.778640 2.124273 0
M  V30 32 C -5.438077 -2.982043 1.244197 0
M  V30 33 C -2.079209 0.516789 -1.229349 0
M  V30 34 C -0.878781 1.093586 -1.624752 0
M  V30 35 C 2.556928 -0.237821 -2.090407 0
M  V30 36 C 2.055044 -1.513228 -1.939476 0
M  V30 37 C 2.869339 -2.603652 -2.154760 0
M  V30 38 C 4.187542 -2.490391 -2.520736 0
M  V30 39 C 4.711014 -1.230894 -2.677761 0
M  V30 40 C 3.913121 -0.100186 -2.467738 0
M  V30 41 H 7.650148 2.634920 5.050472 0
M  V30 42 H 8.114073 0.859225 4.950957 0
M  V30 43 H 6.688646 1.347313 5.936430 0
M  V30 44 H 5.265040 0.241397 2.055852 0
M  V30 45 H 3.846615 -0.150954 0.166249 0
M  V30 46 H 4.300970 4.341624 1.984242 0
M  V30 47 H 2.499286 5.159396 -0.044831 0
M  V30 48 H 1.283334 2.093768 -3.800520 0
M  V30 49 H -0.248313 -0.492915 -4.452497 0
M  V30 50 H -2.426346 -1.580018 -3.795191 0
M  V30 51 H -5.930130 -0.640342 -1.096360 0
M  V30 52 H -5.484417 -0.793737 -2.871548 0
M  V30 53 H -5.055449 0.686423 -1.851449 0
M  V30 54 H -2.633659 -3.129148 0.874087 0
M  V30 55 H -2.889385 -4.110977 -0.576680 0
M  V30 56 H -5.059523 -5.826415 1.097701 0
M  V30 57 H -3.307112 -5.501164 1.048527 0
M  V30 58 H -3.955591 -5.597796 3.392556 0
M  V30 59 H -3.672108 -3.830996 2.973888 0
M  V30 60 H -6.929300 -3.636566 4.609715 0
M  V30 61 H -5.499708 -4.430553 5.270461 0
M  V30 62 H -5.256864 -2.848726 4.445966 0
M  V30 63 H -6.856621 -4.565127 1.476140 0
M  V30 64 H -7.199053 -3.148687 2.523734 0
M  V30 65 H -4.837784 -2.326162 1.931996 0
M  V30 66 H -5.949455 -2.378703 0.505842 0
M  V30 67 H -2.560893 0.839659 -0.302203 0
M  V30 68 H -0.486973 1.856903 -0.956263 0
M  V30 69 H 1.024269 -1.464424 -1.652310 0
M  V30 70 H 2.371552 -3.556648 -2.008072 0
M  V30 71 H 4.785518 -3.387006 -2.677314 0
M  V30 72 H 5.752156 -1.198432 -2.966123 0
M  V30 73 H 4.489262 0.809910 -2.637032 0
M  V30 END ATOM
M  V30 BEGIN BOND
M  V30 1 1 1 2
M  V30 2 1 2 3
M  V30 3 2 3 4
M  V30 4 1 3 5
M  V30 5 2 5 6
M  V30 6 1 6 7
M  V30 7 2 7 8
M  V30 8 1 8 9
M  V30 9 2 9 10
M  V30 10 1 9 11
M  V30 11 1 11 12
M  V30 12 2 12 13
M  V30 13 1 12 14
M  V30 14 2 14 15
M  V30 15 1 15 16
M  V30 16 1 16 17
M  V30 17 2 17 18
M  V30 18 1 18 19
M  V30 19 2 19 20
M  V30 20 1 20 21
M  V30 21 1 21 22
M  V30 22 1 21 23
M  V30 23 2 23 24
M  V30 24 1 23 25
M  V30 25 1 25 26
M  V30 26 1 26 27
M  V30 27 1 27 28
M  V30 28 1 28 29
M  V30 29 1 29 30
M  V30 30 1 29 31
M  V30 31 1 31 32
M  V30 32 1 20 33
M  V30 33 2 33 34
M  V30 34 1 15 35
M  V30 35 2 35 36
M  V30 36 1 36 37
M  V30 37 2 37 38
M  V30 38 1 38 39
M  V30 39 2 39 40
M  V30 40 1 10 5
M  V30 41 1 34 17
M  V30 42 1 40 35
M  V30 43 1 14 8
M  V30 44 1 32 26
M  V30 45 1 1 41
M  V30 46 1 1 42
M  V30 47 1 1 43
M  V30 48 1 6 44
M  V30 49 1 7 45
M  V30 50 1 10 46
M  V30 51 1 11 47
M  V30 52 1 16 48
M  V30 53 1 18 49
M  V30 54 1 19 50
M  V30 55 1 22 51
M  V30 56 1 22 52
M  V30 57 1 22 53
M  V30 58 1 25 54
M  V30 59 1 25 55
M  V30 60 1 27 56
M  V30 61 1 27 57
M  V30 62 1 28 58
M  V30 63 1 28 59
M  V30 64 1 30 60
M  V30 65 1 30 61
M  V30 66 1 30 62
M  V30 67 1 31 63
M  V30 68 1 31 64
M  V30 69 1 32 65
M  V30 70 1 32 66
M  V30 71 1 33 67
M  V30 72 1 34 68
M  V30 73 1 36 69
M  V30 74 1 37 70
M  V30 75 1 38 71
M  V30 76 1 39 72
M  V30 77 1 40 73
M  V30 END BOND
M  V30 END CTAB
M  END
>  <Dataset>  (82) 
PKIs

>  <Ligand_Instance>  (82) 
nan

>  <PDB_ID>  (82) 
nan

>  <Standardized_SMILES>  (82) 
COC(=O)c1ccc2c(c1)NC(=O)/C2=C(\Nc1ccc(N(C)C(=O)CN2CCN(C)CC2)cc1)c1ccccc1

>  <Name>  (82) 
Nintedanib

>  <Pocket>  (82) 
nan

>  <ATP_Site>  (82) 
nan

>  <Peripheral>  (82) 
nan

>  <Num_H_Atoms_ProtBoundConf>  (82) 
nan

>  <Num_Resolved_Atoms>  (82) 
nan

>  <Num_Not_Resolved_Atoms>  (82) 
nan

$$$$
nan
     RDKit          3D

  0  0  0  0  0  0  0  0  0  0999 V3000
M  V30 BEGIN CTAB
M  V30 COUNTS 59 62 0 0 0
M  V30 BEGIN ATOM
M  V30 1 C 4.292612 -0.903594 3.958333 0
M  V30 2 N 4.632462 0.094808 2.978042 0
M  V30 3 C 3.723399 1.215720 3.149548 0
M  V30 4 C 4.607304 -0.395910 1.614158 0
M  V30 5 C 3.201514 -0.713597 1.202789 0
M  V30 6 C 2.685091 -0.079245 0.180473 0
M  V30 7 C 1.310968 -0.462032 -0.137965 0
M  V30 8 O 0.709016 -1.347988 0.555220 0
M  V30 9 N 0.488822 0.057480 -1.196342 0
M  V30 10 C -0.770142 -0.638090 -1.088138 0
M  V30 11 C -1.685208 0.015614 -0.255267 0
M  V30 12 C -2.933579 -0.527425 -0.048712 0
M  V30 13 C -3.859659 0.087921 0.766051 0
M  V30 14 N -3.507066 1.309897 1.396444 0
M  V30 15 C -2.880340 1.665798 2.618666 0
M  V30 16 C -2.743270 3.000185 2.901523 0
M  V30 17 C -2.118781 3.273322 4.111045 0
M  V30 18 C -1.661042 2.332822 4.982156 0
M  V30 19 F -1.061737 2.722271 6.144224 0
M  V30 20 C -1.837236 0.991495 4.623872 0
M  V30 21 Cl -1.232472 -0.192287 5.774944 0
M  V30 22 C -2.447981 0.648560 3.439881 0
M  V30 23 N -5.051667 -0.530065 0.900681 0
M  V30 24 C -5.346192 -1.689428 0.281298 0
M  V30 25 N -4.434189 -2.279690 -0.511018 0
M  V30 26 C -3.225452 -1.713394 -0.686538 0
M  V30 27 C -2.335850 -2.366461 -1.507751 0
M  V30 28 C -1.086460 -1.833195 -1.721208 0
M  V30 29 O -0.049088 -2.292640 -2.483012 0
M  V30 30 C -0.043003 -3.469143 -3.241621 0 CFG=1
M  V30 31 C 0.151918 -3.144667 -4.730513 0
M  V30 32 C 0.825638 -4.425698 -5.175805 0
M  V30 33 O 1.757576 -4.655394 -4.168449 0
M  V30 34 C 1.157510 -4.312009 -2.969631 0
M  V30 35 H 4.500560 -1.939441 3.639114 0
M  V30 36 H 3.186017 -0.821341 4.140008 0
M  V30 37 H 4.776269 -0.641466 4.925771 0
M  V30 38 H 2.719750 1.002464 2.725379 0
M  V30 39 H 3.597264 1.380378 4.227828 0
M  V30 40 H 4.159808 2.085813 2.623571 0
M  V30 41 H 5.147257 -1.373255 1.642839 0
M  V30 42 H 5.098316 0.317287 0.954386 0
M  V30 43 H 2.726825 -1.468176 1.815234 0
M  V30 44 H 3.175569 0.660784 -0.405736 0
M  V30 45 H 0.962217 0.797093 -1.791183 0
M  V30 46 H -1.469214 0.945272 0.250453 0
M  V30 47 H -3.847025 1.990658 0.683789 0
M  V30 48 H -3.107637 3.745207 2.208842 0
M  V30 49 H -1.985146 4.328895 4.383699 0
M  V30 50 H -2.565714 -0.411122 3.197471 0
M  V30 51 H -6.352443 -2.036581 0.508337 0
M  V30 52 H -2.505852 -3.294970 -2.033018 0
M  V30 53 H -0.995090 -4.059603 -3.162455 0
M  V30 54 H 0.856715 -2.306860 -4.841486 0
M  V30 55 H -0.833972 -2.990596 -5.211997 0
M  V30 56 H 0.071870 -5.252090 -5.234165 0
M  V30 57 H 1.272298 -4.207074 -6.160232 0
M  V30 58 H 1.877982 -3.693813 -2.361977 0
M  V30 59 H 0.968827 -5.216342 -2.372305 0
M  V30 END ATOM
M  V30 BEGIN BOND
M  V30 1 1 1 2
M  V30 2 1 2 3
M  V30 3 1 2 4
M  V30 4 1 4 5
M  V30 5 2 5 6
M  V30 6 1 6 7
M  V30 7 2 7 8
M  V30 8 1 7 9
M  V30 9 1 9 10
M  V30 10 2 10 11
M  V30 11 1 11 12
M  V30 12 2 12 13
M  V30 13 1 13 14
M  V30 14 1 14 15
M  V30 15 2 15 16
M  V30 16 1 16 17
M  V30 17 2 17 18
M  V30 18 1 18 19
M  V30 19 1 18 20
M  V30 20 1 20 21
M  V30 21 2 20 22
M  V30 22 1 13 23
M  V30 23 2 23 24
M  V30 24 1 24 25
M  V30 25 2 25 26
M  V30 26 1 26 27
M  V30 27 2 27 28
M  V30 28 1 28 29
M  V30 29 1 29 30
M  V30 30 1 30 31
M  V30 31 1 31 32
M  V30 32 1 32 33
M  V30 33 1 33 34
M  V30 34 1 28 10
M  V30 35 1 34 30
M  V30 36 1 26 12
M  V30 37 1 22 15
M  V30 38 1 1 35
M  V30 39 1 1 36
M  V30 40 1 1 37
M  V30 41 1 3 38
M  V30 42 1 3 39
M  V30 43 1 3 40
M  V30 44 1 4 41
M  V30 45 1 4 42
M  V30 46 1 5 43
M  V30 47 1 6 44
M  V30 48 1 9 45
M  V30 49 1 11 46
M  V30 50 1 14 47
M  V30 51 1 16 48
M  V30 52 1 17 49
M  V30 53 1 22 50
M  V30 54 1 24 51
M  V30 55 1 27 52
M  V30 56 1 30 53 CFG=3
M  V30 57 1 31 54
M  V30 58 1 31 55
M  V30 59 1 32 56
M  V30 60 1 32 57
M  V30 61 1 34 58
M  V30 62 1 34 59
M  V30 END BOND
M  V30 END CTAB
M  END
>  <Dataset>  (83) 
PKIs

>  <Ligand_Instance>  (83) 
nan

>  <PDB_ID>  (83) 
nan

>  <Standardized_SMILES>  (83) 
CN(C)C/C=C/C(=O)Nc1cc2c(Nc3ccc(F)c(Cl)c3)ncnc2cc1O[C@H]1CCOC1

>  <Name>  (83) 
Afatinib

>  <Pocket>  (83) 
nan

>  <ATP_Site>  (83) 
nan

>  <Peripheral>  (83) 
nan

>  <Num_H_Atoms_ProtBoundConf>  (83) 
nan

>  <Num_Resolved_Atoms>  (83) 
nan

>  <Num_Not_Resolved_Atoms>  (83) 
nan

$$$$
nan
     RDKit          3D

  0  0  0  0  0  0  0  0  0  0999 V3000
M  V30 BEGIN CTAB
M  V30 COUNTS 60 64 0 0 0
M  V30 BEGIN ATOM
M  V30 1 C 4.098356 -1.109195 5.894439 0
M  V30 2 C 3.559740 -0.638123 4.605478 0
M  V30 3 O 2.446270 -1.137188 4.318525 0
M  V30 4 N 4.157344 0.277475 3.713839 0
M  V30 5 C 3.683158 0.759562 2.470294 0
M  V30 6 C 4.528050 1.655147 1.854047 0
M  V30 7 C 4.196789 2.205298 0.640972 0
M  V30 8 C 3.029023 1.894011 -0.002734 0
M  V30 9 C 2.129375 0.985229 0.581070 0
M  V30 10 N 0.845473 0.551504 0.149111 0
M  V30 11 C -0.077743 1.215405 0.915148 0
M  V30 12 O 0.142246 2.065420 1.844840 0
M  V30 13 N -1.427758 1.042732 0.773859 0
M  V30 14 C -2.444888 1.692269 1.526138 0
M  V30 15 C -3.622133 0.920005 2.043303 0
M  V30 16 C -3.771731 2.019557 1.042738 0
M  V30 17 C -1.833064 0.159018 -0.186303 0
M  V30 18 O -3.024360 -0.133207 -0.465365 0
M  V30 19 C -0.919795 -0.518626 -0.967165 0
M  V30 20 C -1.279119 -1.418397 -1.948747 0
M  V30 21 N -2.660697 -1.671686 -2.177867 0
M  V30 22 C -3.264224 -2.733001 -1.430717 0
M  V30 23 C -2.514752 -3.467241 -0.529833 0
M  V30 24 C -3.031362 -4.505031 0.224926 0
M  V30 25 C -4.368035 -4.792843 0.041552 0
M  V30 26 I -5.205309 -6.361628 1.163923 0
M  V30 27 C -5.177301 -4.087857 -0.852937 0
M  V30 28 C -4.596162 -3.063942 -1.574101 0
M  V30 29 F -5.354605 -2.361364 -2.449714 0
M  V30 30 N -0.352416 -2.054244 -2.685844 0
M  V30 31 C -0.780580 -2.979614 -3.693312 0
M  V30 32 C 0.927786 -1.783017 -2.433008 0
M  V30 33 O 1.742327 -2.430804 -3.179219 0
M  V30 34 C 1.461473 -0.897532 -1.473569 0
M  V30 35 C 2.913840 -0.718994 -1.333788 0
M  V30 36 C 0.425457 -0.308961 -0.784821 0
M  V30 37 C 2.533755 0.457557 1.829614 0
M  V30 38 H 4.172052 -2.213253 5.971458 0
M  V30 39 H 5.110216 -0.685190 6.091430 0
M  V30 40 H 3.475459 -0.800349 6.775452 0
M  V30 41 H 5.078052 0.582935 4.124193 0
M  V30 42 H 5.492990 1.984956 2.268781 0
M  V30 43 H 4.845417 2.907421 0.144367 0
M  V30 44 H 2.657703 2.253162 -0.946764 0
M  V30 45 H -2.031994 2.406163 2.301644 0
M  V30 46 H -3.980821 1.089910 3.099065 0
M  V30 47 H -3.643108 -0.143461 1.778379 0
M  V30 48 H -4.298733 2.928779 1.461933 0
M  V30 49 H -4.162219 1.838945 0.019853 0
M  V30 50 H -3.272102 -1.146562 -2.847141 0
M  V30 51 H -1.460637 -3.260082 -0.367576 0
M  V30 52 H -2.426729 -5.073848 0.930730 0
M  V30 53 H -6.221266 -4.347592 -0.964994 0
M  V30 54 H 0.040772 -2.971025 -4.471917 0
M  V30 55 H -0.806788 -4.041574 -3.376805 0
M  V30 56 H -1.667518 -2.645029 -4.258842 0
M  V30 57 H 3.362022 0.043404 -2.007233 0
M  V30 58 H 3.331011 -1.654626 -1.873550 0
M  V30 59 H 3.368112 -0.883546 -0.369438 0
M  V30 60 H 1.880356 -0.242198 2.317072 0
M  V30 END ATOM
M  V30 BEGIN BOND
M  V30 1 1 1 2
M  V30 2 2 2 3
M  V30 3 1 2 4
M  V30 4 1 4 5
M  V30 5 2 5 6
M  V30 6 1 6 7
M  V30 7 2 7 8
M  V30 8 1 8 9
M  V30 9 1 9 10
M  V30 10 1 10 11
M  V30 11 2 11 12
M  V30 12 1 11 13
M  V30 13 1 13 14
M  V30 14 1 14 15
M  V30 15 1 15 16
M  V30 16 1 13 17
M  V30 17 2 17 18
M  V30 18 1 17 19
M  V30 19 2 19 20
M  V30 20 1 20 21
M  V30 21 1 21 22
M  V30 22 2 22 23
M  V30 23 1 23 24
M  V30 24 2 24 25
M  V30 25 1 25 26
M  V30 26 1 25 27
M  V30 27 2 27 28
M  V30 28 1 28 29
M  V30 29 1 20 30
M  V30 30 1 30 31
M  V30 31 1 30 32
M  V30 32 2 32 33
M  V30 33 1 32 34
M  V30 34 1 34 35
M  V30 35 2 34 36
M  V30 36 2 9 37
M  V30 37 1 37 5
M  V30 38 1 36 10
M  V30 39 1 16 14
M  V30 40 1 36 19
M  V30 41 1 28 22
M  V30 42 1 1 38
M  V30 43 1 1 39
M  V30 44 1 1 40
M  V30 45 1 4 41
M  V30 46 1 6 42
M  V30 47 1 7 43
M  V30 48 1 8 44
M  V30 49 1 14 45
M  V30 50 1 15 46
M  V30 51 1 15 47
M  V30 52 1 16 48
M  V30 53 1 16 49
M  V30 54 1 21 50
M  V30 55 1 23 51
M  V30 56 1 24 52
M  V30 57 1 27 53
M  V30 58 1 31 54
M  V30 59 1 31 55
M  V30 60 1 31 56
M  V30 61 1 35 57
M  V30 62 1 35 58
M  V30 63 1 35 59
M  V30 64 1 37 60
M  V30 END BOND
M  V30 END CTAB
M  END
>  <Dataset>  (84) 
PKIs

>  <Ligand_Instance>  (84) 
nan

>  <PDB_ID>  (84) 
nan

>  <Standardized_SMILES>  (84) 
CC(=O)Nc1cccc(-n2c(=O)n(C3CC3)c(=O)c3c(Nc4ccc(I)cc4F)n(C)c(=O)c(C)c32)c1

>  <Name>  (84) 
Trametinib

>  <Pocket>  (84) 
nan

>  <ATP_Site>  (84) 
nan

>  <Peripheral>  (84) 
nan

>  <Num_H_Atoms_ProtBoundConf>  (84) 
nan

>  <Num_Resolved_Atoms>  (84) 
nan

>  <Num_Not_Resolved_Atoms>  (84) 
nan

$$$$
nan
     RDKit          3D

  0  0  0  0  0  0  0  0  0  0999 V3000
M  V30 BEGIN CTAB
M  V30 COUNTS 57 61 0 0 0
M  V30 BEGIN ATOM
M  V30 1 C 6.359131 -0.552879 2.863050 0
M  V30 2 C 6.500029 -1.056861 1.653652 0
M  V30 3 C 5.695895 -1.835249 0.727312 0
M  V30 4 O 6.274994 -2.092616 -0.358055 0
M  V30 5 N 4.374938 -2.264965 1.024099 0
M  V30 6 C 3.538179 -2.070920 2.217367 0
M  V30 7 C 2.854386 -3.414583 2.502221 0
M  V30 8 C 1.758841 -3.529950 1.486691 0
M  V30 9 C 2.201379 -3.051689 0.135764 0 CFG=1
M  V30 10 N 1.571366 -1.802260 -0.223040 0
M  V30 11 N 0.294087 -1.534012 -0.011484 0
M  V30 12 C 0.005328 -0.294620 -0.454769 0
M  V30 13 C -1.360410 0.189952 -0.304031 0
M  V30 14 C -1.933848 0.054271 0.966280 0
M  V30 15 C -3.215875 0.436588 1.301661 0
M  V30 16 C -3.986730 0.994616 0.304099 0
M  V30 17 O -5.293165 1.431230 0.474658 0
M  V30 18 C -6.380479 0.578286 0.257814 0
M  V30 19 C -7.686484 1.000978 0.424146 0
M  V30 20 C -8.709958 0.094886 0.189318 0
M  V30 21 C -8.461306 -1.202629 -0.201588 0
M  V30 22 C -7.156556 -1.665095 -0.379467 0
M  V30 23 C -6.172092 -0.729639 -0.134723 0
M  V30 24 C -3.475759 1.153092 -0.966578 0
M  V30 25 C -2.188660 0.754324 -1.249512 0
M  V30 26 C 1.198489 0.180093 -0.953228 0
M  V30 27 C 1.383987 1.425864 -1.511220 0
M  V30 28 N 0.376793 2.400959 -1.644308 0
M  V30 29 N 2.652554 1.692200 -1.937643 0
M  V30 30 C 3.617813 0.739078 -1.786812 0
M  V30 31 N 3.429288 -0.475377 -1.239897 0
M  V30 32 C 2.189043 -0.768028 -0.809553 0
M  V30 33 C 3.686760 -3.027188 0.015517 0
M  V30 34 H 6.832636 0.015795 3.644637 0
M  V30 35 H 5.857990 -0.333847 3.793552 0
M  V30 36 H 7.502811 -0.713110 1.465552 0
M  V30 37 H 4.110704 -1.807403 3.104867 0
M  V30 38 H 2.725092 -1.361068 1.976785 0
M  V30 39 H 2.416628 -3.350093 3.499358 0
M  V30 40 H 3.569471 -4.256225 2.473859 0
M  V30 41 H 0.929886 -2.876059 1.834962 0
M  V30 42 H 1.364073 -4.561096 1.456865 0
M  V30 43 H 1.831205 -3.817290 -0.609640 0
M  V30 44 H -1.360452 -0.378745 1.773588 0
M  V30 45 H -3.629076 0.322459 2.276550 0
M  V30 46 H -7.903629 2.008524 0.728550 0
M  V30 47 H -9.741109 0.412259 0.315721 0
M  V30 48 H -9.277694 -1.900619 -0.381842 0
M  V30 49 H -6.895144 -2.666535 -0.683305 0
M  V30 50 H -5.140783 -1.055890 -0.263616 0
M  V30 51 H -4.053359 1.586344 -1.769659 0
M  V30 52 H -1.785422 0.859230 -2.235222 0
M  V30 53 H -0.020368 2.858682 -2.502219 0
M  V30 54 H 0.081382 2.593404 -0.653782 0
M  V30 55 H 4.615137 0.995961 -2.141885 0
M  V30 56 H 4.024464 -4.094387 0.173948 0
M  V30 57 H 4.065614 -2.751901 -0.964276 0
M  V30 END ATOM
M  V30 BEGIN BOND
M  V30 1 2 1 2
M  V30 2 1 2 3
M  V30 3 2 3 4
M  V30 4 1 3 5
M  V30 5 1 5 6
M  V30 6 1 6 7
M  V30 7 1 7 8
M  V30 8 1 8 9
M  V30 9 1 9 10
M  V30 10 1 10 11
M  V30 11 2 11 12
M  V30 12 1 12 13
M  V30 13 2 13 14
M  V30 14 1 14 15
M  V30 15 2 15 16
M  V30 16 1 16 17
M  V30 17 1 17 18
M  V30 18 2 18 19
M  V30 19 1 19 20
M  V30 20 2 20 21
M  V30 21 1 21 22
M  V30 22 2 22 23
M  V30 23 1 16 24
M  V30 24 2 24 25
M  V30 25 1 12 26
M  V30 26 2 26 27
M  V30 27 1 27 28
M  V30 28 1 27 29
M  V30 29 2 29 30
M  V30 30 1 30 31
M  V30 31 2 31 32
M  V30 32 1 9 33
M  V30 33 1 33 5
M  V30 34 1 32 10
M  V30 35 1 25 13
M  V30 36 1 32 26
M  V30 37 1 23 18
M  V30 38 1 1 34
M  V30 39 1 1 35
M  V30 40 1 2 36
M  V30 41 1 6 37
M  V30 42 1 6 38
M  V30 43 1 7 39
M  V30 44 1 7 40
M  V30 45 1 8 41
M  V30 46 1 8 42
M  V30 47 1 9 43 CFG=3
M  V30 48 1 14 44
M  V30 49 1 15 45
M  V30 50 1 19 46
M  V30 51 1 20 47
M  V30 52 1 21 48
M  V30 53 1 22 49
M  V30 54 1 23 50
M  V30 55 1 24 51
M  V30 56 1 25 52
M  V30 57 1 28 53
M  V30 58 1 28 54
M  V30 59 1 30 55
M  V30 60 1 33 56
M  V30 61 1 33 57
M  V30 END BOND
M  V30 END CTAB
M  END
>  <Dataset>  (85) 
PKIs

>  <Ligand_Instance>  (85) 
nan

>  <PDB_ID>  (85) 
nan

>  <Standardized_SMILES>  (85) 
C=CC(=O)N1CCC[C@@H](n2nc(-c3ccc(Oc4ccccc4)cc3)c3c(N)ncnc32)C1

>  <Name>  (85) 
Ibrutinib

>  <Pocket>  (85) 
nan

>  <ATP_Site>  (85) 
nan

>  <Peripheral>  (85) 
nan

>  <Num_H_Atoms_ProtBoundConf>  (85) 
nan

>  <Num_Resolved_Atoms>  (85) 
nan

>  <Num_Not_Resolved_Atoms>  (85) 
nan

$$$$
nan
     RDKit          3D

  0  0  0  0  0  0  0  0  0  0999 V3000
M  V30 BEGIN CTAB
M  V30 COUNTS 55 58 0 0 0
M  V30 BEGIN ATOM
M  V30 1 C 4.760634 -2.763910 1.261696 0
M  V30 2 C 4.749889 -1.348490 0.784962 0
M  V30 3 C 4.836032 -0.376641 1.939035 0
M  V30 4 C 5.885971 -1.161015 -0.196316 0
M  V30 5 C 3.488531 -0.986352 0.072572 0
M  V30 6 N 2.419056 -0.526362 0.397634 0
M  V30 7 C 1.428888 -0.289468 -0.442842 0
M  V30 8 C 0.188497 0.276121 0.139876 0
M  V30 9 C 0.220349 1.510797 0.751756 0
M  V30 10 C -0.935783 2.038287 1.297827 0
M  V30 11 C -2.069467 1.263181 1.184656 0
M  V30 12 C -2.151955 0.024791 0.583390 0
M  V30 13 N -3.357932 -0.714077 0.496672 0
M  V30 14 S -4.775718 -0.636644 1.489430 0
M  V30 15 O -5.863325 -1.494670 0.942252 0
M  V30 16 O -5.319538 0.785675 1.470643 0
M  V30 17 C -4.476179 -1.048470 3.144399 0
M  V30 18 C -4.575871 -2.409103 3.420919 0
M  V30 19 F -4.877406 -3.349685 2.475672 0
M  V30 20 C -4.382640 -2.946795 4.667190 0
M  V30 21 C -4.069877 -2.133637 5.739349 0
M  V30 22 C -3.967590 -0.781774 5.480886 0
M  V30 23 C -4.166427 -0.264727 4.219762 0
M  V30 24 F -4.081370 1.055650 3.933247 0
M  V30 25 C -0.965660 -0.469751 0.046232 0
M  V30 26 F -1.021733 -1.674123 -0.544784 0
M  V30 27 C 1.619311 -0.583628 -1.783658 0
M  V30 28 C 0.698114 -0.412251 -2.864686 0
M  V30 29 C 0.328635 -1.565919 -3.543108 0
M  V30 30 C -0.562516 -1.541991 -4.617311 0
M  V30 31 N -1.044699 -0.334408 -4.959604 0
M  V30 32 C -0.696893 0.791590 -4.313146 0
M  V30 33 N -1.181981 2.089033 -4.642258 0
M  V30 34 N 0.159804 0.727737 -3.288405 0
M  V30 35 S 3.328482 -1.226010 -1.742755 0
M  V30 36 H 5.825353 -3.069659 1.411458 0
M  V30 37 H 4.384266 -3.425353 0.442391 0
M  V30 38 H 4.148671 -2.948661 2.162105 0
M  V30 39 H 4.200547 0.523030 1.806511 0
M  V30 40 H 4.454845 -0.870648 2.860406 0
M  V30 41 H 5.876041 -0.103445 2.117756 0
M  V30 42 H 6.827735 -1.629422 0.154267 0
M  V30 43 H 5.593410 -1.710370 -1.127647 0
M  V30 44 H 5.999585 -0.108960 -0.517301 0
M  V30 45 H 1.136184 2.079211 0.813939 0
M  V30 46 H -0.935067 2.999110 1.780459 0
M  V30 47 H -2.952125 1.707641 1.613794 0
M  V30 48 H -3.387309 -1.406360 -0.287776 0
M  V30 49 H -4.456162 -4.000384 4.899933 0
M  V30 50 H -3.891597 -2.402754 6.761747 0
M  V30 51 H -3.728961 -0.045106 6.234036 0
M  V30 52 H 0.687154 -2.578277 -3.311656 0
M  V30 53 H -0.859921 -2.428689 -5.154346 0
M  V30 54 H -0.472433 2.496679 -5.316648 0
M  V30 55 H -2.072766 2.458519 -4.237363 0
M  V30 END ATOM
M  V30 BEGIN BOND
M  V30 1 1 1 2
M  V30 2 1 2 3
M  V30 3 1 2 4
M  V30 4 1 2 5
M  V30 5 2 5 6
M  V30 6 1 6 7
M  V30 7 1 7 8
M  V30 8 2 8 9
M  V30 9 1 9 10
M  V30 10 2 10 11
M  V30 11 1 11 12
M  V30 12 1 12 13
M  V30 13 1 13 14
M  V30 14 2 14 15
M  V30 15 2 14 16
M  V30 16 1 14 17
M  V30 17 2 17 18
M  V30 18 1 18 19
M  V30 19 1 18 20
M  V30 20 2 20 21
M  V30 21 1 21 22
M  V30 22 2 22 23
M  V30 23 1 23 24
M  V30 24 2 12 25
M  V30 25 1 25 26
M  V30 26 2 7 27
M  V30 27 1 27 28
M  V30 28 2 28 29
M  V30 29 1 29 30
M  V30 30 2 30 31
M  V30 31 1 31 32
M  V30 32 1 32 33
M  V30 33 2 32 34
M  V30 34 1 27 35
M  V30 35 1 35 5
M  V30 36 1 25 8
M  V30 37 1 34 28
M  V30 38 1 23 17
M  V30 39 1 1 36
M  V30 40 1 1 37
M  V30 41 1 1 38
M  V30 42 1 3 39
M  V30 43 1 3 40
M  V30 44 1 3 41
M  V30 45 1 4 42
M  V30 46 1 4 43
M  V30 47 1 4 44
M  V30 48 1 9 45
M  V30 49 1 10 46
M  V30 50 1 11 47
M  V30 51 1 13 48
M  V30 52 1 20 49
M  V30 53 1 21 50
M  V30 54 1 22 51
M  V30 55 1 29 52
M  V30 56 1 30 53
M  V30 57 1 33 54
M  V30 58 1 33 55
M  V30 END BOND
M  V30 END CTAB
M  END
>  <Dataset>  (86) 
PKIs

>  <Ligand_Instance>  (86) 
nan

>  <PDB_ID>  (86) 
nan

>  <Standardized_SMILES>  (86) 
CC(C)(C)c1nc(-c2cccc(NS(=O)(=O)c3c(F)cccc3F)c2F)c(-c2ccnc(N)n2)s1

>  <Name>  (86) 
Dabrafenib

>  <Pocket>  (86) 
nan

>  <ATP_Site>  (86) 
nan

>  <Peripheral>  (86) 
nan

>  <Num_H_Atoms_ProtBoundConf>  (86) 
nan

>  <Num_Resolved_Atoms>  (86) 
nan

>  <Num_Not_Resolved_Atoms>  (86) 
nan

$$$$
nan
     RDKit          3D

  0  0  0  0  0  0  0  0  0  0999 V3000
M  V30 BEGIN CTAB
M  V30 COUNTS 43 45 0 0 0
M  V30 BEGIN ATOM
M  V30 1 C 0.265891 -2.459311 2.615977 0
M  V30 2 C 1.102171 -1.943442 1.496580 0 CFG=2
M  V30 3 C 2.572844 -2.078334 1.853508 0
M  V30 4 C 3.359123 -2.076970 0.559680 0
M  V30 5 N 2.740377 -1.064128 -0.279570 0
M  V30 6 C 2.915946 -1.310769 -1.644866 0
M  V30 7 O 3.589517 -2.387277 -1.783041 0
M  V30 8 C 2.452301 -0.537381 -2.832230 0
M  V30 9 C 2.920890 -1.251460 -4.030612 0
M  V30 10 N 3.289152 -1.820854 -4.964032 0
M  V30 11 C 2.068821 -0.004760 0.429606 0
M  V30 12 C 0.753670 -0.607094 0.954729 0 CFG=2
M  V30 13 N 0.076663 0.301220 1.827715 0
M  V30 14 C 0.794739 0.598857 3.062357 0
M  V30 15 C -1.170226 0.968970 1.647801 0
M  V30 16 N -1.039080 2.314302 1.800273 0
M  V30 17 C -2.092510 3.142592 1.685915 0
M  V30 18 N -3.320025 2.648200 1.413392 0
M  V30 19 C -3.504143 1.324866 1.252987 0
M  V30 20 N -4.538277 0.506631 0.980972 0
M  V30 21 C -4.124669 -0.793880 0.929608 0
M  V30 22 C -2.747990 -0.825672 1.181437 0
M  V30 23 C -2.425902 0.476281 1.369683 0
M  V30 24 H 0.916666 -2.641801 3.520617 0
M  V30 25 H -0.532688 -1.810941 2.965632 0
M  V30 26 H -0.175327 -3.484639 2.418055 0
M  V30 27 H 0.989529 -2.716462 0.671879 0
M  V30 28 H 2.672408 -3.039821 2.387837 0
M  V30 29 H 2.974859 -1.286811 2.471152 0
M  V30 30 H 4.411061 -1.755461 0.778473 0
M  V30 31 H 3.336590 -3.091180 0.128014 0
M  V30 32 H 1.340011 -0.455925 -2.861051 0
M  V30 33 H 2.881434 0.476895 -2.884791 0
M  V30 34 H 1.829871 0.842902 -0.255054 0
M  V30 35 H 2.726648 0.323919 1.249141 0
M  V30 36 H 0.169328 -0.756839 -0.005880 0
M  V30 37 H 1.634229 1.316137 2.823569 0
M  V30 38 H 0.158301 1.179381 3.772688 0
M  V30 39 H 1.138226 -0.266723 3.618371 0
M  V30 40 H -2.043885 4.211164 1.795905 0
M  V30 41 H -5.526085 0.821029 0.828806 0
M  V30 42 H -4.741928 -1.664443 0.729918 0
M  V30 43 H -2.123564 -1.700353 1.207636 0
M  V30 END ATOM
M  V30 BEGIN BOND
M  V30 1 1 1 2
M  V30 2 1 2 3
M  V30 3 1 3 4
M  V30 4 1 4 5
M  V30 5 1 5 6
M  V30 6 2 6 7
M  V30 7 1 6 8
M  V30 8 1 8 9
M  V30 9 3 9 10
M  V30 10 1 5 11
M  V30 11 1 11 12
M  V30 12 1 12 13
M  V30 13 1 13 14
M  V30 14 1 13 15
M  V30 15 2 15 16
M  V30 16 1 16 17
M  V30 17 2 17 18
M  V30 18 1 18 19
M  V30 19 1 19 20
M  V30 20 1 20 21
M  V30 21 2 21 22
M  V30 22 1 22 23
M  V30 23 1 12 2
M  V30 24 1 23 15
M  V30 25 2 23 19
M  V30 26 1 1 24
M  V30 27 1 1 25
M  V30 28 1 1 26
M  V30 29 1 2 27 CFG=3
M  V30 30 1 3 28
M  V30 31 1 3 29
M  V30 32 1 4 30
M  V30 33 1 4 31
M  V30 34 1 8 32
M  V30 35 1 8 33
M  V30 36 1 11 34
M  V30 37 1 11 35
M  V30 38 1 12 36 CFG=3
M  V30 39 1 14 37
M  V30 40 1 14 38
M  V30 41 1 14 39
M  V30 42 1 17 40
M  V30 43 1 20 41
M  V30 44 1 21 42
M  V30 45 1 22 43
M  V30 END BOND
M  V30 END CTAB
M  END
>  <Dataset>  (87) 
PKIs

>  <Ligand_Instance>  (87) 
nan

>  <PDB_ID>  (87) 
nan

>  <Standardized_SMILES>  (87) 
C[C@@H]1CCN(C(=O)CC#N)C[C@@H]1N(C)c1ncnc2[nH]ccc12

>  <Name>  (87) 
Tofacitinib

>  <Pocket>  (87) 
nan

>  <ATP_Site>  (87) 
nan

>  <Peripheral>  (87) 
nan

>  <Num_H_Atoms_ProtBoundConf>  (87) 
nan

>  <Num_Resolved_Atoms>  (87) 
nan

>  <Num_Not_Resolved_Atoms>  (87) 
nan

$$$$
nan
     RDKit          3D

  0  0  0  0  0  0  0  0  0  0999 V3000
M  V30 BEGIN CTAB
M  V30 COUNTS 61 65 0 0 0
M  V30 BEGIN ATOM
M  V30 1 C 5.551937 -3.771430 1.765213 0
M  V30 2 O 4.943657 -2.538010 1.504408 0
M  V30 3 C 4.320962 -2.177156 0.337224 0
M  V30 4 C 4.237674 -3.055141 -0.751037 0
M  V30 5 C 3.604851 -2.661283 -1.908895 0
M  V30 6 N 3.479101 -3.428424 -3.020442 0
M  V30 7 C 2.852133 -2.956502 -4.114818 0
M  V30 8 C 2.307810 -1.662482 -4.146893 0
M  V30 9 C 2.418911 -0.841718 -3.014908 0
M  V30 10 O 1.812012 0.337829 -3.321284 0
M  V30 11 C 0.705356 0.802044 -2.653804 0
M  V30 12 C 0.379015 1.728388 -1.683687 0
M  V30 13 C -0.896428 1.940142 -1.225138 0
M  V30 14 C -1.896540 1.190130 -1.761768 0
M  V30 15 N -3.205640 1.466170 -1.212585 0
M  V30 16 C -3.285014 0.552220 -0.106985 0
M  V30 17 O -2.186262 -0.056184 -0.132233 0
M  V30 18 C -4.445698 0.439072 0.789931 0
M  V30 19 C -4.227021 -0.177658 2.114029 0
M  V30 20 O -5.230916 -0.295829 2.897022 0
M  V30 21 N -3.010311 -0.661528 2.625993 0
M  V30 22 C -2.552941 -1.274415 3.816237 0
M  V30 23 C -2.629809 -2.660910 3.738238 0
M  V30 24 C -2.226246 -3.450641 4.804542 0
M  V30 25 C -1.754810 -2.795660 5.922642 0
M  V30 26 F -1.320693 -3.441159 7.052637 0
M  V30 27 C -1.672730 -1.419571 6.015702 0
M  V30 28 C -2.078326 -0.641827 4.944348 0
M  V30 29 C -5.578461 1.395503 0.698909 0
M  V30 30 C -5.795455 0.037839 0.156639 0
M  V30 31 C -1.662563 0.238180 -2.740144 0
M  V30 32 C -0.342234 0.055202 -3.179118 0
M  V30 33 C 3.071204 -1.406234 -1.956261 0
M  V30 34 C 3.146204 -0.534724 -0.896929 0
M  V30 35 C 3.770195 -0.891614 0.277177 0
M  V30 36 O 3.874690 -0.050791 1.383200 0
M  V30 37 C 3.283546 1.242497 1.245064 0
M  V30 38 H 6.409217 -3.627009 2.464167 0
M  V30 39 H 5.912338 -4.301943 0.863094 0
M  V30 40 H 4.878276 -4.490566 2.312587 0
M  V30 41 H 4.653553 -4.036595 -0.714533 0
M  V30 42 H 2.840975 -3.692133 -4.905528 0
M  V30 43 H 1.858593 -1.515972 -5.130893 0
M  V30 44 H 1.303850 2.230405 -1.390046 0
M  V30 45 H -0.924053 2.701029 -0.474820 0
M  V30 46 H -4.011587 2.123411 -1.435452 0
M  V30 47 H -2.151172 -0.606802 2.075822 0
M  V30 48 H -2.991268 -3.233512 2.886681 0
M  V30 49 H -2.258538 -4.546234 4.811493 0
M  V30 50 H -1.310463 -0.873196 6.871757 0
M  V30 51 H -2.063399 0.441890 4.892628 0
M  V30 52 H -6.162825 1.595735 1.644327 0
M  V30 53 H -5.623715 2.229826 -0.001269 0
M  V30 54 H -6.389107 -0.740776 0.659386 0
M  V30 55 H -5.730009 -0.066964 -0.964645 0
M  V30 56 H -2.576297 -0.251455 -3.041484 0
M  V30 57 H -0.406870 -0.736440 -3.941774 0
M  V30 58 H 2.750995 0.463026 -0.898483 0
M  V30 59 H 3.279892 1.785920 2.202293 0
M  V30 60 H 3.725910 1.823579 0.416195 0
M  V30 61 H 2.196729 1.089833 0.971701 0
M  V30 END ATOM
M  V30 BEGIN BOND
M  V30 1 1 1 2
M  V30 2 1 2 3
M  V30 3 2 3 4
M  V30 4 1 4 5
M  V30 5 2 5 6
M  V30 6 1 6 7
M  V30 7 2 7 8
M  V30 8 1 8 9
M  V30 9 1 9 10
M  V30 10 1 10 11
M  V30 11 2 11 12
M  V30 12 1 12 13
M  V30 13 2 13 14
M  V30 14 1 14 15
M  V30 15 1 15 16
M  V30 16 2 16 17
M  V30 17 1 16 18
M  V30 18 1 18 19
M  V30 19 2 19 20
M  V30 20 1 19 21
M  V30 21 1 21 22
M  V30 22 2 22 23
M  V30 23 1 23 24
M  V30 24 2 24 25
M  V30 25 1 25 26
M  V30 26 1 25 27
M  V30 27 2 27 28
M  V30 28 1 18 29
M  V30 29 1 29 30
M  V30 30 1 14 31
M  V30 31 2 31 32
M  V30 32 2 9 33
M  V30 33 1 33 34
M  V30 34 2 34 35
M  V30 35 1 35 36
M  V30 36 1 36 37
M  V30 37 1 35 3
M  V30 38 1 33 5
M  V30 39 1 32 11
M  V30 40 1 30 18
M  V30 41 1 28 22
M  V30 42 1 1 38
M  V30 43 1 1 39
M  V30 44 1 1 40
M  V30 45 1 4 41
M  V30 46 1 7 42
M  V30 47 1 8 43
M  V30 48 1 12 44
M  V30 49 1 13 45
M  V30 50 1 15 46
M  V30 51 1 21 47
M  V30 52 1 23 48
M  V30 53 1 24 49
M  V30 54 1 27 50
M  V30 55 1 28 51
M  V30 56 1 29 52
M  V30 57 1 29 53
M  V30 58 1 30 54
M  V30 59 1 30 55
M  V30 60 1 31 56
M  V30 61 1 32 57
M  V30 62 1 34 58
M  V30 63 1 37 59
M  V30 64 1 37 60
M  V30 65 1 37 61
M  V30 END BOND
M  V30 END CTAB
M  END
>  <Dataset>  (88) 
PKIs

>  <Ligand_Instance>  (88) 
nan

>  <PDB_ID>  (88) 
nan

>  <Standardized_SMILES>  (88) 
COc1cc2nccc(Oc3ccc(NC(=O)C4(C(=O)Nc5ccc(F)cc5)CC4)cc3)c2cc1OC

>  <Name>  (88) 
Cabozantinib

>  <Pocket>  (88) 
nan

>  <ATP_Site>  (88) 
nan

>  <Peripheral>  (88) 
nan

>  <Num_H_Atoms_ProtBoundConf>  (88) 
nan

>  <Num_Resolved_Atoms>  (88) 
nan

>  <Num_Not_Resolved_Atoms>  (88) 
nan

$$$$
nan
     RDKit          3D

  0  0  0  0  0  0  0  0  0  0999 V3000
M  V30 BEGIN CTAB
M  V30 COUNTS 46 49 0 0 0
M  V30 BEGIN ATOM
M  V30 1 C 2.052638 0.191731 -1.326533 0
M  V30 2 N 2.536367 1.278925 -0.512884 0
M  V30 3 C 1.867821 2.323876 0.152905 0
M  V30 4 O 0.593324 2.387493 0.072788 0
M  V30 5 C 2.582619 3.352169 0.936687 0
M  V30 6 C 3.107897 4.307067 0.033191 0
M  V30 7 C 3.815353 5.270543 0.785211 0
M  V30 8 C 3.993424 5.326302 2.118341 0
M  V30 9 C 3.422824 4.322100 2.902718 0
M  V30 10 C 2.690910 3.299119 2.281542 0
M  V30 11 S 2.066558 2.113691 3.386971 0
M  V30 12 C 0.988945 0.885236 2.724305 0
M  V30 13 C 1.362458 -0.307916 2.136739 0
M  V30 14 C 0.442934 -1.254788 1.657561 0
M  V30 15 C -0.863513 -0.808902 1.865522 0
M  V30 16 C -1.927671 -1.590466 1.447723 0
M  V30 17 C -2.170753 -2.875752 0.829271 0
M  V30 18 C -3.151889 -3.574681 0.354608 0
M  V30 19 C -2.819052 -4.867703 -0.179195 0
M  V30 20 C -3.795161 -5.653036 -0.781850 0
M  V30 21 C -3.451404 -6.930658 -1.287346 0
M  V30 22 C -2.116160 -7.326239 -1.143263 0
M  V30 23 C -1.132742 -6.537436 -0.538432 0
M  V30 24 N -1.621730 -5.410969 -0.137396 0
M  V30 25 N -3.054733 -0.879572 1.773746 0
M  V30 26 N -2.670768 0.241833 2.344705 0
M  V30 27 C -1.349062 0.335145 2.426745 0
M  V30 28 C -0.366545 1.229114 2.880098 0
M  V30 29 H 1.886267 -0.734283 -0.743195 0
M  V30 30 H 2.823892 -0.107729 -2.093482 0
M  V30 31 H 1.114568 0.446847 -1.858411 0
M  V30 32 H 3.583794 1.304928 -0.385534 0
M  V30 33 H 2.993248 4.308780 -1.024668 0
M  V30 34 H 4.278216 6.073103 0.171298 0
M  V30 35 H 4.560093 6.117918 2.584322 0
M  V30 36 H 3.593008 4.411088 3.962526 0
M  V30 37 H 2.411575 -0.402056 2.098842 0
M  V30 38 H 0.776417 -2.162015 1.214273 0
M  V30 39 H -1.161982 -3.345007 0.798854 0
M  V30 40 H -4.030260 -3.008865 0.478707 0
M  V30 41 H -4.780746 -5.211802 -0.828875 0
M  V30 42 H -4.219124 -7.529311 -1.750000 0
M  V30 43 H -1.812353 -8.305242 -1.522801 0
M  V30 44 H -0.118619 -6.868072 -0.444050 0
M  V30 45 H -3.302862 0.993760 2.709526 0
M  V30 46 H -0.739724 2.125264 3.316092 0
M  V30 END ATOM
M  V30 BEGIN BOND
M  V30 1 1 1 2
M  V30 2 1 2 3
M  V30 3 2 3 4
M  V30 4 1 3 5
M  V30 5 2 5 6
M  V30 6 1 6 7
M  V30 7 2 7 8
M  V30 8 1 8 9
M  V30 9 2 9 10
M  V30 10 1 10 11
M  V30 11 1 11 12
M  V30 12 2 12 13
M  V30 13 1 13 14
M  V30 14 2 14 15
M  V30 15 1 15 16
M  V30 16 1 16 17
M  V30 17 2 17 18
M  V30 18 1 18 19
M  V30 19 2 19 20
M  V30 20 1 20 21
M  V30 21 2 21 22
M  V30 22 1 22 23
M  V30 23 2 23 24
M  V30 24 2 16 25
M  V30 25 1 25 26
M  V30 26 1 26 27
M  V30 27 2 27 28
M  V30 28 1 10 5
M  V30 29 1 28 12
M  V30 30 1 27 15
M  V30 31 1 24 19
M  V30 32 1 1 29
M  V30 33 1 1 30
M  V30 34 1 1 31
M  V30 35 1 2 32
M  V30 36 1 6 33
M  V30 37 1 7 34
M  V30 38 1 8 35
M  V30 39 1 9 36
M  V30 40 1 13 37
M  V30 41 1 14 38
M  V30 42 1 17 39
M  V30 43 1 18 40
M  V30 44 1 20 41
M  V30 45 1 21 42
M  V30 46 1 22 43
M  V30 47 1 23 44
M  V30 48 1 26 45
M  V30 49 1 28 46
M  V30 END BOND
M  V30 END CTAB
M  END
>  <Dataset>  (89) 
PKIs

>  <Ligand_Instance>  (89) 
nan

>  <PDB_ID>  (89) 
nan

>  <Standardized_SMILES>  (89) 
CNC(=O)c1ccccc1Sc1ccc2c(/C=C/c3ccccn3)n[nH]c2c1

>  <Name>  (89) 
Axitinib

>  <Pocket>  (89) 
nan

>  <ATP_Site>  (89) 
nan

>  <Peripheral>  (89) 
nan

>  <Num_H_Atoms_ProtBoundConf>  (89) 
nan

>  <Num_Resolved_Atoms>  (89) 
nan

>  <Num_Not_Resolved_Atoms>  (89) 
nan

$$$$
nan
     RDKit          3D

  0  0  0  0  0  0  0  0  0  0999 V3000
M  V30 BEGIN CTAB
M  V30 COUNTS 66 70 0 0 0
M  V30 BEGIN ATOM
M  V30 1 C 4.824860 -2.637244 5.689628 0
M  V30 2 C 3.821307 -2.722073 4.597821 0
M  V30 3 C 3.811123 -3.820199 3.762747 0
M  V30 4 C 2.849862 -3.859842 2.748109 0
M  V30 5 C 1.918282 -2.869153 2.537296 0
M  V30 6 C 0.958523 -2.988652 1.459554 0
M  V30 7 O 1.090274 -4.016434 0.771610 0
M  V30 8 N -0.056317 -2.065341 1.160920 0
M  V30 9 C -1.017770 -2.124834 0.127437 0
M  V30 10 C -1.159050 -3.090072 -0.826635 0
M  V30 11 C -2.156519 -3.001076 -1.772471 0
M  V30 12 C -3.094863 -1.953855 -1.853824 0
M  V30 13 C -4.000202 -2.095998 -2.984972 0
M  V30 14 N -3.668496 -1.572187 -4.236039 0
M  V30 15 C -3.457184 -0.237474 -4.482228 0
M  V30 16 C -3.193884 0.181978 -5.896989 0
M  V30 17 N -2.513011 -0.823269 -6.678307 0
M  V30 18 C -2.411188 -0.373740 -8.042099 0
M  V30 19 C -3.348408 -2.027930 -6.571304 0
M  V30 20 C -3.127640 -2.526854 -5.168343 0
M  V30 21 C -2.926134 -0.998642 -0.877325 0
M  V30 22 C -3.887934 0.111857 -0.862701 0
M  V30 23 F -5.219458 -0.344885 -0.800151 0
M  V30 24 F -3.755802 0.679443 0.448925 0
M  V30 25 F -3.703498 1.133391 -1.710509 0
M  V30 26 C -1.925458 -1.099080 0.061237 0
M  V30 27 C 2.005439 -1.818331 3.415254 0
M  V30 28 C 2.915892 -1.691422 4.443571 0
M  V30 29 C 2.904488 -0.525083 5.304103 0
M  V30 30 C 2.900799 0.457588 6.004553 0
M  V30 31 C 2.918414 1.623598 6.848254 0
M  V30 32 C 2.729951 1.743725 8.209330 0
M  V30 33 N 2.844874 3.064919 8.532046 0
M  V30 34 C 3.100666 3.767037 7.399753 0
M  V30 35 C 3.297965 5.125320 7.205227 0
M  V30 36 C 3.548019 5.568140 5.901029 0
M  V30 37 C 3.582154 4.619631 4.890108 0
M  V30 38 N 3.379946 3.316690 5.162569 0
M  V30 39 N 3.142755 2.883425 6.388537 0
M  V30 40 H 5.423679 -1.716961 5.682626 0
M  V30 41 H 4.242699 -2.671313 6.652277 0
M  V30 42 H 5.516534 -3.522078 5.643007 0
M  V30 43 H 4.534232 -4.612169 3.911194 0
M  V30 44 H 2.901460 -4.740624 2.139276 0
M  V30 45 H -0.032227 -1.265192 1.827625 0
M  V30 46 H -0.474122 -3.920319 -0.824713 0
M  V30 47 H -2.158324 -3.832169 -2.474623 0
M  V30 48 H -5.030974 -1.670936 -2.723340 0
M  V30 49 H -4.220670 -3.202446 -3.119212 0
M  V30 50 H -2.588027 0.123527 -3.871900 0
M  V30 51 H -4.334855 0.353294 -4.151505 0
M  V30 52 H -4.127358 0.446064 -6.433619 0
M  V30 53 H -2.556942 1.095164 -5.909693 0
M  V30 54 H -2.870262 -1.130404 -8.736178 0
M  V30 55 H -2.799821 0.644495 -8.214132 0
M  V30 56 H -1.331682 -0.356584 -8.307135 0
M  V30 57 H -4.415106 -1.708427 -6.646407 0
M  V30 58 H -3.075202 -2.775754 -7.340195 0
M  V30 59 H -2.013541 -2.652743 -5.055611 0
M  V30 60 H -3.663020 -3.488326 -5.007366 0
M  V30 61 H -1.875343 -0.283047 0.794100 0
M  V30 62 H 1.308500 -0.998087 3.317434 0
M  V30 63 H 2.527444 0.897891 8.863970 0
M  V30 64 H 3.262428 5.844332 8.022142 0
M  V30 65 H 3.707546 6.632476 5.714596 0
M  V30 66 H 3.776959 4.942963 3.858895 0
M  V30 END ATOM
M  V30 BEGIN BOND
M  V30 1 1 1 2
M  V30 2 2 2 3
M  V30 3 1 3 4
M  V30 4 2 4 5
M  V30 5 1 5 6
M  V30 6 2 6 7
M  V30 7 1 6 8
M  V30 8 1 8 9
M  V30 9 2 9 10
M  V30 10 1 10 11
M  V30 11 2 11 12
M  V30 12 1 12 13
M  V30 13 1 13 14
M  V30 14 1 14 15
M  V30 15 1 15 16
M  V30 16 1 16 17
M  V30 17 1 17 18
M  V30 18 1 17 19
M  V30 19 1 19 20
M  V30 20 1 12 21
M  V30 21 1 21 22
M  V30 22 1 22 23
M  V30 23 1 22 24
M  V30 24 1 22 25
M  V30 25 2 21 26
M  V30 26 1 5 27
M  V30 27 2 27 28
M  V30 28 1 28 29
M  V30 29 3 29 30
M  V30 30 1 30 31
M  V30 31 2 31 32
M  V30 32 1 32 33
M  V30 33 2 33 34
M  V30 34 1 34 35
M  V30 35 2 35 36
M  V30 36 1 36 37
M  V30 37 2 37 38
M  V30 38 1 38 39
M  V30 39 1 28 2
M  V30 40 1 39 31
M  V30 41 1 26 9
M  V30 42 1 39 34
M  V30 43 1 20 14
M  V30 44 1 1 40
M  V30 45 1 1 41
M  V30 46 1 1 42
M  V30 47 1 3 43
M  V30 48 1 4 44
M  V30 49 1 8 45
M  V30 50 1 10 46
M  V30 51 1 11 47
M  V30 52 1 13 48
M  V30 53 1 13 49
M  V30 54 1 15 50
M  V30 55 1 15 51
M  V30 56 1 16 52
M  V30 57 1 16 53
M  V30 58 1 18 54
M  V30 59 1 18 55
M  V30 60 1 18 56
M  V30 61 1 19 57
M  V30 62 1 19 58
M  V30 63 1 20 59
M  V30 64 1 20 60
M  V30 65 1 26 61
M  V30 66 1 27 62
M  V30 67 1 32 63
M  V30 68 1 35 64
M  V30 69 1 36 65
M  V30 70 1 37 66
M  V30 END BOND
M  V30 END CTAB
M  END
>  <Dataset>  (90) 
PKIs

>  <Ligand_Instance>  (90) 
nan

>  <PDB_ID>  (90) 
nan

>  <Standardized_SMILES>  (90) 
Cc1ccc(C(=O)Nc2ccc(CN3CCN(C)CC3)c(C(F)(F)F)c2)cc1C#Cc1cnc2cccnn12

>  <Name>  (90) 
Ponatinib

>  <Pocket>  (90) 
nan

>  <ATP_Site>  (90) 
nan

>  <Peripheral>  (90) 
nan

>  <Num_H_Atoms_ProtBoundConf>  (90) 
nan

>  <Num_Resolved_Atoms>  (90) 
nan

>  <Num_Not_Resolved_Atoms>  (90) 
nan

$$$$
nan
     RDKit          3D

  0  0  0  0  0  0  0  0  0  0999 V3000
M  V30 BEGIN CTAB
M  V30 COUNTS 48 50 0 0 0
M  V30 BEGIN ATOM
M  V30 1 C -0.163879 -3.791208 -3.008761 0
M  V30 2 N 0.632239 -2.810986 -3.722065 0
M  V30 3 C 0.877936 -1.671632 -2.890175 0
M  V30 4 O 0.347869 -1.795110 -1.749999 0
M  V30 5 C 1.650322 -0.508507 -3.315553 0
M  V30 6 C 1.786176 0.496152 -2.384500 0
M  V30 7 C 2.506395 1.618677 -2.733378 0
M  V30 8 O 2.629288 2.630764 -1.761308 0
M  V30 9 C 2.024790 2.459408 -0.499465 0
M  V30 10 C 2.610152 1.880051 0.610636 0
M  V30 11 C 1.874938 1.789092 1.777835 0
M  V30 12 C 0.572490 2.273972 1.824173 0
M  V30 13 N -0.006726 2.080100 3.126110 0
M  V30 14 C -0.680733 0.814120 3.230369 0
M  V30 15 O -0.745006 -0.011571 2.284394 0
M  V30 16 N -1.344067 0.362169 4.409596 0
M  V30 17 C -1.990362 -0.924414 4.411061 0
M  V30 18 C -3.328647 -0.921838 4.015649 0
M  V30 19 C -4.018051 -2.131869 3.992947 0
M  V30 20 C -3.413617 -3.340892 4.352002 0
M  V30 21 Cl -4.299144 -4.851877 4.316378 0
M  V30 22 C -2.078480 -3.297216 4.739575 0
M  V30 23 C -1.362786 -4.526672 5.134528 0
M  V30 24 F -0.048478 -4.301457 5.488829 0
M  V30 25 F -2.106263 -5.096455 6.157168 0
M  V30 26 F -1.444472 -5.417256 4.071980 0
M  V30 27 C -1.369914 -2.114032 4.771944 0
M  V30 28 C -0.012262 2.852862 0.714801 0
M  V30 29 F -1.274507 3.276576 0.904272 0
M  V30 30 C 0.727662 2.940886 -0.448866 0
M  V30 31 C 3.107248 1.825164 -3.942192 0
M  V30 32 C 2.924336 0.761646 -4.832244 0
M  V30 33 N 2.218829 -0.366248 -4.526067 0
M  V30 34 H -1.111276 -3.356290 -2.616486 0
M  V30 35 H 0.461970 -4.157522 -2.165082 0
M  V30 36 H -0.392304 -4.665446 -3.644813 0
M  V30 37 H 1.036664 -2.804197 -4.701884 0
M  V30 38 H 1.333814 0.410901 -1.386172 0
M  V30 39 H 3.625720 1.532637 0.478549 0
M  V30 40 H 2.418578 1.321924 2.586990 0
M  V30 41 H -0.024025 2.688182 3.997389 0
M  V30 42 H -1.336962 1.002817 5.259108 0
M  V30 43 H -3.865003 -0.038508 3.725350 0
M  V30 44 H -5.074279 -2.150091 3.683898 0
M  V30 45 H -0.328518 -2.029106 5.066650 0
M  V30 46 H 0.181169 3.409736 -1.259850 0
M  V30 47 H 3.663765 2.684843 -4.221441 0
M  V30 48 H 3.351436 0.800507 -5.827155 0
M  V30 END ATOM
M  V30 BEGIN BOND
M  V30 1 1 1 2
M  V30 2 1 2 3
M  V30 3 2 3 4
M  V30 4 1 3 5
M  V30 5 2 5 6
M  V30 6 1 6 7
M  V30 7 1 7 8
M  V30 8 1 8 9
M  V30 9 2 9 10
M  V30 10 1 10 11
M  V30 11 2 11 12
M  V30 12 1 12 13
M  V30 13 1 13 14
M  V30 14 2 14 15
M  V30 15 1 14 16
M  V30 16 1 16 17
M  V30 17 2 17 18
M  V30 18 1 18 19
M  V30 19 2 19 20
M  V30 20 1 20 21
M  V30 21 1 20 22
M  V30 22 1 22 23
M  V30 23 1 23 24
M  V30 24 1 23 25
M  V30 25 1 23 26
M  V30 26 2 22 27
M  V30 27 1 12 28
M  V30 28 1 28 29
M  V30 29 2 28 30
M  V30 30 2 7 31
M  V30 31 1 31 32
M  V30 32 2 32 33
M  V30 33 1 33 5
M  V30 34 1 30 9
M  V30 35 1 27 17
M  V30 36 1 1 34
M  V30 37 1 1 35
M  V30 38 1 1 36
M  V30 39 1 2 37
M  V30 40 1 6 38
M  V30 41 1 10 39
M  V30 42 1 11 40
M  V30 43 1 13 41
M  V30 44 1 16 42
M  V30 45 1 18 43
M  V30 46 1 19 44
M  V30 47 1 27 45
M  V30 48 1 30 46
M  V30 49 1 31 47
M  V30 50 1 32 48
M  V30 END BOND
M  V30 END CTAB
M  END
>  <Dataset>  (91) 
PKIs

>  <Ligand_Instance>  (91) 
nan

>  <PDB_ID>  (91) 
nan

>  <Standardized_SMILES>  (91) 
CNC(=O)c1cc(Oc2ccc(NC(=O)Nc3ccc(Cl)c(C(F)(F)F)c3)c(F)c2)ccn1

>  <Name>  (91) 
Regorafenib

>  <Pocket>  (91) 
nan

>  <ATP_Site>  (91) 
nan

>  <Peripheral>  (91) 
nan

>  <Num_H_Atoms_ProtBoundConf>  (91) 
nan

>  <Num_Resolved_Atoms>  (91) 
nan

>  <Num_Not_Resolved_Atoms>  (91) 
nan

$$$$
nan
     RDKit          3D

  0  0  0  0  0  0  0  0  0  0999 V3000
M  V30 BEGIN CTAB
M  V30 COUNTS 65 68 0 0 0
M  V30 BEGIN ATOM
M  V30 1 C 7.709231 -0.834657 4.290834 0
M  V30 2 O 7.703872 -1.998395 3.482948 0
M  V30 3 C 6.662903 -2.202287 2.590094 0
M  V30 4 C 5.675000 -1.274395 2.496823 0
M  V30 5 C 4.564053 -1.281555 1.693903 0
M  V30 6 N 3.513374 -0.455363 1.412328 0
M  V30 7 C 2.472693 0.370830 1.078095 0
M  V30 8 C 2.937812 1.469977 0.350701 0
M  V30 9 C 4.343298 1.726356 0.006166 0
M  V30 10 N 5.431740 1.910319 -0.274734 0
M  V30 11 C 2.038800 2.416278 -0.102240 0
M  V30 12 N 0.753622 2.255070 0.173382 0
M  V30 13 C 0.298021 1.220088 0.867896 0
M  V30 14 C -1.020947 1.043816 1.215040 0
M  V30 15 C -1.510240 -0.016076 1.981419 0
M  V30 16 O -2.814775 -0.222314 2.347514 0
M  V30 17 C -3.839866 0.612303 1.873848 0
M  V30 18 C -4.017018 0.322766 0.400831 0
M  V30 19 C -5.054616 1.187818 -0.275471 0
M  V30 20 N -5.166677 0.764133 -1.629164 0
M  V30 21 C -4.075927 1.017644 -2.500446 0
M  V30 22 C -4.429338 0.314540 -3.818639 0
M  V30 23 N -4.245881 -1.089816 -3.618031 0
M  V30 24 C -4.716823 -1.841207 -4.738160 0
M  V30 25 C -4.847584 -1.521471 -2.366401 0
M  V30 26 C -5.807054 -0.501081 -1.814037 0
M  V30 27 C -0.574896 -0.968439 2.424060 0
M  V30 28 O -1.013469 -2.007743 3.169276 0
M  V30 29 C -0.382865 -3.086301 3.747301 0
M  V30 30 C 0.784479 -0.854886 2.108391 0
M  V30 31 C 1.128786 0.237571 1.346724 0
M  V30 32 C 4.469940 -2.420270 0.864803 0
M  V30 33 Cl 3.179482 -2.763787 -0.289213 0
M  V30 34 C 5.402857 -3.410485 0.874521 0
M  V30 35 C 6.477067 -3.257579 1.750862 0
M  V30 36 Cl 7.717715 -4.498333 1.803820 0
M  V30 37 H 6.694418 -0.744295 4.777192 0
M  V30 38 H 8.008380 0.089647 3.785721 0
M  V30 39 H 8.434465 -1.022294 5.127375 0
M  V30 40 H 5.657996 -0.346716 3.091088 0
M  V30 41 H 3.287067 -0.453327 2.466359 0
M  V30 42 H 2.261997 3.311936 -0.670080 0
M  V30 43 H -1.703300 1.824467 0.867392 0
M  V30 44 H -3.508029 1.687010 2.017197 0
M  V30 45 H -4.755559 0.517624 2.455233 0
M  V30 46 H -4.411588 -0.765711 0.394612 0
M  V30 47 H -3.073957 0.331266 -0.107849 0
M  V30 48 H -4.650982 2.245189 -0.276961 0
M  V30 49 H -5.997941 1.244624 0.264604 0
M  V30 50 H -3.911996 2.093484 -2.644507 0
M  V30 51 H -3.167222 0.527594 -2.108631 0
M  V30 52 H -3.814832 0.699238 -4.644198 0
M  V30 53 H -5.519594 0.496779 -3.970923 0
M  V30 54 H -5.825138 -1.888687 -4.702335 0
M  V30 55 H -4.425554 -1.308533 -5.674595 0
M  V30 56 H -4.264529 -2.860333 -4.785363 0
M  V30 57 H -4.005593 -1.696932 -1.681293 0
M  V30 58 H -5.380598 -2.496608 -2.494479 0
M  V30 59 H -6.696622 -0.499202 -2.455221 0
M  V30 60 H -6.146503 -0.868979 -0.824033 0
M  V30 61 H 0.604946 -2.762039 4.139040 0
M  V30 62 H -0.143847 -3.912423 3.015355 0
M  V30 63 H -0.907188 -3.524484 4.621916 0
M  V30 64 H 1.511922 -1.564944 2.424323 0
M  V30 65 H 5.421551 -4.324225 0.272805 0
M  V30 END ATOM
M  V30 BEGIN BOND
M  V30 1 1 1 2
M  V30 2 1 2 3
M  V30 3 2 3 4
M  V30 4 1 4 5
M  V30 5 1 5 6
M  V30 6 1 6 7
M  V30 7 2 7 8
M  V30 8 1 8 9
M  V30 9 3 9 10
M  V30 10 1 8 11
M  V30 11 2 11 12
M  V30 12 1 12 13
M  V30 13 2 13 14
M  V30 14 1 14 15
M  V30 15 1 15 16
M  V30 16 1 16 17
M  V30 17 1 17 18
M  V30 18 1 18 19
M  V30 19 1 19 20
M  V30 20 1 20 21
M  V30 21 1 21 22
M  V30 22 1 22 23
M  V30 23 1 23 24
M  V30 24 1 23 25
M  V30 25 1 25 26
M  V30 26 2 15 27
M  V30 27 1 27 28
M  V30 28 1 28 29
M  V30 29 1 27 30
M  V30 30 2 30 31
M  V30 31 2 5 32
M  V30 32 1 32 33
M  V30 33 1 32 34
M  V30 34 2 34 35
M  V30 35 1 35 36
M  V30 36 1 35 3
M  V30 37 1 31 7
M  V30 38 1 31 13
M  V30 39 1 26 20
M  V30 40 1 1 37
M  V30 41 1 1 38
M  V30 42 1 1 39
M  V30 43 1 4 40
M  V30 44 1 6 41
M  V30 45 1 11 42
M  V30 46 1 14 43
M  V30 47 1 17 44
M  V30 48 1 17 45
M  V30 49 1 18 46
M  V30 50 1 18 47
M  V30 51 1 19 48
M  V30 52 1 19 49
M  V30 53 1 21 50
M  V30 54 1 21 51
M  V30 55 1 22 52
M  V30 56 1 22 53
M  V30 57 1 24 54
M  V30 58 1 24 55
M  V30 59 1 24 56
M  V30 60 1 25 57
M  V30 61 1 25 58
M  V30 62 1 26 59
M  V30 63 1 26 60
M  V30 64 1 29 61
M  V30 65 1 29 62
M  V30 66 1 29 63
M  V30 67 1 30 64
M  V30 68 1 34 65
M  V30 END BOND
M  V30 END CTAB
M  END
>  <Dataset>  (92) 
PKIs

>  <Ligand_Instance>  (92) 
nan

>  <PDB_ID>  (92) 
nan

>  <Standardized_SMILES>  (92) 
COc1cc(Nc2c(C#N)cnc3cc(OCCCN4CCN(C)CC4)c(OC)cc23)c(Cl)cc1Cl

>  <Name>  (92) 
Bosutinib

>  <Pocket>  (92) 
nan

>  <ATP_Site>  (92) 
nan

>  <Peripheral>  (92) 
nan

>  <Num_H_Atoms_ProtBoundConf>  (92) 
nan

>  <Num_Resolved_Atoms>  (92) 
nan

>  <Num_Not_Resolved_Atoms>  (92) 
nan

$$$$
nan
     RDKit          3D

  0  0  0  0  0  0  0  0  0  0999 V3000
M  V30 BEGIN CTAB
M  V30 COUNTS 54 57 0 0 0
M  V30 BEGIN ATOM
M  V30 1 C -2.167684 1.928517 1.649915 0
M  V30 2 O -1.657049 0.643470 1.767231 0
M  V30 3 C -0.365470 0.221433 1.869512 0
M  V30 4 C 0.768257 1.024799 1.876491 0
M  V30 5 C 1.988171 0.395804 1.984479 0
M  V30 6 C 3.136062 1.132464 1.982516 0
M  V30 7 N 3.029965 2.544443 1.889535 0
M  V30 8 C 2.869090 3.270836 0.681264 0
M  V30 9 C 2.787144 2.614627 -0.526717 0
M  V30 10 C 2.630150 3.379770 -1.652805 0
M  V30 11 C 2.554904 4.750976 -1.604523 0
M  V30 12 Br 2.332998 5.851754 -3.137391 0
M  V30 13 C 2.636997 5.410066 -0.399658 0
M  V30 14 C 2.795397 4.635130 0.736616 0
M  V30 15 F 2.880976 5.265889 1.948573 0
M  V30 16 N 4.366956 0.567227 2.074857 0
M  V30 17 C 4.509643 -0.770407 2.174616 0
M  V30 18 N 3.388848 -1.513398 2.177533 0
M  V30 19 C 2.164021 -0.974459 2.086456 0
M  V30 20 C 1.011843 -1.765236 2.078987 0
M  V30 21 C -0.256486 -1.179091 1.970526 0
M  V30 22 O -1.276681 -1.940368 1.964936 0
M  V30 23 C -2.319138 -2.728510 1.959886 0
M  V30 24 C -2.197671 -3.682191 0.746113 0
M  V30 25 C -3.368501 -4.591374 0.697891 0
M  V30 26 C -3.470171 -5.344908 -0.597336 0
M  V30 27 N -2.737479 -4.805845 -1.688090 0
M  V30 28 C -1.619059 -5.573021 -2.146344 0
M  V30 29 C -2.580022 -3.387429 -1.719433 0
M  V30 30 C -1.995985 -2.822083 -0.452995 0
M  V30 31 H -2.247127 2.396152 2.646472 0
M  V30 32 H -1.579386 2.554278 0.923370 0
M  V30 33 H -3.223329 1.930338 1.257826 0
M  V30 34 H 0.629011 2.087946 1.795214 0
M  V30 35 H 3.083015 3.014516 2.813936 0
M  V30 36 H 2.847120 1.530817 -0.578282 0
M  V30 37 H 2.556058 2.940475 -2.616097 0
M  V30 38 H 2.585368 6.479376 -0.281256 0
M  V30 39 H 5.468630 -1.262635 2.247994 0
M  V30 40 H 1.112554 -2.842703 2.158409 0
M  V30 41 H -3.303876 -2.183446 1.832703 0
M  V30 42 H -2.425742 -3.386035 2.875559 0
M  V30 43 H -1.304794 -4.297079 1.008908 0
M  V30 44 H -3.271500 -5.344028 1.518670 0
M  V30 45 H -4.310327 -4.030618 0.939607 0
M  V30 46 H -3.206139 -6.415327 -0.507560 0
M  V30 47 H -4.559679 -5.319881 -0.896249 0
M  V30 48 H -0.646345 -5.119126 -1.954226 0
M  V30 49 H -1.709805 -5.732402 -3.244763 0
M  V30 50 H -1.677660 -6.582816 -1.664875 0
M  V30 51 H -3.560895 -2.902236 -1.898282 0
M  V30 52 H -1.919683 -3.126512 -2.551723 0
M  V30 53 H -2.400199 -1.808685 -0.257544 0
M  V30 54 H -0.884339 -2.662707 -0.551751 0
M  V30 END ATOM
M  V30 BEGIN BOND
M  V30 1 1 1 2
M  V30 2 1 2 3
M  V30 3 2 3 4
M  V30 4 1 4 5
M  V30 5 2 5 6
M  V30 6 1 6 7
M  V30 7 1 7 8
M  V30 8 2 8 9
M  V30 9 1 9 10
M  V30 10 2 10 11
M  V30 11 1 11 12
M  V30 12 1 11 13
M  V30 13 2 13 14
M  V30 14 1 14 15
M  V30 15 1 6 16
M  V30 16 2 16 17
M  V30 17 1 17 18
M  V30 18 2 18 19
M  V30 19 1 19 20
M  V30 20 2 20 21
M  V30 21 1 21 22
M  V30 22 1 22 23
M  V30 23 1 23 24
M  V30 24 1 24 25
M  V30 25 1 25 26
M  V30 26 1 26 27
M  V30 27 1 27 28
M  V30 28 1 27 29
M  V30 29 1 29 30
M  V30 30 1 21 3
M  V30 31 1 30 24
M  V30 32 1 19 5
M  V30 33 1 14 8
M  V30 34 1 1 31
M  V30 35 1 1 32
M  V30 36 1 1 33
M  V30 37 1 4 34
M  V30 38 1 7 35
M  V30 39 1 9 36
M  V30 40 1 10 37
M  V30 41 1 13 38
M  V30 42 1 17 39
M  V30 43 1 20 40
M  V30 44 1 23 41
M  V30 45 1 23 42
M  V30 46 1 24 43
M  V30 47 1 25 44
M  V30 48 1 25 45
M  V30 49 1 26 46
M  V30 50 1 26 47
M  V30 51 1 28 48
M  V30 52 1 28 49
M  V30 53 1 28 50
M  V30 54 1 29 51
M  V30 55 1 29 52
M  V30 56 1 30 53
M  V30 57 1 30 54
M  V30 END BOND
M  V30 END CTAB
M  END
>  <Dataset>  (93) 
PKIs

>  <Ligand_Instance>  (93) 
nan

>  <PDB_ID>  (93) 
nan

>  <Standardized_SMILES>  (93) 
COc1cc2c(Nc3ccc(Br)cc3F)ncnc2cc1OCC1CCN(C)CC1

>  <Name>  (93) 
Vandetanib

>  <Pocket>  (93) 
nan

>  <ATP_Site>  (93) 
nan

>  <Peripheral>  (93) 
nan

>  <Num_H_Atoms_ProtBoundConf>  (93) 
nan

>  <Num_Resolved_Atoms>  (93) 
nan

>  <Num_Not_Resolved_Atoms>  (93) 
nan

$$$$
nan
     RDKit          3D

  0  0  0  0  0  0  0  0  0  0999 V3000
M  V30 BEGIN CTAB
M  V30 COUNTS 50 53 0 0 0
M  V30 BEGIN ATOM
M  V30 1 C 7.057430 -2.368551 2.686684 0
M  V30 2 C 6.333440 -1.950618 1.819405 0
M  V30 3 C 5.462712 -1.437987 0.792049 0
M  V30 4 C 5.387852 -2.034889 -0.456232 0
M  V30 5 C 4.569167 -1.585729 -1.472289 0
M  V30 6 C 3.763676 -0.468060 -1.248566 0
M  V30 7 C 3.862105 0.102093 0.003435 0
M  V30 8 N 3.052593 1.253952 0.275669 0
M  V30 9 C 2.116787 1.814862 -0.638252 0
M  V30 10 N 2.369617 2.748986 -1.600601 0
M  V30 11 C 1.367775 3.182553 -2.387789 0
M  V30 12 N 0.084184 2.727292 -2.271594 0
M  V30 13 C -0.162421 1.800335 -1.315152 0
M  V30 14 C -1.474221 1.381595 -1.244246 0
M  V30 15 C -1.779948 0.440703 -0.285940 0
M  V30 16 C -0.807676 -0.087296 0.598107 0
M  V30 17 C 0.483918 0.383205 0.462900 0
M  V30 18 C 0.830336 1.325499 -0.484882 0
M  V30 19 O -1.260482 -0.979324 1.460127 0
M  V30 20 C -1.003507 -1.929635 2.341089 0
M  V30 21 C -2.211618 -2.572718 3.017365 0
M  V30 22 O -2.973247 -1.703294 3.695930 0
M  V30 23 C -3.737871 -0.757683 3.092928 0
M  V30 24 C -4.934165 -1.242082 2.335187 0
M  V30 25 O -4.961682 -2.033982 1.329067 0
M  V30 26 C -4.653161 -1.901598 0.071791 0
M  V30 27 C -3.314360 -1.458553 -0.425029 0
M  V30 28 O -3.030386 -0.170327 0.016287 0
M  V30 29 C 4.667620 -0.323567 1.033022 0
M  V30 30 H 7.697600 -2.755728 3.462474 0
M  V30 31 H 6.007868 -2.914164 -0.664139 0
M  V30 32 H 4.519672 -2.061079 -2.444703 0
M  V30 33 H 3.094012 -0.045850 -1.981320 0
M  V30 34 H 3.073684 1.785157 1.162028 0
M  V30 35 H 1.641678 3.930632 -3.136482 0
M  V30 36 H -2.323752 1.673833 -1.827094 0
M  V30 37 H 1.223880 -0.005814 1.121105 0
M  V30 38 H -0.324633 -2.761145 1.987144 0
M  V30 39 H -0.413201 -1.501604 3.211023 0
M  V30 40 H -2.754645 -3.165378 2.246716 0
M  V30 41 H -1.804783 -3.320422 3.727963 0
M  V30 42 H -3.177912 0.052926 2.599093 0
M  V30 43 H -4.209899 -0.181457 3.983764 0
M  V30 44 H -5.450249 -0.241508 2.025971 0
M  V30 45 H -5.725904 -1.602380 3.120822 0
M  V30 46 H -5.387394 -1.217794 -0.508632 0
M  V30 47 H -4.818260 -2.939194 -0.439010 0
M  V30 48 H -3.255714 -1.530411 -1.551811 0
M  V30 49 H -2.497476 -2.176494 -0.108294 0
M  V30 50 H 4.682483 0.181252 1.982175 0
M  V30 END ATOM
M  V30 BEGIN BOND
M  V30 1 3 1 2
M  V30 2 1 2 3
M  V30 3 2 3 4
M  V30 4 1 4 5
M  V30 5 2 5 6
M  V30 6 1 6 7
M  V30 7 1 7 8
M  V30 8 1 8 9
M  V30 9 2 9 10
M  V30 10 1 10 11
M  V30 11 2 11 12
M  V30 12 1 12 13
M  V30 13 2 13 14
M  V30 14 1 14 15
M  V30 15 2 15 16
M  V30 16 1 16 17
M  V30 17 2 17 18
M  V30 18 1 16 19
M  V30 19 1 19 20
M  V30 20 1 20 21
M  V30 21 1 21 22
M  V30 22 1 22 23
M  V30 23 1 23 24
M  V30 24 1 24 25
M  V30 25 1 25 26
M  V30 26 1 26 27
M  V30 27 1 27 28
M  V30 28 2 7 29
M  V30 29 1 29 3
M  V30 30 1 18 9
M  V30 31 1 18 13
M  V30 32 1 28 15
M  V30 33 1 1 30
M  V30 34 1 4 31
M  V30 35 1 5 32
M  V30 36 1 6 33
M  V30 37 1 8 34
M  V30 38 1 11 35
M  V30 39 1 14 36
M  V30 40 1 17 37
M  V30 41 1 20 38
M  V30 42 1 20 39
M  V30 43 1 21 40
M  V30 44 1 21 41
M  V30 45 1 23 42
M  V30 46 1 23 43
M  V30 47 1 24 44
M  V30 48 1 24 45
M  V30 49 1 26 46
M  V30 50 1 26 47
M  V30 51 1 27 48
M  V30 52 1 27 49
M  V30 53 1 29 50
M  V30 END BOND
M  V30 END CTAB
M  END
>  <Dataset>  (94) 
PKIs

>  <Ligand_Instance>  (94) 
nan

>  <PDB_ID>  (94) 
nan

>  <Standardized_SMILES>  (94) 
C#Cc1cccc(Nc2ncnc3cc4c(cc23)OCCOCCOCCO4)c1

>  <Name>  (94) 
Icotinib

>  <Pocket>  (94) 
nan

>  <ATP_Site>  (94) 
nan

>  <Peripheral>  (94) 
nan

>  <Num_H_Atoms_ProtBoundConf>  (94) 
nan

>  <Num_Resolved_Atoms>  (94) 
nan

>  <Num_Not_Resolved_Atoms>  (94) 
nan

$$$$
nan
     RDKit          3D

  0  0  0  0  0  0  0  0  0  0999 V3000
M  V30 BEGIN CTAB
M  V30 COUNTS 52 55 0 0 0
M  V30 BEGIN ATOM
M  V30 1 C 0.472827 -5.336869 2.208427 0
M  V30 2 C -0.286704 -4.415936 1.293203 0 CFG=1
M  V30 3 O 0.334563 -4.254447 0.056046 0
M  V30 4 C 0.812345 -3.106379 -0.506913 0
M  V30 5 C 0.813791 -1.829510 -0.024643 0
M  V30 6 C 1.352670 -0.797773 -0.759753 0
M  V30 7 C 1.344049 0.559976 -0.225037 0
M  V30 8 C 2.298293 1.522393 -0.485439 0
M  V30 9 N 1.898435 2.621298 0.209350 0
M  V30 10 N 0.763530 2.329951 0.851741 0
M  V30 11 C 0.168496 3.380547 1.658068 0
M  V30 12 C 1.218776 4.111276 2.436430 0
M  V30 13 C 1.865325 5.233981 1.694380 0
M  V30 14 N 1.091080 5.822699 0.650982 0
M  V30 15 C -0.314854 5.723510 0.903528 0
M  V30 16 C -0.686118 4.267036 0.802063 0
M  V30 17 C 0.373994 1.063388 0.617391 0
M  V30 18 C 1.906145 -1.025845 -2.004206 0
M  V30 19 N 1.900133 -2.290439 -2.472239 0
M  V30 20 C 1.377536 -3.317950 -1.769588 0
M  V30 21 N 1.509306 -4.538692 -2.509243 0
M  V30 22 C -1.693586 -4.858597 1.117205 0
M  V30 23 C -2.716864 -4.424878 1.946225 0
M  V30 24 Cl -2.294710 -3.303779 3.250505 0
M  V30 25 C -4.040047 -4.797905 1.835637 0
M  V30 26 C -4.388222 -5.675273 0.819809 0
M  V30 27 C -3.416591 -6.139914 -0.034239 0
M  V30 28 F -3.745117 -7.008919 -1.044816 0
M  V30 29 C -2.109479 -5.731253 0.125866 0
M  V30 30 Cl -0.928031 -6.358823 -0.991352 0
M  V30 31 H -0.215122 -5.971242 2.807358 0
M  V30 32 H 1.087102 -4.747959 2.905132 0
M  V30 33 H 1.141834 -6.043246 1.671329 0
M  V30 34 H -0.339592 -3.413095 1.786203 0
M  V30 35 H 0.376337 -1.708213 0.936624 0
M  V30 36 H 3.177294 1.408940 -1.115175 0
M  V30 37 H -0.502221 2.873052 2.387085 0
M  V30 38 H 0.783367 4.449265 3.407777 0
M  V30 39 H 2.008754 3.377477 2.704686 0
M  V30 40 H 2.139841 6.021111 2.436560 0
M  V30 41 H 2.847390 4.931894 1.230221 0
M  V30 42 H 1.347616 6.834442 0.574357 0
M  V30 43 H -0.849866 6.261382 0.091550 0
M  V30 44 H -0.652641 6.167835 1.859089 0
M  V30 45 H -0.554467 3.994864 -0.266255 0
M  V30 46 H -1.771294 4.174108 1.013755 0
M  V30 47 H -0.509194 0.620894 1.033190 0
M  V30 48 H 2.326998 -0.194493 -2.568627 0
M  V30 49 H 2.087638 -5.382547 -2.605393 0
M  V30 50 H 0.733024 -4.597030 -3.211386 0
M  V30 51 H -4.768122 -4.406069 2.530866 0
M  V30 52 H -5.411302 -5.970785 0.725356 0
M  V30 END ATOM
M  V30 BEGIN BOND
M  V30 1 1 1 2
M  V30 2 1 2 3
M  V30 3 1 3 4
M  V30 4 2 4 5
M  V30 5 1 5 6
M  V30 6 1 6 7
M  V30 7 1 7 8
M  V30 8 2 8 9
M  V30 9 1 9 10
M  V30 10 1 10 11
M  V30 11 1 11 12
M  V30 12 1 12 13
M  V30 13 1 13 14
M  V30 14 1 14 15
M  V30 15 1 15 16
M  V30 16 1 10 17
M  V30 17 2 6 18
M  V30 18 1 18 19
M  V30 19 2 19 20
M  V30 20 1 20 21
M  V30 21 1 2 22
M  V30 22 2 22 23
M  V30 23 1 23 24
M  V30 24 1 23 25
M  V30 25 2 25 26
M  V30 26 1 26 27
M  V30 27 1 27 28
M  V30 28 2 27 29
M  V30 29 1 29 30
M  V30 30 1 20 4
M  V30 31 1 29 22
M  V30 32 2 17 7
M  V30 33 1 16 11
M  V30 34 1 1 31
M  V30 35 1 1 32
M  V30 36 1 1 33
M  V30 37 1 2 34 CFG=1
M  V30 38 1 5 35
M  V30 39 1 8 36
M  V30 40 1 11 37
M  V30 41 1 12 38
M  V30 42 1 12 39
M  V30 43 1 13 40
M  V30 44 1 13 41
M  V30 45 1 14 42
M  V30 46 1 15 43
M  V30 47 1 15 44
M  V30 48 1 16 45
M  V30 49 1 16 46
M  V30 50 1 17 47
M  V30 51 1 18 48
M  V30 52 1 21 49
M  V30 53 1 21 50
M  V30 54 1 25 51
M  V30 55 1 26 52
M  V30 END BOND
M  V30 END CTAB
M  END
>  <Dataset>  (95) 
PKIs

>  <Ligand_Instance>  (95) 
nan

>  <PDB_ID>  (95) 
nan

>  <Standardized_SMILES>  (95) 
C[C@@H](Oc1cc(-c2cnn(C3CCNCC3)c2)cnc1N)c1c(Cl)ccc(F)c1Cl

>  <Name>  (95) 
Crizotinib

>  <Pocket>  (95) 
nan

>  <ATP_Site>  (95) 
nan

>  <Peripheral>  (95) 
nan

>  <Num_H_Atoms_ProtBoundConf>  (95) 
nan

>  <Num_Resolved_Atoms>  (95) 
nan

>  <Num_Not_Resolved_Atoms>  (95) 
nan

$$$$
nan
     RDKit          3D

  0  0  0  0  0  0  0  0  0  0999 V3000
M  V30 BEGIN CTAB
M  V30 COUNTS 51 54 0 0 0
M  V30 BEGIN ATOM
M  V30 1 C 2.918687 -2.399836 3.539877 0
M  V30 2 C 3.136319 -2.189833 2.065724 0
M  V30 3 C 4.207355 -1.125120 1.870114 0
M  V30 4 S 4.474671 -0.861046 0.111814 0
M  V30 5 O 5.563045 0.167439 -0.032441 0
M  V30 6 O 4.951342 -2.143308 -0.498111 0
M  V30 7 N 3.002879 -0.338075 -0.620573 0
M  V30 8 C 2.346867 0.855013 -0.265119 0
M  V30 9 C 2.970295 1.820108 0.507476 0
M  V30 10 C 2.288303 2.974986 0.824766 0
M  V30 11 C 0.996371 3.191333 0.389636 0
M  V30 12 F 0.435647 4.383867 0.777995 0
M  V30 13 C 0.343752 2.254137 -0.380217 0
M  V30 14 C -0.990280 2.568008 -0.800944 0
M  V30 15 O -1.395418 3.766373 -0.603135 0
M  V30 16 C -2.060310 1.843611 -1.426866 0
M  V30 17 C -2.825157 2.187500 -2.540869 0
M  V30 18 N -3.703010 1.201652 -2.792128 0
M  V30 19 C -3.570828 0.204765 -1.901100 0
M  V30 20 N -4.249192 -0.951731 -1.789798 0
M  V30 21 C -3.966122 -1.841589 -0.795853 0
M  V30 22 C -2.958757 -1.512681 0.091579 0
M  V30 23 C -2.632765 -2.444056 1.169047 0
M  V30 24 C -3.699443 -3.195029 1.660190 0
M  V30 25 C -3.435172 -4.087991 2.679789 0
M  V30 26 C -2.178278 -4.266728 3.226071 0
M  V30 27 Cl -1.847670 -5.399276 4.518406 0
M  V30 28 C -1.113376 -3.509908 2.728178 0
M  V30 29 C -1.368761 -2.608002 1.701615 0
M  V30 30 C -2.280839 -0.319673 -0.048375 0
M  V30 31 C -2.556042 0.591088 -1.049978 0
M  V30 32 C 1.059229 1.124289 -0.670996 0
M  V30 33 F 0.481557 0.183190 -1.434803 0
M  V30 34 H 2.436790 -3.350908 3.790738 0
M  V30 35 H 3.893106 -2.248367 4.048299 0
M  V30 36 H 2.242739 -1.594604 3.905448 0
M  V30 37 H 2.231260 -1.872187 1.520658 0
M  V30 38 H 3.511841 -3.128532 1.580842 0
M  V30 39 H 5.151870 -1.407681 2.360503 0
M  V30 40 H 3.856456 -0.186180 2.317790 0
M  V30 41 H 2.584518 -0.929135 -1.354409 0
M  V30 42 H 3.980316 1.704971 0.873099 0
M  V30 43 H 2.803155 3.719314 1.434355 0
M  V30 44 H -2.730322 3.101189 -3.114858 0
M  V30 45 H -4.397363 1.210831 -3.578752 0
M  V30 46 H -4.525451 -2.768555 -0.722995 0
M  V30 47 H -4.734950 -3.135133 1.303119 0
M  V30 48 H -4.249946 -4.697996 3.092919 0
M  V30 49 H -0.103905 -3.602421 3.113076 0
M  V30 50 H -0.560357 -2.008881 1.296883 0
M  V30 51 H -1.486955 -0.055910 0.646975 0
M  V30 END ATOM
M  V30 BEGIN BOND
M  V30 1 1 1 2
M  V30 2 1 2 3
M  V30 3 1 3 4
M  V30 4 2 4 5
M  V30 5 2 4 6
M  V30 6 1 4 7
M  V30 7 1 7 8
M  V30 8 2 8 9
M  V30 9 1 9 10
M  V30 10 2 10 11
M  V30 11 1 11 12
M  V30 12 1 11 13
M  V30 13 1 13 14
M  V30 14 2 14 15
M  V30 15 1 14 16
M  V30 16 2 16 17
M  V30 17 1 17 18
M  V30 18 1 18 19
M  V30 19 2 19 20
M  V30 20 1 20 21
M  V30 21 2 21 22
M  V30 22 1 22 23
M  V30 23 2 23 24
M  V30 24 1 24 25
M  V30 25 2 25 26
M  V30 26 1 26 27
M  V30 27 1 26 28
M  V30 28 2 28 29
M  V30 29 1 22 30
M  V30 30 2 30 31
M  V30 31 2 13 32
M  V30 32 1 32 33
M  V30 33 1 32 8
M  V30 34 1 31 16
M  V30 35 1 31 19
M  V30 36 1 29 23
M  V30 37 1 1 34
M  V30 38 1 1 35
M  V30 39 1 1 36
M  V30 40 1 2 37
M  V30 41 1 2 38
M  V30 42 1 3 39
M  V30 43 1 3 40
M  V30 44 1 7 41
M  V30 45 1 9 42
M  V30 46 1 10 43
M  V30 47 1 17 44
M  V30 48 1 18 45
M  V30 49 1 21 46
M  V30 50 1 24 47
M  V30 51 1 25 48
M  V30 52 1 28 49
M  V30 53 1 29 50
M  V30 54 1 30 51
M  V30 END BOND
M  V30 END CTAB
M  END
>  <Dataset>  (96) 
PKIs

>  <Ligand_Instance>  (96) 
nan

>  <PDB_ID>  (96) 
nan

>  <Standardized_SMILES>  (96) 
CCCS(=O)(=O)Nc1ccc(F)c(C(=O)c2c[nH]c3ncc(-c4ccc(Cl)cc4)cc23)c1F

>  <Name>  (96) 
Vemurafenib

>  <Pocket>  (96) 
nan

>  <ATP_Site>  (96) 
nan

>  <Peripheral>  (96) 
nan

>  <Num_H_Atoms_ProtBoundConf>  (96) 
nan

>  <Num_Resolved_Atoms>  (96) 
nan

>  <Num_Not_Resolved_Atoms>  (96) 
nan

$$$$
nan
     RDKit          3D

  0  0  0  0  0  0  0  0  0  0999 V3000
M  V30 BEGIN CTAB
M  V30 COUNTS 41 44 0 0 0
M  V30 BEGIN ATOM
M  V30 1 N 2.600275 0.449893 -1.598361 0
M  V30 2 C 2.909769 -0.372218 -0.848549 0
M  V30 3 C 3.312833 -1.375900 0.085444 0
M  V30 4 C 2.233912 -2.033581 0.837078 0 CFG=2
M  V30 5 C 1.191756 -2.777689 0.124875 0
M  V30 6 C 1.729185 -3.941140 -0.705004 0
M  V30 7 C 0.689263 -4.193705 -1.773324 0
M  V30 8 C -0.467519 -3.301299 -1.377296 0
M  V30 9 C 0.323381 -2.083820 -0.847296 0
M  V30 10 N 1.641610 -1.115177 1.825254 0
M  V30 11 C 0.978092 -0.005214 1.438162 0
M  V30 12 C 0.535468 0.659995 2.564443 0
M  V30 13 C -0.216999 1.879140 2.854719 0
M  V30 14 N 0.148005 2.756858 3.801299 0
M  V30 15 C -0.572121 3.867127 4.037304 0
M  V30 16 N -1.695584 4.146578 3.330259 0
M  V30 17 C -2.132086 3.317724 2.361685 0
M  V30 18 N -3.176325 3.336661 1.526257 0
M  V30 19 C -3.152598 2.236883 0.731527 0
M  V30 20 C -2.022196 1.521212 1.121337 0
M  V30 21 C -1.371040 2.184910 2.142281 0
M  V30 22 C 0.967365 -0.107635 3.646895 0
M  V30 23 N 1.622593 -1.156845 3.166370 0
M  V30 24 H 3.889766 -2.161252 -0.457747 0
M  V30 25 H 4.044445 -0.986364 0.855815 0
M  V30 26 H 2.749506 -2.795809 1.505719 0
M  V30 27 H 0.512917 -3.279469 0.879598 0
M  V30 28 H 2.648480 -3.604959 -1.188485 0
M  V30 29 H 1.929336 -4.835154 -0.077822 0
M  V30 30 H 0.402446 -5.237078 -1.895758 0
M  V30 31 H 1.038232 -3.789426 -2.761894 0
M  V30 32 H -1.110023 -3.031360 -2.218461 0
M  V30 33 H -0.985624 -3.722964 -0.508129 0
M  V30 34 H -0.445918 -1.419003 -0.456101 0
M  V30 35 H 0.886238 -1.709030 -1.726558 0
M  V30 36 H 0.738364 0.439804 0.488554 0
M  V30 37 H -0.259409 4.562405 4.806301 0
M  V30 38 H -3.917888 4.089476 1.480244 0
M  V30 39 H -3.873532 1.974521 -0.049113 0
M  V30 40 H -1.683046 0.591374 0.708961 0
M  V30 41 H 0.911505 -0.074520 4.724601 0
M  V30 END ATOM
M  V30 BEGIN BOND
M  V30 1 3 1 2
M  V30 2 1 2 3
M  V30 3 1 3 4
M  V30 4 1 4 5
M  V30 5 1 5 6
M  V30 6 1 6 7
M  V30 7 1 7 8
M  V30 8 1 8 9
M  V30 9 1 4 10
M  V30 10 1 10 11
M  V30 11 2 11 12
M  V30 12 1 12 13
M  V30 13 2 13 14
M  V30 14 1 14 15
M  V30 15 2 15 16
M  V30 16 1 16 17
M  V30 17 1 17 18
M  V30 18 1 18 19
M  V30 19 2 19 20
M  V30 20 1 20 21
M  V30 21 1 12 22
M  V30 22 2 22 23
M  V30 23 1 9 5
M  V30 24 1 23 10
M  V30 25 1 21 13
M  V30 26 2 21 17
M  V30 27 1 3 24
M  V30 28 1 3 25
M  V30 29 1 4 26 CFG=1
M  V30 30 1 5 27
M  V30 31 1 6 28
M  V30 32 1 6 29
M  V30 33 1 7 30
M  V30 34 1 7 31
M  V30 35 1 8 32
M  V30 36 1 8 33
M  V30 37 1 9 34
M  V30 38 1 9 35
M  V30 39 1 11 36
M  V30 40 1 15 37
M  V30 41 1 18 38
M  V30 42 1 19 39
M  V30 43 1 20 40
M  V30 44 1 22 41
M  V30 END BOND
M  V30 END CTAB
M  END
>  <Dataset>  (97) 
PKIs

>  <Ligand_Instance>  (97) 
nan

>  <PDB_ID>  (97) 
nan

>  <Standardized_SMILES>  (97) 
N#CC[C@H](C1CCCC1)n1cc(-c2ncnc3[nH]ccc23)cn1

>  <Name>  (97) 
Ruxolitinib

>  <Pocket>  (97) 
nan

>  <ATP_Site>  (97) 
nan

>  <Peripheral>  (97) 
nan

>  <Num_H_Atoms_ProtBoundConf>  (97) 
nan

>  <Num_Resolved_Atoms>  (97) 
nan

>  <Num_Not_Resolved_Atoms>  (97) 
nan

$$$$
nan
     RDKit          3D

  0  0  0  0  0  0  0  0  0  0999 V3000
M  V30 BEGIN CTAB
M  V30 COUNTS 54 57 0 0 0
M  V30 BEGIN ATOM
M  V30 1 C -0.101950 -2.413448 -3.010825 0
M  V30 2 C 0.663732 -2.601557 -1.767225 0
M  V30 3 C 1.713092 -1.732325 -1.518110 0
M  V30 4 C 2.481061 -1.856964 -0.377665 0
M  V30 5 C 2.147462 -2.881848 0.481546 0
M  V30 6 N 2.857324 -3.022439 1.732378 0
M  V30 7 C 2.997284 -1.776663 2.464361 0
M  V30 8 N 3.732829 -1.758059 3.588210 0
M  V30 9 C 3.832146 -0.597153 4.298082 0
M  V30 10 C 3.185237 0.553353 3.872318 0
M  V30 11 C 2.424403 0.531832 2.710003 0
M  V30 12 N 1.743735 1.656236 2.166861 0
M  V30 13 C 2.625543 2.798158 2.280528 0
M  V30 14 C 0.437151 1.632057 1.608995 0
M  V30 15 C -0.141143 2.726064 1.016085 0
M  V30 16 C -1.448473 2.670848 0.518338 0
M  V30 17 C -2.173699 1.500941 0.622538 0
M  V30 18 C -3.454256 1.197366 0.231105 0
M  V30 19 C -4.479912 2.031144 -0.455780 0
M  V30 20 N -3.626813 -0.100886 0.604354 0
M  V30 21 C -4.789740 -0.956916 0.459341 0
M  V30 22 N -2.521170 -0.557639 1.184917 0
M  V30 23 C -1.580203 0.396006 1.225760 0
M  V30 24 C -0.287361 0.467698 1.711479 0
M  V30 25 N 2.392175 -0.653011 2.088727 0
M  V30 26 C 1.104784 -3.747180 0.230332 0
M  V30 27 C 0.322384 -3.633915 -0.906881 0
M  V30 28 S -1.063314 -4.636943 -1.215754 0
M  V30 29 N -1.151158 -5.326898 -2.754797 0
M  V30 30 O -0.902121 -5.819786 -0.241177 0
M  V30 31 O -2.322098 -3.977901 -0.810316 0
M  V30 32 H 0.440945 -2.881484 -3.872715 0
M  V30 33 H -1.168624 -2.677622 -2.956252 0
M  V30 34 H -0.083726 -1.304971 -3.243938 0
M  V30 35 H 1.928695 -0.939862 -2.246055 0
M  V30 36 H 3.299715 -1.212025 -0.147331 0
M  V30 37 H 3.261101 -3.882818 2.133686 0
M  V30 38 H 4.437462 -0.618252 5.203477 0
M  V30 39 H 3.258113 1.460051 4.429081 0
M  V30 40 H 2.748201 3.100745 3.361729 0
M  V30 41 H 2.218709 3.719295 1.801404 0
M  V30 42 H 3.660234 2.589496 1.892882 0
M  V30 43 H 0.393613 3.657534 0.911552 0
M  V30 44 H -1.877288 3.546141 0.056338 0
M  V30 45 H -5.138084 1.378509 -1.081997 0
M  V30 46 H -5.123091 2.437023 0.352777 0
M  V30 47 H -4.040183 2.822787 -1.083718 0
M  V30 48 H -4.894027 -1.657514 1.310336 0
M  V30 49 H -5.692121 -0.333636 0.417785 0
M  V30 50 H -4.749957 -1.574792 -0.455524 0
M  V30 51 H 0.051049 -0.463862 2.158055 0
M  V30 52 H 0.887146 -4.547620 0.953934 0
M  V30 53 H -2.124313 -5.188576 -3.111235 0
M  V30 54 H -0.419541 -5.062171 -3.413300 0
M  V30 END ATOM
M  V30 BEGIN BOND
M  V30 1 1 1 2
M  V30 2 2 2 3
M  V30 3 1 3 4
M  V30 4 2 4 5
M  V30 5 1 5 6
M  V30 6 1 6 7
M  V30 7 2 7 8
M  V30 8 1 8 9
M  V30 9 2 9 10
M  V30 10 1 10 11
M  V30 11 1 11 12
M  V30 12 1 12 13
M  V30 13 1 12 14
M  V30 14 1 14 15
M  V30 15 2 15 16
M  V30 16 1 16 17
M  V30 17 2 17 18
M  V30 18 1 18 19
M  V30 19 1 18 20
M  V30 20 1 20 21
M  V30 21 1 20 22
M  V30 22 2 22 23
M  V30 23 1 23 24
M  V30 24 2 11 25
M  V30 25 1 5 26
M  V30 26 2 26 27
M  V30 27 1 27 28
M  V30 28 1 28 29
M  V30 29 2 28 30
M  V30 30 2 28 31
M  V30 31 1 27 2
M  V30 32 1 25 7
M  V30 33 2 24 14
M  V30 34 1 23 17
M  V30 35 1 1 32
M  V30 36 1 1 33
M  V30 37 1 1 34
M  V30 38 1 3 35
M  V30 39 1 4 36
M  V30 40 1 6 37
M  V30 41 1 9 38
M  V30 42 1 10 39
M  V30 43 1 13 40
M  V30 44 1 13 41
M  V30 45 1 13 42
M  V30 46 1 15 43
M  V30 47 1 16 44
M  V30 48 1 19 45
M  V30 49 1 19 46
M  V30 50 1 19 47
M  V30 51 1 21 48
M  V30 52 1 21 49
M  V30 53 1 21 50
M  V30 54 1 24 51
M  V30 55 1 26 52
M  V30 56 1 29 53
M  V30 57 1 29 54
M  V30 END BOND
M  V30 END CTAB
M  END
>  <Dataset>  (98) 
PKIs

>  <Ligand_Instance>  (98) 
nan

>  <PDB_ID>  (98) 
nan

>  <Standardized_SMILES>  (98) 
Cc1ccc(Nc2nccc(N(C)c3ccc4c(C)n(C)nc4c3)n2)cc1S(N)(=O)=O

>  <Name>  (98) 
Pazopanib

>  <Pocket>  (98) 
nan

>  <ATP_Site>  (98) 
nan

>  <Peripheral>  (98) 
nan

>  <Num_H_Atoms_ProtBoundConf>  (98) 
nan

>  <Num_Resolved_Atoms>  (98) 
nan

>  <Num_Not_Resolved_Atoms>  (98) 
nan

$$$$
nan
     RDKit          3D

  0  0  0  0  0  0  0  0  0  0999 V3000
M  V30 BEGIN CTAB
M  V30 COUNTS 61 65 0 0 0
M  V30 BEGIN ATOM
M  V30 1 C 4.201973 -4.998479 5.406961 0
M  V30 2 C 3.853459 -3.650299 4.878069 0
M  V30 3 C 3.806771 -3.357975 3.517054 0
M  V30 4 N 3.464526 -2.071044 3.395676 0
M  V30 5 C 3.312346 -1.396776 2.154200 0
M  V30 6 C 2.642818 -0.194376 2.136087 0
M  V30 7 C 2.500385 0.445145 0.926359 0
M  V30 8 N 1.833015 1.703093 0.680980 0
M  V30 9 C 0.469006 1.328863 0.406248 0
M  V30 10 O 0.373981 0.057041 0.487023 0
M  V30 11 C -0.619951 2.259052 0.087704 0
M  V30 12 C -0.520579 3.634245 -0.016072 0
M  V30 13 C -1.685383 4.293216 -0.340654 0
M  V30 14 C -2.912920 3.714342 -0.565290 0
M  V30 15 C -4.122158 4.506601 -0.909575 0
M  V30 16 C -2.973060 2.321536 -0.450774 0
M  V30 17 N -4.211558 1.624962 -0.688432 0
M  V30 18 C -4.264342 0.193953 -0.502261 0
M  V30 19 N -5.142006 -0.056019 0.475686 0
M  V30 20 C -5.342444 -1.355281 0.836603 0
M  V30 21 C -4.606587 -2.308689 0.143875 0
M  V30 22 C -3.707883 -2.035485 -0.860223 0
M  V30 23 C -2.922126 -3.011419 -1.591026 0
M  V30 24 C -2.063571 -2.548642 -2.562312 0
M  V30 25 C -1.337346 -3.540574 -3.219442 0
M  V30 26 C -1.447456 -4.890359 -2.941075 0
M  V30 27 N -2.294962 -5.308448 -1.986858 0
M  V30 28 C -3.018456 -4.359261 -1.327870 0
M  V30 29 N -3.560299 -0.754105 -1.161202 0
M  V30 30 C -1.834796 1.612062 -0.127405 0
M  V30 31 C 3.006300 -0.083099 -0.255415 0
M  V30 32 C 3.679270 -1.295082 -0.226644 0
M  V30 33 C 4.253549 -1.929624 -1.467667 0
M  V30 34 F 3.509407 -1.591706 -2.590427 0
M  V30 35 F 5.593985 -1.596974 -1.615976 0
M  V30 36 F 4.209831 -3.316907 -1.324906 0
M  V30 37 C 3.818861 -1.931245 0.988877 0
M  V30 38 C 3.304828 -1.582846 4.637433 0
M  V30 39 N 3.537215 -2.527368 5.535271 0
M  V30 40 H 4.948449 -5.438710 4.732083 0
M  V30 41 H 4.613196 -4.832117 6.423827 0
M  V30 42 H 3.276463 -5.631408 5.488272 0
M  V30 43 H 4.014226 -4.061752 2.704463 0
M  V30 44 H 2.212732 0.306573 2.982983 0
M  V30 45 H 2.057269 2.743619 0.648053 0
M  V30 46 H 0.443160 4.052551 0.163062 0
M  V30 47 H -1.573252 5.383634 -0.414588 0
M  V30 48 H -4.777850 4.647934 -0.025493 0
M  V30 49 H -3.780622 5.522898 -1.224230 0
M  V30 50 H -4.642926 4.070273 -1.787393 0
M  V30 51 H -5.042687 2.182580 -0.991554 0
M  V30 52 H -6.024082 -1.693310 1.611853 0
M  V30 53 H -4.755177 -3.358962 0.420967 0
M  V30 54 H -1.966738 -1.515596 -2.788087 0
M  V30 55 H -0.658705 -3.157165 -3.989005 0
M  V30 56 H -0.839832 -5.575963 -3.507277 0
M  V30 57 H -3.679655 -4.761087 -0.574568 0
M  V30 58 H -1.949207 0.553563 -0.053075 0
M  V30 59 H 2.929700 0.366405 -1.240460 0
M  V30 60 H 4.352739 -2.881447 0.979300 0
M  V30 61 H 3.031341 -0.585158 4.913695 0
M  V30 END ATOM
M  V30 BEGIN BOND
M  V30 1 1 1 2
M  V30 2 2 2 3
M  V30 3 1 3 4
M  V30 4 1 4 5
M  V30 5 2 5 6
M  V30 6 1 6 7
M  V30 7 1 7 8
M  V30 8 1 8 9
M  V30 9 2 9 10
M  V30 10 1 9 11
M  V30 11 2 11 12
M  V30 12 1 12 13
M  V30 13 2 13 14
M  V30 14 1 14 15
M  V30 15 1 14 16
M  V30 16 1 16 17
M  V30 17 1 17 18
M  V30 18 2 18 19
M  V30 19 1 19 20
M  V30 20 2 20 21
M  V30 21 1 21 22
M  V30 22 1 22 23
M  V30 23 2 23 24
M  V30 24 1 24 25
M  V30 25 2 25 26
M  V30 26 1 26 27
M  V30 27 2 27 28
M  V30 28 2 22 29
M  V30 29 2 16 30
M  V30 30 2 7 31
M  V30 31 1 31 32
M  V30 32 1 32 33
M  V30 33 1 33 34
M  V30 34 1 33 35
M  V30 35 1 33 36
M  V30 36 2 32 37
M  V30 37 1 4 38
M  V30 38 2 38 39
M  V30 39 1 39 2
M  V30 40 1 37 5
M  V30 41 1 30 11
M  V30 42 1 29 18
M  V30 43 1 28 23
M  V30 44 1 1 40
M  V30 45 1 1 41
M  V30 46 1 1 42
M  V30 47 1 3 43
M  V30 48 1 6 44
M  V30 49 1 8 45
M  V30 50 1 12 46
M  V30 51 1 13 47
M  V30 52 1 15 48
M  V30 53 1 15 49
M  V30 54 1 15 50
M  V30 55 1 17 51
M  V30 56 1 20 52
M  V30 57 1 21 53
M  V30 58 1 24 54
M  V30 59 1 25 55
M  V30 60 1 26 56
M  V30 61 1 28 57
M  V30 62 1 30 58
M  V30 63 1 31 59
M  V30 64 1 37 60
M  V30 65 1 38 61
M  V30 END BOND
M  V30 END CTAB
M  END
>  <Dataset>  (99) 
PKIs

>  <Ligand_Instance>  (99) 
nan

>  <PDB_ID>  (99) 
nan

>  <Standardized_SMILES>  (99) 
Cc1cn(-c2cc(NC(=O)c3ccc(C)c(Nc4nccc(-c5cccnc5)n4)c3)cc(C(F)(F)F)c2)cn1

>  <Name>  (99) 
Nilotinib

>  <Pocket>  (99) 
nan

>  <ATP_Site>  (99) 
nan

>  <Peripheral>  (99) 
nan

>  <Num_H_Atoms_ProtBoundConf>  (99) 
nan

>  <Num_Resolved_Atoms>  (99) 
nan

>  <Num_Not_Resolved_Atoms>  (99) 
nan

$$$$
nan
     RDKit          3D

  0  0  0  0  0  0  0  0  0  0999 V3000
M  V30 BEGIN CTAB
M  V30 COUNTS 66 70 0 0 0
M  V30 BEGIN ATOM
M  V30 1 C 5.423672 -2.671652 5.582942 0
M  V30 2 S 5.145143 -2.789867 3.808381 0
M  V30 3 O 3.677012 -3.009199 3.594062 0
M  V30 4 O 5.921565 -3.944447 3.250618 0
M  V30 5 C 5.693801 -1.282119 3.123651 0
M  V30 6 C 5.527488 -1.194889 1.599528 0
M  V30 7 N 6.039331 0.092665 1.279470 0
M  V30 8 C 6.013062 0.500604 -0.081178 0
M  V30 9 C 4.550370 0.514253 -0.466039 0
M  V30 10 C 3.741720 -0.471693 -1.007197 0
M  V30 11 C 2.497766 0.113707 -1.144042 0
M  V30 12 C 2.569164 1.414719 -0.694205 0
M  V30 13 C 1.514613 2.430462 -0.636563 0
M  V30 14 C 1.842100 3.677546 -0.140368 0
M  V30 15 C 0.881388 4.691023 -0.046487 0
M  V30 16 C -0.401135 4.402203 -0.465536 0
M  V30 17 N -1.383880 5.319987 -0.398979 0
M  V30 18 C -2.646729 5.058374 -0.794253 0
M  V30 19 N -3.007163 3.858144 -1.282901 0
M  V30 20 C -2.037322 2.920069 -1.359817 0
M  V30 21 N -2.427615 1.654219 -1.868086 0
M  V30 22 C -2.694907 0.409900 -1.234829 0
M  V30 23 C -3.271894 -0.582859 -1.986816 0
M  V30 24 C -3.507108 -1.785489 -1.377305 0
M  V30 25 C -3.216061 -2.092468 -0.069903 0
M  V30 26 O -3.322069 -3.138816 0.778222 0
M  V30 27 C -3.849532 -4.397962 0.530261 0
M  V30 28 C -5.285726 -4.430376 0.157381 0
M  V30 29 C -6.106425 -4.382720 1.296548 0
M  V30 30 C -7.488134 -4.417413 1.256965 0
M  V30 31 C -8.120995 -4.504066 0.036558 0
M  V30 32 C -7.321295 -4.550932 -1.078092 0
M  V30 33 F -7.863926 -4.637422 -2.321862 0
M  V30 34 C -5.951514 -4.517200 -1.046620 0
M  V30 35 C -2.625826 -1.049438 0.668860 0
M  V30 36 Cl -2.114891 -1.067602 2.362169 0
M  V30 37 C -2.356689 0.209389 0.106376 0
M  V30 38 C -0.715353 3.149595 -0.960660 0
M  V30 39 C 0.234065 2.134447 -1.058213 0
M  V30 40 O 3.810183 1.587951 -0.307481 0
M  V30 41 H 5.525642 -3.670687 6.034484 0
M  V30 42 H 4.530142 -2.137722 6.011894 0
M  V30 43 H 6.292548 -2.007314 5.771255 0
M  V30 44 H 6.721098 -1.002160 3.412565 0
M  V30 45 H 4.992727 -0.479284 3.504500 0
M  V30 46 H 6.174372 -1.976621 1.114725 0
M  V30 47 H 4.474883 -1.362883 1.375299 0
M  V30 48 H 5.459025 0.787105 1.836585 0
M  V30 49 H 6.412351 1.526892 -0.139924 0
M  V30 50 H 6.571303 -0.199546 -0.731411 0
M  V30 51 H 4.101436 -1.454255 -1.237118 0
M  V30 52 H 1.629011 -0.377309 -1.537467 0
M  V30 53 H 2.828512 3.960783 0.203038 0
M  V30 54 H 1.087293 5.682777 0.333914 0
M  V30 55 H -3.340009 5.903796 -0.680972 0
M  V30 56 H -2.501084 1.774628 -2.899513 0
M  V30 57 H -3.565053 -0.523934 -3.014547 0
M  V30 58 H -3.945505 -2.638958 -1.858315 0
M  V30 59 H -3.704937 -5.088329 1.416729 0
M  V30 60 H -3.255366 -4.944052 -0.277782 0
M  V30 61 H -5.744002 -4.312839 2.323890 0
M  V30 62 H -8.122355 -4.380605 2.126891 0
M  V30 63 H -9.195758 -4.533549 -0.035472 0
M  V30 64 H -5.277518 -4.559967 -1.868010 0
M  V30 65 H -1.916981 1.055019 0.577491 0
M  V30 66 H -0.041247 1.164085 -1.450053 0
M  V30 END ATOM
M  V30 BEGIN BOND
M  V30 1 1 1 2
M  V30 2 2 2 3
M  V30 3 2 2 4
M  V30 4 1 2 5
M  V30 5 1 5 6
M  V30 6 1 6 7
M  V30 7 1 7 8
M  V30 8 1 8 9
M  V30 9 2 9 10
M  V30 10 1 10 11
M  V30 11 2 11 12
M  V30 12 1 12 13
M  V30 13 2 13 14
M  V30 14 1 14 15
M  V30 15 2 15 16
M  V30 16 1 16 17
M  V30 17 2 17 18
M  V30 18 1 18 19
M  V30 19 2 19 20
M  V30 20 1 20 21
M  V30 21 1 21 22
M  V30 22 2 22 23
M  V30 23 1 23 24
M  V30 24 2 24 25
M  V30 25 1 25 26
M  V30 26 1 26 27
M  V30 27 1 27 28
M  V30 28 2 28 29
M  V30 29 1 29 30
M  V30 30 2 30 31
M  V30 31 1 31 32
M  V30 32 1 32 33
M  V30 33 2 32 34
M  V30 34 1 25 35
M  V30 35 1 35 36
M  V30 36 2 35 37
M  V30 37 1 20 38
M  V30 38 2 38 39
M  V30 39 1 12 40
M  V30 40 1 40 9
M  V30 41 1 39 13
M  V30 42 1 38 16
M  V30 43 1 37 22
M  V30 44 1 34 28
M  V30 45 1 1 41
M  V30 46 1 1 42
M  V30 47 1 1 43
M  V30 48 1 5 44
M  V30 49 1 5 45
M  V30 50 1 6 46
M  V30 51 1 6 47
M  V30 52 1 7 48
M  V30 53 1 8 49
M  V30 54 1 8 50
M  V30 55 1 10 51
M  V30 56 1 11 52
M  V30 57 1 14 53
M  V30 58 1 15 54
M  V30 59 1 18 55
M  V30 60 1 21 56
M  V30 61 1 23 57
M  V30 62 1 24 58
M  V30 63 1 27 59
M  V30 64 1 27 60
M  V30 65 1 29 61
M  V30 66 1 30 62
M  V30 67 1 31 63
M  V30 68 1 34 64
M  V30 69 1 37 65
M  V30 70 1 39 66
M  V30 END BOND
M  V30 END CTAB
M  END
>  <Dataset>  (100) 
PKIs

>  <Ligand_Instance>  (100) 
nan

>  <PDB_ID>  (100) 
nan

>  <Standardized_SMILES>  (100) 
CS(=O)(=O)CCNCc1ccc(-c2ccc3ncnc(Nc4ccc(OCc5cccc(F)c5)c(Cl)c4)c3c2)o1

>  <Name>  (100) 
Lapatinib

>  <Pocket>  (100) 
nan

>  <ATP_Site>  (100) 
nan

>  <Peripheral>  (100) 
nan

>  <Num_H_Atoms_ProtBoundConf>  (100) 
nan

>  <Num_Resolved_Atoms>  (100) 
nan

>  <Num_Not_Resolved_Atoms>  (100) 
nan

$$$$
nan
     RDKit          3D

  0  0  0  0  0  0  0  0  0  0999 V3000
M  V30 BEGIN CTAB
M  V30 COUNTS 59 62 0 0 0
M  V30 BEGIN ATOM
M  V30 1 C 5.118715 -3.518302 2.876733 0
M  V30 2 C 3.686876 -3.154878 2.981906 0
M  V30 3 N 3.415763 -2.038973 3.695881 0
M  V30 4 C 2.135440 -1.612162 3.863153 0
M  V30 5 N 1.797722 -0.425742 4.594362 0
M  V30 6 C 1.381269 0.526473 3.547759 0
M  V30 7 N 0.237086 0.564033 3.352904 0
M  V30 8 C -0.453109 1.288965 2.498930 0
M  V30 9 C 0.261794 2.112391 1.732670 0
M  V30 10 C -0.030731 3.106333 0.637634 0
M  V30 11 O 0.941277 3.705971 0.131125 0
M  V30 12 N -1.389552 3.217949 0.336063 0
M  V30 13 C -1.627993 4.169335 -0.713683 0
M  V30 14 C -1.614282 3.498417 -1.940509 0
M  V30 15 C -1.409665 2.043689 -2.179153 0
M  V30 16 C -1.813857 4.195700 -3.124209 0
M  V30 17 C -2.026030 5.557190 -3.083878 0
M  V30 18 C -2.035689 6.194857 -1.870403 0
M  V30 19 C -1.841050 5.530697 -0.680791 0
M  V30 20 Cl -1.824440 6.178057 0.927927 0
M  V30 21 S 1.982421 1.776447 2.320137 0
M  V30 22 C 1.123259 -2.346853 3.285248 0
M  V30 23 C 1.411274 -3.478088 2.561257 0
M  V30 24 N 0.389045 -4.241460 1.942870 0
M  V30 25 C -1.014773 -3.978846 1.896224 0
M  V30 26 C -1.580029 -3.914008 0.493123 0
M  V30 27 N -0.729388 -4.383302 -0.530449 0
M  V30 28 C -0.371763 -3.422372 -1.510111 0
M  V30 29 C -1.549734 -3.043632 -2.343830 0
M  V30 30 O -1.173297 -2.089871 -3.315960 0
M  V30 31 C 0.228843 -5.373091 -0.222693 0
M  V30 32 C 0.628649 -5.469360 1.225681 0
M  V30 33 N 2.688800 -3.868448 2.419003 0
M  V30 34 H 5.775783 -2.629790 2.997764 0
M  V30 35 H 5.348190 -4.190097 3.742758 0
M  V30 36 H 5.365551 -4.043152 1.913188 0
M  V30 37 H 1.767854 -0.075918 5.571617 0
M  V30 38 H -1.535469 1.357644 2.281520 0
M  V30 39 H -2.140432 2.674745 0.817041 0
M  V30 40 H -1.480536 1.527673 -1.215808 0
M  V30 41 H -2.270898 1.632039 -2.785074 0
M  V30 42 H -0.462038 1.902452 -2.699239 0
M  V30 43 H -1.818894 3.761896 -4.115668 0
M  V30 44 H -2.183599 6.134457 -3.994572 0
M  V30 45 H -2.197565 7.270709 -1.749656 0
M  V30 46 H 0.113213 -1.989001 3.429424 0
M  V30 47 H -1.523469 -4.842648 2.420957 0
M  V30 48 H -1.290397 -3.021773 2.397669 0
M  V30 49 H -2.576198 -4.445457 0.461067 0
M  V30 50 H -1.857784 -2.853058 0.229569 0
M  V30 51 H 0.465179 -3.797546 -2.136437 0
M  V30 52 H 0.026658 -2.528155 -0.984121 0
M  V30 53 H -2.314664 -2.560718 -1.719499 0
M  V30 54 H -2.003291 -3.929534 -2.808009 0
M  V30 55 H -0.194043 -2.037866 -3.376811 0
M  V30 56 H -0.171561 -6.372895 -0.550013 0
M  V30 57 H 1.121980 -5.214872 -0.881450 0
M  V30 58 H 1.708007 -5.751931 1.261228 0
M  V30 59 H 0.054442 -6.299260 1.697176 0
M  V30 END ATOM
M  V30 BEGIN BOND
M  V30 1 1 1 2
M  V30 2 2 2 3
M  V30 3 1 3 4
M  V30 4 1 4 5
M  V30 5 1 5 6
M  V30 6 2 6 7
M  V30 7 1 7 8
M  V30 8 2 8 9
M  V30 9 1 9 10
M  V30 10 2 10 11
M  V30 11 1 10 12
M  V30 12 1 12 13
M  V30 13 2 13 14
M  V30 14 1 14 15
M  V30 15 1 14 16
M  V30 16 2 16 17
M  V30 17 1 17 18
M  V30 18 2 18 19
M  V30 19 1 19 20
M  V30 20 1 9 21
M  V30 21 2 4 22
M  V30 22 1 22 23
M  V30 23 1 23 24
M  V30 24 1 24 25
M  V30 25 1 25 26
M  V30 26 1 26 27
M  V30 27 1 27 28
M  V30 28 1 28 29
M  V30 29 1 29 30
M  V30 30 1 27 31
M  V30 31 1 31 32
M  V30 32 2 23 33
M  V30 33 1 33 2
M  V30 34 1 21 6
M  V30 35 1 32 24
M  V30 36 1 19 13
M  V30 37 1 1 34
M  V30 38 1 1 35
M  V30 39 1 1 36
M  V30 40 1 5 37
M  V30 41 1 8 38
M  V30 42 1 12 39
M  V30 43 1 15 40
M  V30 44 1 15 41
M  V30 45 1 15 42
M  V30 46 1 16 43
M  V30 47 1 17 44
M  V30 48 1 18 45
M  V30 49 1 22 46
M  V30 50 1 25 47
M  V30 51 1 25 48
M  V30 52 1 26 49
M  V30 53 1 26 50
M  V30 54 1 28 51
M  V30 55 1 28 52
M  V30 56 1 29 53
M  V30 57 1 29 54
M  V30 58 1 30 55
M  V30 59 1 31 56
M  V30 60 1 31 57
M  V30 61 1 32 58
M  V30 62 1 32 59
M  V30 END BOND
M  V30 END CTAB
M  END
>  <Dataset>  (101) 
PKIs

>  <Ligand_Instance>  (101) 
nan

>  <PDB_ID>  (101) 
nan

>  <Standardized_SMILES>  (101) 
Cc1nc(Nc2ncc(C(=O)Nc3c(C)cccc3Cl)s2)cc(N2CCN(CCO)CC2)n1

>  <Name>  (101) 
Dasatinib

>  <Pocket>  (101) 
nan

>  <ATP_Site>  (101) 
nan

>  <Peripheral>  (101) 
nan

>  <Num_H_Atoms_ProtBoundConf>  (101) 
nan

>  <Num_Resolved_Atoms>  (101) 
nan

>  <Num_Not_Resolved_Atoms>  (101) 
nan

$$$$
nan
     RDKit          3D

  0  0  0  0  0  0  0  0  0  0999 V3000
M  V30 BEGIN CTAB
M  V30 COUNTS 56 58 0 0 0
M  V30 BEGIN ATOM
M  V30 1 C 2.819446 0.374778 4.971716 0
M  V30 2 C 2.640093 0.780034 3.513621 0
M  V30 3 N 3.865800 1.015794 2.867150 0
M  V30 4 C 4.629628 2.151777 3.230041 0
M  V30 5 C 5.217769 2.108063 4.585875 0
M  V30 6 C 4.341044 0.196699 1.868749 0
M  V30 7 C 3.871733 0.101867 0.490654 0
M  V30 8 N 2.508362 -0.181275 0.231215 0
M  V30 9 C 1.232254 0.418191 0.364595 0
M  V30 10 O 1.351042 1.598815 0.855397 0
M  V30 11 C -0.100485 -0.059619 0.053664 0
M  V30 12 C -1.184482 0.782801 0.276167 0
M  V30 13 C -1.266369 2.181092 0.802089 0
M  V30 14 N -2.266615 0.067847 -0.097260 0
M  V30 15 C -1.992582 -1.164012 -0.544531 0
M  V30 16 C -2.816105 -2.246328 -1.055383 0
M  V30 17 C -3.753825 -2.248938 -1.972174 0
M  V30 18 C -4.184327 -1.102674 -2.715419 0
M  V30 19 O -3.701700 0.047336 -2.597691 0
M  V30 20 N -5.213084 -1.525838 -3.564531 0
M  V30 21 C -5.417314 -2.923240 -3.349811 0
M  V30 22 C -6.316626 -3.779416 -3.949030 0
M  V30 23 C -6.325220 -5.124394 -3.562374 0
M  V30 24 C -5.460529 -5.591454 -2.608293 0
M  V30 25 F -5.468386 -6.896348 -2.233550 0
M  V30 26 C -4.545040 -4.725671 -1.996635 0
M  V30 27 C -4.552680 -3.406972 -2.390560 0
M  V30 28 C -0.598319 -1.245267 -0.446888 0
M  V30 29 C 0.238850 -2.385109 -0.812103 0
M  V30 30 H 3.854100 0.035937 5.146879 0
M  V30 31 H 2.187300 -0.522715 5.210564 0
M  V30 32 H 2.466620 1.147829 5.682311 0
M  V30 33 H 2.145281 -0.084796 3.026704 0
M  V30 34 H 1.898787 1.613296 3.510960 0
M  V30 35 H 4.057458 3.100144 3.142887 0
M  V30 36 H 5.478081 2.232857 2.499283 0
M  V30 37 H 5.879946 1.237048 4.803569 0
M  V30 38 H 4.540649 2.288696 5.431610 0
M  V30 39 H 5.942874 2.985358 4.640249 0
M  V30 40 H 4.291612 -0.882291 2.285549 0
M  V30 41 H 5.490568 0.323199 1.864737 0
M  V30 42 H 4.182629 1.007661 -0.135115 0
M  V30 43 H 4.476420 -0.711920 -0.022807 0
M  V30 44 H 2.292727 -1.118909 -0.191624 0
M  V30 45 H -2.269139 2.596889 0.618125 0
M  V30 46 H -1.010815 2.111029 1.876367 0
M  V30 47 H -0.545689 2.830689 0.275035 0
M  V30 48 H -3.255155 0.449475 -0.025132 0
M  V30 49 H -2.597971 -3.215205 -0.575604 0
M  V30 50 H -5.695464 -0.858254 -4.216467 0
M  V30 51 H -7.009134 -3.435056 -4.703989 0
M  V30 52 H -7.042377 -5.756228 -4.055492 0
M  V30 53 H -3.870966 -5.106365 -1.247282 0
M  V30 54 H 0.751947 -2.898701 0.007096 0
M  V30 55 H 0.887899 -2.203882 -1.723877 0
M  V30 56 H -0.457014 -3.190187 -1.216389 0
M  V30 END ATOM
M  V30 BEGIN BOND
M  V30 1 1 1 2
M  V30 2 1 2 3
M  V30 3 1 3 4
M  V30 4 1 4 5
M  V30 5 1 3 6
M  V30 6 1 6 7
M  V30 7 1 7 8
M  V30 8 1 8 9
M  V30 9 2 9 10
M  V30 10 1 9 11
M  V30 11 2 11 12
M  V30 12 1 12 13
M  V30 13 1 12 14
M  V30 14 1 14 15
M  V30 15 1 15 16
M  V30 16 2 16 17
M  V30 17 1 17 18
M  V30 18 2 18 19
M  V30 19 1 18 20
M  V30 20 1 20 21
M  V30 21 2 21 22
M  V30 22 1 22 23
M  V30 23 2 23 24
M  V30 24 1 24 25
M  V30 25 1 24 26
M  V30 26 2 26 27
M  V30 27 2 15 28
M  V30 28 1 28 29
M  V30 29 1 28 11
M  V30 30 1 27 17
M  V30 31 1 27 21
M  V30 32 1 1 30
M  V30 33 1 1 31
M  V30 34 1 1 32
M  V30 35 1 2 33
M  V30 36 1 2 34
M  V30 37 1 4 35
M  V30 38 1 4 36
M  V30 39 1 5 37
M  V30 40 1 5 38
M  V30 41 1 5 39
M  V30 42 1 6 40
M  V30 43 1 6 41
M  V30 44 1 7 42
M  V30 45 1 7 43
M  V30 46 1 8 44
M  V30 47 1 13 45
M  V30 48 1 13 46
M  V30 49 1 13 47
M  V30 50 1 14 48
M  V30 51 1 16 49
M  V30 52 1 20 50
M  V30 53 1 22 51
M  V30 54 1 23 52
M  V30 55 1 26 53
M  V30 56 1 29 54
M  V30 57 1 29 55
M  V30 58 1 29 56
M  V30 END BOND
M  V30 END CTAB
M  END
>  <Dataset>  (102) 
PKIs

>  <Ligand_Instance>  (102) 
nan

>  <PDB_ID>  (102) 
nan

>  <Standardized_SMILES>  (102) 
CCN(CC)CCNC(=O)c1c(C)[nH]c(/C=C2\C(=O)Nc3ccc(F)cc32)c1C

>  <Name>  (102) 
Sunitinib

>  <Pocket>  (102) 
nan

>  <ATP_Site>  (102) 
nan

>  <Peripheral>  (102) 
nan

>  <Num_H_Atoms_ProtBoundConf>  (102) 
nan

>  <Num_Resolved_Atoms>  (102) 
nan

>  <Num_Not_Resolved_Atoms>  (102) 
nan

$$$$
nan
     RDKit          3D

  0  0  0  0  0  0  0  0  0  0999 V3000
M  V30 BEGIN CTAB
M  V30 COUNTS 48 50 0 0 0
M  V30 BEGIN ATOM
M  V30 1 C 4.315036 -6.496825 0.376273 0
M  V30 2 N 3.545406 -5.792523 1.385601 0
M  V30 3 C 3.613716 -4.425489 1.728570 0
M  V30 4 O 4.406889 -3.649976 1.142665 0
M  V30 5 C 2.723755 -3.928984 2.799486 0
M  V30 6 C 2.783884 -2.600743 3.139137 0
M  V30 7 C 1.981298 -2.071393 4.129564 0
M  V30 8 O 2.039509 -0.710049 4.481212 0
M  V30 9 C 1.212315 0.219832 3.829007 0
M  V30 10 C 1.835091 0.750714 2.694117 0
M  V30 11 C 1.145363 1.686327 1.938612 0
M  V30 12 C -0.124658 2.053999 2.337364 0
M  V30 13 N -0.787036 3.020192 1.522459 0
M  V30 14 C -1.565415 2.448604 0.459969 0
M  V30 15 O -1.546030 1.188742 0.408140 0
M  V30 16 N -2.312779 3.166246 -0.482364 0
M  V30 17 C -3.053456 2.472183 -1.502619 0
M  V30 18 C -4.357422 2.020659 -1.451777 0
M  V30 19 C -4.864911 1.374471 -2.559907 0
M  V30 20 C -4.106780 1.180223 -3.684555 0
M  V30 21 Cl -4.861053 0.347671 -5.024987 0
M  V30 22 C -2.790705 1.627488 -3.756132 0
M  V30 23 C -2.023209 1.384448 -5.005862 0
M  V30 24 F -1.955549 0.011540 -5.226837 0
M  V30 25 F -2.618016 1.975506 -6.077941 0
M  V30 26 F -0.738093 1.880540 -4.768982 0
M  V30 27 C -2.286352 2.279300 -2.631792 0
M  V30 28 C -0.742888 1.532394 3.456833 0
M  V30 29 C -0.059115 0.600591 4.211454 0
M  V30 30 C 1.101089 -2.904953 4.787949 0
M  V30 31 C 1.082307 -4.230419 4.406365 0
M  V30 32 N 1.868899 -4.719230 3.444749 0
M  V30 33 H 5.210589 -6.988175 0.756417 0
M  V30 34 H 3.653114 -7.217216 -0.156198 0
M  V30 35 H 4.659340 -5.695843 -0.329019 0
M  V30 36 H 2.868745 -6.403970 1.900630 0
M  V30 37 H 3.450274 -1.937130 2.650532 0
M  V30 38 H 2.819228 0.491873 2.350691 0
M  V30 39 H 1.617738 2.116512 1.041463 0
M  V30 40 H -0.807796 4.078780 1.560138 0
M  V30 41 H -2.299646 4.219522 -0.400303 0
M  V30 42 H -4.849512 2.234392 -0.511659 0
M  V30 43 H -5.895710 1.050858 -2.439845 0
M  V30 44 H -1.255274 2.593773 -2.774038 0
M  V30 45 H -1.730388 1.823279 3.760277 0
M  V30 46 H -0.437666 0.125756 5.102247 0
M  V30 47 H 0.486568 -2.465280 5.556692 0
M  V30 48 H 0.393330 -4.885433 4.920931 0
M  V30 END ATOM
M  V30 BEGIN BOND
M  V30 1 1 1 2
M  V30 2 1 2 3
M  V30 3 2 3 4
M  V30 4 1 3 5
M  V30 5 2 5 6
M  V30 6 1 6 7
M  V30 7 1 7 8
M  V30 8 1 8 9
M  V30 9 2 9 10
M  V30 10 1 10 11
M  V30 11 2 11 12
M  V30 12 1 12 13
M  V30 13 1 13 14
M  V30 14 2 14 15
M  V30 15 1 14 16
M  V30 16 1 16 17
M  V30 17 2 17 18
M  V30 18 1 18 19
M  V30 19 2 19 20
M  V30 20 1 20 21
M  V30 21 1 20 22
M  V30 22 1 22 23
M  V30 23 1 23 24
M  V30 24 1 23 25
M  V30 25 1 23 26
M  V30 26 2 22 27
M  V30 27 1 12 28
M  V30 28 2 28 29
M  V30 29 2 7 30
M  V30 30 1 30 31
M  V30 31 2 31 32
M  V30 32 1 32 5
M  V30 33 1 29 9
M  V30 34 1 27 17
M  V30 35 1 1 33
M  V30 36 1 1 34
M  V30 37 1 1 35
M  V30 38 1 2 36
M  V30 39 1 6 37
M  V30 40 1 10 38
M  V30 41 1 11 39
M  V30 42 1 13 40
M  V30 43 1 16 41
M  V30 44 1 18 42
M  V30 45 1 19 43
M  V30 46 1 27 44
M  V30 47 1 28 45
M  V30 48 1 29 46
M  V30 49 1 30 47
M  V30 50 1 31 48
M  V30 END BOND
M  V30 END CTAB
M  END
>  <Dataset>  (103) 
PKIs

>  <Ligand_Instance>  (103) 
nan

>  <PDB_ID>  (103) 
nan

>  <Standardized_SMILES>  (103) 
CNC(=O)c1cc(Oc2ccc(NC(=O)Nc3ccc(Cl)c(C(F)(F)F)c3)cc2)ccn1

>  <Name>  (103) 
Sorafenib

>  <Pocket>  (103) 
nan

>  <ATP_Site>  (103) 
nan

>  <Peripheral>  (103) 
nan

>  <Num_H_Atoms_ProtBoundConf>  (103) 
nan

>  <Num_Resolved_Atoms>  (103) 
nan

>  <Num_Not_Resolved_Atoms>  (103) 
nan

$$$$
nan
     RDKit          3D

  0  0  0  0  0  0  0  0  0  0999 V3000
M  V30 BEGIN CTAB
M  V30 COUNTS 52 54 0 0 0
M  V30 BEGIN ATOM
M  V30 1 C 2.250867 -5.200965 -1.641162 0
M  V30 2 C 1.876404 -4.218975 -2.199057 0
M  V30 3 C 1.403869 -3.033563 -2.858733 0
M  V30 4 C 0.728686 -3.044969 -4.060850 0
M  V30 5 C 0.285317 -1.868544 -4.669046 0
M  V30 6 C 0.515098 -0.645116 -4.073318 0
M  V30 7 C 1.192826 -0.645423 -2.868542 0
M  V30 8 N 1.468132 0.566712 -2.190559 0
M  V30 9 C 2.158937 0.781092 -0.954858 0
M  V30 10 N 3.487013 0.996406 -0.894535 0
M  V30 11 C 4.103575 1.194651 0.301839 0
M  V30 12 N 3.400502 1.180190 1.452935 0
M  V30 13 C 2.072308 0.962893 1.369374 0
M  V30 14 C 1.391058 0.954825 2.565298 0
M  V30 15 C 0.033619 0.747589 2.669689 0
M  V30 16 O -0.809593 0.702161 3.740779 0
M  V30 17 C -0.587976 0.841074 5.088973 0
M  V30 18 C 0.319533 -0.137104 5.749131 0
M  V30 19 O -0.122365 -1.457428 5.639304 0
M  V30 20 C 0.823024 -2.242292 6.300279 0
M  V30 21 C -0.634879 0.539957 1.456757 0
M  V30 22 O -2.004618 0.315500 1.373538 0
M  V30 23 C -2.631472 0.111914 0.122961 0
M  V30 24 C -4.091923 -0.098757 0.385291 0
M  V30 25 O -4.861157 -0.312826 -0.721421 0
M  V30 26 C -4.544863 -1.401466 -1.486806 0
M  V30 27 C 0.029087 0.544329 0.247582 0
M  V30 28 C 1.391079 0.755835 0.189988 0
M  V30 29 C 1.625936 -1.811793 -2.277057 0
M  V30 30 H 2.585420 -6.079477 -1.150117 0
M  V30 31 H 0.535490 -3.992420 -4.549170 0
M  V30 32 H -0.249001 -1.895788 -5.623283 0
M  V30 33 H 0.206545 0.302725 -4.476734 0
M  V30 34 H 1.171711 1.493515 -2.553414 0
M  V30 35 H 5.172560 1.370352 0.377895 0
M  V30 36 H 1.879860 1.115997 3.494464 0
M  V30 37 H -1.594216 0.742810 5.597776 0
M  V30 38 H -0.250312 1.861626 5.382089 0
M  V30 39 H 0.257421 0.080783 6.856532 0
M  V30 40 H 1.365386 -0.024955 5.482396 0
M  V30 41 H 0.485534 -3.291773 6.221565 0
M  V30 42 H 1.837989 -2.171393 5.876954 0
M  V30 43 H 0.847744 -2.013807 7.391322 0
M  V30 44 H -2.128243 -0.736371 -0.345118 0
M  V30 45 H -2.505982 1.055403 -0.474973 0
M  V30 46 H -4.488742 0.766279 0.928648 0
M  V30 47 H -4.161958 -0.990715 1.060024 0
M  V30 48 H -5.282374 -1.406357 -2.340232 0
M  V30 49 H -4.733667 -2.365645 -0.938542 0
M  V30 50 H -3.561211 -1.406072 -1.961076 0
M  V30 51 H -0.450664 0.388613 -0.704013 0
M  V30 52 H 2.157024 -1.775778 -1.327079 0
M  V30 END ATOM
M  V30 BEGIN BOND
M  V30 1 3 1 2
M  V30 2 1 2 3
M  V30 3 2 3 4
M  V30 4 1 4 5
M  V30 5 2 5 6
M  V30 6 1 6 7
M  V30 7 1 7 8
M  V30 8 1 8 9
M  V30 9 2 9 10
M  V30 10 1 10 11
M  V30 11 2 11 12
M  V30 12 1 12 13
M  V30 13 2 13 14
M  V30 14 1 14 15
M  V30 15 1 15 16
M  V30 16 1 16 17
M  V30 17 1 17 18
M  V30 18 1 18 19
M  V30 19 1 19 20
M  V30 20 2 15 21
M  V30 21 1 21 22
M  V30 22 1 22 23
M  V30 23 1 23 24
M  V30 24 1 24 25
M  V30 25 1 25 26
M  V30 26 1 21 27
M  V30 27 2 27 28
M  V30 28 2 7 29
M  V30 29 1 29 3
M  V30 30 1 28 9
M  V30 31 1 28 13
M  V30 32 1 1 30
M  V30 33 1 4 31
M  V30 34 1 5 32
M  V30 35 1 6 33
M  V30 36 1 8 34
M  V30 37 1 11 35
M  V30 38 1 14 36
M  V30 39 1 17 37
M  V30 40 1 17 38
M  V30 41 1 18 39
M  V30 42 1 18 40
M  V30 43 1 20 41
M  V30 44 1 20 42
M  V30 45 1 20 43
M  V30 46 1 23 44
M  V30 47 1 23 45
M  V30 48 1 24 46
M  V30 49 1 24 47
M  V30 50 1 26 48
M  V30 51 1 26 49
M  V30 52 1 26 50
M  V30 53 1 27 51
M  V30 54 1 29 52
M  V30 END BOND
M  V30 END CTAB
M  END
>  <Dataset>  (104) 
PKIs

>  <Ligand_Instance>  (104) 
nan

>  <PDB_ID>  (104) 
nan

>  <Standardized_SMILES>  (104) 
C#Cc1cccc(Nc2ncnc3cc(OCCOC)c(OCCOC)cc23)c1

>  <Name>  (104) 
Erlotinib

>  <Pocket>  (104) 
nan

>  <ATP_Site>  (104) 
nan

>  <Peripheral>  (104) 
nan

>  <Num_H_Atoms_ProtBoundConf>  (104) 
nan

>  <Num_Resolved_Atoms>  (104) 
nan

>  <Num_Not_Resolved_Atoms>  (104) 
nan

$$$$
nan
     RDKit          3D

  0  0  0  0  0  0  0  0  0  0999 V3000
M  V30 BEGIN CTAB
M  V30 COUNTS 55 58 0 0 0
M  V30 BEGIN ATOM
M  V30 1 C -0.200954 0.065252 6.322085 0
M  V30 2 O -0.402239 -0.484119 5.032798 0
M  V30 3 C 0.600374 -0.336831 4.082461 0
M  V30 4 C 1.755714 0.331190 4.406218 0
M  V30 5 C 2.756758 0.481208 3.465804 0
M  V30 6 N 3.877185 1.136412 3.800697 0
M  V30 7 C 4.864304 1.290916 2.892014 0
M  V30 8 N 4.776081 0.808344 1.638454 0
M  V30 9 C 3.655039 0.141847 1.272246 0
M  V30 10 N 3.399507 -0.427323 0.000711 0
M  V30 11 C 2.763556 0.395890 -0.958395 0
M  V30 12 C 2.417678 1.691895 -0.644469 0
M  V30 13 C 1.797225 2.560998 -1.515246 0
M  V30 14 C 1.527485 2.038460 -2.780693 0
M  V30 15 F 0.918256 2.862361 -3.664793 0
M  V30 16 C 1.846133 0.749795 -3.163177 0
M  V30 17 Cl 1.452025 0.208492 -4.793259 0
M  V30 18 C 2.474030 -0.085097 -2.237985 0
M  V30 19 C 2.631105 -0.028138 2.187153 0
M  V30 20 C 1.455910 -0.697845 1.885722 0
M  V30 21 C 0.439583 -0.861483 2.808224 0
M  V30 22 O -0.735992 -1.515670 2.551495 0
M  V30 23 C -1.077194 -2.113013 1.316728 0
M  V30 24 C -2.433334 -2.754446 1.342958 0
M  V30 25 C -2.762590 -3.389061 -0.014119 0
M  V30 26 N -2.753984 -2.389233 -1.045306 0
M  V30 27 C -3.059442 -2.934096 -2.353342 0
M  V30 28 C -2.658299 -1.892532 -3.376693 0
M  V30 29 O -3.127449 -0.658901 -2.944632 0
M  V30 30 C -4.192235 -0.778204 -2.067282 0
M  V30 31 C -3.717081 -1.352519 -0.746180 0
M  V30 32 H -1.028170 -0.262663 7.005330 0
M  V30 33 H -0.265065 1.180727 6.225654 0
M  V30 34 H 0.745321 -0.251407 6.758076 0
M  V30 35 H 1.895634 0.747909 5.401618 0
M  V30 36 H 5.758171 1.826945 3.197075 0
M  V30 37 H 3.655128 -1.406424 -0.252107 0
M  V30 38 H 2.637575 2.074380 0.344251 0
M  V30 39 H 1.542177 3.559148 -1.241902 0
M  V30 40 H 2.728383 -1.096669 -2.526505 0
M  V30 41 H 1.334649 -1.106434 0.887966 0
M  V30 42 H -0.323956 -2.890034 1.066705 0
M  V30 43 H -1.043188 -1.347400 0.515853 0
M  V30 44 H -2.479092 -3.543089 2.121725 0
M  V30 45 H -3.190224 -1.968568 1.578286 0
M  V30 46 H -1.960690 -4.135024 -0.224297 0
M  V30 47 H -3.758277 -3.871275 0.061932 0
M  V30 48 H -4.120329 -3.225979 -2.480785 0
M  V30 49 H -2.465821 -3.867079 -2.551160 0
M  V30 50 H -3.031805 -2.137818 -4.390455 0
M  V30 51 H -1.529959 -1.849825 -3.403946 0
M  V30 52 H -4.627967 0.246079 -1.930743 0
M  V30 53 H -5.023047 -1.397662 -2.424515 0
M  V30 54 H -3.226413 -0.560657 -0.173935 0
M  V30 55 H -4.565106 -1.722666 -0.157069 0
M  V30 END ATOM
M  V30 BEGIN BOND
M  V30 1 1 1 2
M  V30 2 1 2 3
M  V30 3 2 3 4
M  V30 4 1 4 5
M  V30 5 2 5 6
M  V30 6 1 6 7
M  V30 7 2 7 8
M  V30 8 1 8 9
M  V30 9 1 9 10
M  V30 10 1 10 11
M  V30 11 2 11 12
M  V30 12 1 12 13
M  V30 13 2 13 14
M  V30 14 1 14 15
M  V30 15 1 14 16
M  V30 16 1 16 17
M  V30 17 2 16 18
M  V30 18 2 9 19
M  V30 19 1 19 20
M  V30 20 2 20 21
M  V30 21 1 21 22
M  V30 22 1 22 23
M  V30 23 1 23 24
M  V30 24 1 24 25
M  V30 25 1 25 26
M  V30 26 1 26 27
M  V30 27 1 27 28
M  V30 28 1 28 29
M  V30 29 1 29 30
M  V30 30 1 30 31
M  V30 31 1 21 3
M  V30 32 1 31 26
M  V30 33 1 19 5
M  V30 34 1 18 11
M  V30 35 1 1 32
M  V30 36 1 1 33
M  V30 37 1 1 34
M  V30 38 1 4 35
M  V30 39 1 7 36
M  V30 40 1 10 37
M  V30 41 1 12 38
M  V30 42 1 13 39
M  V30 43 1 18 40
M  V30 44 1 20 41
M  V30 45 1 23 42
M  V30 46 1 23 43
M  V30 47 1 24 44
M  V30 48 1 24 45
M  V30 49 1 25 46
M  V30 50 1 25 47
M  V30 51 1 27 48
M  V30 52 1 27 49
M  V30 53 1 28 50
M  V30 54 1 28 51
M  V30 55 1 30 52
M  V30 56 1 30 53
M  V30 57 1 31 54
M  V30 58 1 31 55
M  V30 END BOND
M  V30 END CTAB
M  END
>  <Dataset>  (105) 
PKIs

>  <Ligand_Instance>  (105) 
nan

>  <PDB_ID>  (105) 
nan

>  <Standardized_SMILES>  (105) 
COc1cc2ncnc(Nc3ccc(F)c(Cl)c3)c2cc1OCCCN1CCOCC1

>  <Name>  (105) 
Gefitinib

>  <Pocket>  (105) 
nan

>  <ATP_Site>  (105) 
nan

>  <Peripheral>  (105) 
nan

>  <Num_H_Atoms_ProtBoundConf>  (105) 
nan

>  <Num_Resolved_Atoms>  (105) 
nan

>  <Num_Not_Resolved_Atoms>  (105) 
nan

$$$$
nan
     RDKit          3D

  0  0  0  0  0  0  0  0  0  0999 V3000
M  V30 BEGIN CTAB
M  V30 COUNTS 68 72 0 0 0
M  V30 BEGIN ATOM
M  V30 1 C 3.897088 -3.217515 6.313551 0
M  V30 2 C 3.002112 -2.432487 5.406845 0
M  V30 3 C 2.528918 -1.227906 5.861929 0
M  V30 4 C 1.700047 -0.453020 5.079116 0
M  V30 5 C 1.365740 -0.929353 3.829633 0
M  V30 6 N 0.509953 -0.090769 3.067183 0
M  V30 7 C 0.771457 0.953964 2.155421 0
M  V30 8 O 1.954556 1.290598 1.892160 0
M  V30 9 C -0.309385 1.673652 1.492738 0
M  V30 10 C 0.060407 2.681721 0.621262 0
M  V30 11 C -0.931564 3.410479 -0.045881 0
M  V30 12 C -2.299026 3.168369 0.125953 0
M  V30 13 C -3.285365 3.967001 -0.601002 0
M  V30 14 N -3.687262 3.476538 -1.874080 0
M  V30 15 C -4.304811 2.190707 -1.898008 0
M  V30 16 C -3.320611 1.222951 -2.559976 0
M  V30 17 N -3.248381 1.500604 -3.990592 0
M  V30 18 C -2.004830 0.966307 -4.495189 0
M  V30 19 C -3.223448 2.938625 -4.150212 0
M  V30 20 C -2.706109 3.656284 -2.913619 0
M  V30 21 C -2.580532 2.148163 1.010494 0
M  V30 22 C -1.645492 1.398880 1.693652 0
M  V30 23 C 1.865248 -2.144328 3.416449 0
M  V30 24 C 2.692653 -2.945598 4.165224 0
M  V30 25 N 3.194813 -4.194262 3.716850 0
M  V30 26 C 2.980233 -4.869240 2.493827 0
M  V30 27 N 3.581839 -6.056363 2.303420 0
M  V30 28 C 3.441132 -6.774119 1.182638 0
M  V30 29 C 2.645264 -6.279850 0.175097 0
M  V30 30 C 2.012155 -5.076308 0.322468 0
M  V30 31 C 1.173409 -4.548310 -0.727874 0
M  V30 32 C 0.517745 -3.342354 -0.620512 0
M  V30 33 C -0.294966 -2.818629 -1.624275 0
M  V30 34 C -0.450816 -3.558921 -2.801241 0
M  V30 35 N 0.193468 -4.717857 -2.876206 0
M  V30 36 C 0.967884 -5.201546 -1.901750 0
M  V30 37 N 2.220601 -4.440311 1.481933 0
M  V30 38 H 4.812409 -3.441470 5.768621 0
M  V30 39 H 4.096701 -2.689912 7.245561 0
M  V30 40 H 3.417426 -4.200347 6.579657 0
M  V30 41 H 2.806411 -0.882067 6.840601 0
M  V30 42 H 1.337356 0.492814 5.454161 0
M  V30 43 H -0.455054 -0.402739 3.314270 0
M  V30 44 H 1.097925 2.954044 0.413824 0
M  V30 45 H -0.597332 4.206141 -0.730528 0
M  V30 46 H -4.141865 4.180893 0.069700 0
M  V30 47 H -2.805958 4.971851 -0.784528 0
M  V30 48 H -5.192128 2.209528 -2.596347 0
M  V30 49 H -4.674678 1.807877 -0.948492 0
M  V30 50 H -2.294870 1.388495 -2.169487 0
M  V30 51 H -3.615907 0.170490 -2.392916 0
M  V30 52 H -1.318923 0.644869 -3.691379 0
M  V30 53 H -2.202493 0.091282 -5.174417 0
M  V30 54 H -1.433179 1.686024 -5.128559 0
M  V30 55 H -2.522328 3.170571 -4.976765 0
M  V30 56 H -4.261551 3.255753 -4.384636 0
M  V30 57 H -1.706639 3.284816 -2.640207 0
M  V30 58 H -2.669882 4.730613 -3.169612 0
M  V30 59 H -3.615285 1.906932 1.193252 0
M  V30 60 H -1.937820 0.614860 2.371129 0
M  V30 61 H 1.548643 -2.421266 2.440222 0
M  V30 62 H 3.825829 -4.672853 4.429552 0
M  V30 63 H 3.971837 -7.709675 1.147027 0
M  V30 64 H 2.579091 -6.911433 -0.696693 0
M  V30 65 H 0.605209 -2.731770 0.266859 0
M  V30 66 H -0.786964 -1.882541 -1.507213 0
M  V30 67 H -1.070227 -3.186199 -3.596955 0
M  V30 68 H 1.402899 -6.142241 -2.138361 0
M  V30 END ATOM
M  V30 BEGIN BOND
M  V30 1 1 1 2
M  V30 2 2 2 3
M  V30 3 1 3 4
M  V30 4 2 4 5
M  V30 5 1 5 6
M  V30 6 1 6 7
M  V30 7 2 7 8
M  V30 8 1 7 9
M  V30 9 2 9 10
M  V30 10 1 10 11
M  V30 11 2 11 12
M  V30 12 1 12 13
M  V30 13 1 13 14
M  V30 14 1 14 15
M  V30 15 1 15 16
M  V30 16 1 16 17
M  V30 17 1 17 18
M  V30 18 1 17 19
M  V30 19 1 19 20
M  V30 20 1 12 21
M  V30 21 2 21 22
M  V30 22 1 5 23
M  V30 23 2 23 24
M  V30 24 1 24 25
M  V30 25 1 25 26
M  V30 26 2 26 27
M  V30 27 1 27 28
M  V30 28 2 28 29
M  V30 29 1 29 30
M  V30 30 1 30 31
M  V30 31 2 31 32
M  V30 32 1 32 33
M  V30 33 2 33 34
M  V30 34 1 34 35
M  V30 35 2 35 36
M  V30 36 2 30 37
M  V30 37 1 24 2
M  V30 38 1 37 26
M  V30 39 1 22 9
M  V30 40 1 36 31
M  V30 41 1 20 14
M  V30 42 1 1 38
M  V30 43 1 1 39
M  V30 44 1 1 40
M  V30 45 1 3 41
M  V30 46 1 4 42
M  V30 47 1 6 43
M  V30 48 1 10 44
M  V30 49 1 11 45
M  V30 50 1 13 46
M  V30 51 1 13 47
M  V30 52 1 15 48
M  V30 53 1 15 49
M  V30 54 1 16 50
M  V30 55 1 16 51
M  V30 56 1 18 52
M  V30 57 1 18 53
M  V30 58 1 18 54
M  V30 59 1 19 55
M  V30 60 1 19 56
M  V30 61 1 20 57
M  V30 62 1 20 58
M  V30 63 1 21 59
M  V30 64 1 22 60
M  V30 65 1 23 61
M  V30 66 1 25 62
M  V30 67 1 28 63
M  V30 68 1 29 64
M  V30 69 1 32 65
M  V30 70 1 33 66
M  V30 71 1 34 67
M  V30 72 1 36 68
M  V30 END BOND
M  V30 END CTAB
M  END
>  <Dataset>  (106) 
PKIs

>  <Ligand_Instance>  (106) 
nan

>  <PDB_ID>  (106) 
nan

>  <Standardized_SMILES>  (106) 
Cc1ccc(NC(=O)c2ccc(CN3CCN(C)CC3)cc2)cc1Nc1nccc(-c2cccnc2)n1

>  <Name>  (106) 
Imatinib

>  <Pocket>  (106) 
nan

>  <ATP_Site>  (106) 
nan

>  <Peripheral>  (106) 
nan

>  <Num_H_Atoms_ProtBoundConf>  (106) 
nan

>  <Num_Resolved_Atoms>  (106) 
nan

>  <Num_Not_Resolved_Atoms>  (106) 
nan

$$$$
nan
     RDKit          3D

  0  0  0  0  0  0  0  0  0  0999 V3000
M  V30 BEGIN CTAB
M  V30 COUNTS 37 39 0 0 0
M  V30 BEGIN ATOM
M  V30 1 O 1.577255 -1.714559 3.194716 0
M  V30 2 S 0.848803 -0.737678 2.286557 0
M  V30 3 O 0.382799 0.368539 3.232518 0
M  V30 4 C 1.971353 -0.145827 1.131271 0
M  V30 5 C 3.257668 -0.693127 1.050982 0
M  V30 6 C 4.242527 -0.333258 0.162400 0
M  V30 7 C 3.963830 0.661996 -0.750884 0
M  V30 8 C 2.723234 1.252556 -0.738995 0
M  V30 9 C 2.377436 2.268359 -1.626840 0
M  V30 10 N 1.149931 2.866023 -1.615858 0
M  V30 11 C 0.218379 2.459941 -0.703390 0
M  V30 12 C 0.586605 1.462833 0.152747 0
M  V30 13 C 1.810323 0.832273 0.176979 0
M  V30 14 N -0.527896 -1.506856 1.706019 0
M  V30 15 C -1.722938 -0.814130 2.031743 0
M  V30 16 C -2.574654 -0.494251 0.831054 0
M  V30 17 C -2.218635 -1.515669 -0.250786 0
M  V30 18 N -2.445092 -2.821501 0.280136 0
M  V30 19 C -1.218539 -3.512745 0.629929 0
M  V30 20 C -0.591290 -2.925729 1.881153 0
M  V30 21 H 3.539979 -1.490789 1.752821 0
M  V30 22 H 5.206199 -0.808446 0.171250 0
M  V30 23 H 4.704126 0.960358 -1.448997 0
M  V30 24 H 3.168493 2.544989 -2.329690 0
M  V30 25 H -0.756170 2.928244 -0.687605 0
M  V30 26 H -0.170123 1.179351 0.861917 0
M  V30 27 H -1.520204 0.153384 2.559203 0
M  V30 28 H -2.325670 -1.488591 2.702429 0
M  V30 29 H -2.444834 0.537412 0.447684 0
M  V30 30 H -3.644623 -0.617262 1.097232 0
M  V30 31 H -1.179281 -1.348823 -0.588476 0
M  V30 32 H -2.909829 -1.321472 -1.096716 0
M  V30 33 H -3.047471 -3.403157 -0.325915 0
M  V30 34 H -0.497753 -3.533989 -0.217912 0
M  V30 35 H -1.507667 -4.573796 0.786405 0
M  V30 36 H -1.235708 -3.260925 2.727685 0
M  V30 37 H 0.407085 -3.370100 1.970205 0
M  V30 END ATOM
M  V30 BEGIN BOND
M  V30 1 2 1 2
M  V30 2 2 2 3
M  V30 3 1 2 4
M  V30 4 2 4 5
M  V30 5 1 5 6
M  V30 6 2 6 7
M  V30 7 1 7 8
M  V30 8 2 8 9
M  V30 9 1 9 10
M  V30 10 2 10 11
M  V30 11 1 11 12
M  V30 12 2 12 13
M  V30 13 1 2 14
M  V30 14 1 14 15
M  V30 15 1 15 16
M  V30 16 1 16 17
M  V30 17 1 17 18
M  V30 18 1 18 19
M  V30 19 1 19 20
M  V30 20 1 13 4
M  V30 21 1 20 14
M  V30 22 1 13 8
M  V30 23 1 5 21
M  V30 24 1 6 22
M  V30 25 1 7 23
M  V30 26 1 9 24
M  V30 27 1 11 25
M  V30 28 1 12 26
M  V30 29 1 15 27
M  V30 30 1 15 28
M  V30 31 1 16 29
M  V30 32 1 16 30
M  V30 33 1 17 31
M  V30 34 1 17 32
M  V30 35 1 18 33
M  V30 36 1 19 34
M  V30 37 1 19 35
M  V30 38 1 20 36
M  V30 39 1 20 37
M  V30 END BOND
M  V30 END CTAB
M  END
>  <Dataset>  (107) 
PKIs

>  <Ligand_Instance>  (107) 
nan

>  <PDB_ID>  (107) 
nan

>  <Standardized_SMILES>  (107) 
O=S(=O)(c1cccc2cnccc12)N1CCCNCC1

>  <Name>  (107) 
Fasudil

>  <Pocket>  (107) 
nan

>  <ATP_Site>  (107) 
nan

>  <Peripheral>  (107) 
nan

>  <Num_H_Atoms_ProtBoundConf>  (107) 
nan

>  <Num_Resolved_Atoms>  (107) 
nan

>  <Num_Not_Resolved_Atoms>  (107) 
nan

$$$$
